data_str_m2_o1_o2_pcu_sym.146
_audit_creation_date              2020-01-03
_audit_creation_method            'Materials Studio'
_symmetry_space_group_name_H-M    'P1'
_symmetry_Int_Tables_number       1
_symmetry_cell_setting            triclinic
loop_
_symmetry_equiv_pos_as_xyz
  x,y,z
_cell_length_a                    33.0794
_cell_length_b                    29.1748
_cell_length_c                    30.2802
_cell_angle_alpha                 88.1716
_cell_angle_beta                  99.9791
_cell_angle_gamma                 90.2773
loop_
_atom_site_label
_atom_site_type_symbol
_atom_site_fract_x
_atom_site_fract_y
_atom_site_fract_z
_atom_site_U_iso_or_equiv
_atom_site_adp_type
_atom_site_occupancy
C1     C     0.08752   0.16711   0.25253   0.00000  Uiso   1.00
C2     C     0.24516   0.16680   0.24625   0.00000  Uiso   1.00
C3     C     0.16951   0.16654   0.16473   0.00000  Uiso   1.00
C4     C     0.16557   0.16575   0.33538   0.00000  Uiso   1.00
C5     C     0.13689   0.02569   0.22065   0.00000  Uiso   1.00
C6     C     0.19562   0.30724   0.28058   0.00000  Uiso   1.00
C7     C     0.19549   0.02425   0.28072   0.00000  Uiso   1.00
C8     C     0.13777   0.30916   0.22011   0.00000  Uiso   1.00
C9     C     0.02109   0.12848   0.26239   0.00000  Uiso   1.00
C10    C     0.30949   0.20786   0.23331   0.00000  Uiso   1.00
C11    C     0.31208   0.12618   0.24682   0.00000  Uiso   1.00
C12    C     0.01896   0.21096   0.24658   0.00000  Uiso   1.00
C13    C     0.20685   0.20135   0.05428   0.00000  Uiso   1.00
C14    C     0.20021   0.12409   0.45528   0.00000  Uiso   1.00
C15    C     0.18278   0.20385   0.45601   0.00000  Uiso   1.00
C16    C     0.19305   0.12147   0.05203   0.00000  Uiso   1.00
C17    C     0.18816   0.20408   0.09211   0.00000  Uiso   1.00
C18    C     0.17926   0.12181   0.41101   0.00000  Uiso   1.00
C19    C     0.16748   0.20390   0.41005   0.00000  Uiso   1.00
C20    C     0.18584   0.12093   0.09644   0.00000  Uiso   1.00
C21    C     0.18021   0.16388   0.11743   0.00000  Uiso   1.00
C22    C     0.16912   0.16343   0.38570   0.00000  Uiso   1.00
C23    C     0.20306   0.16154   0.02992   0.00000  Uiso   1.00
C24    C     0.19906   0.16403   0.47966   0.00000  Uiso   1.00
C25    C     0.28932   0.16696   0.24184   0.00000  Uiso   1.00
C26    C     0.04230   0.16928   0.25472   0.00000  Uiso   1.00
Cu27   Cu    0.16667   0.21355   0.25000   0.00000  Uiso   1.00
Cu28   Cu    0.16667   0.11978   0.25000   0.00000  Uiso   1.00
H29    H     0.21663   0.23261   0.03912   0.00000  Uiso   1.00
H30    H     0.21137   0.09248   0.47253   0.00000  Uiso   1.00
H31    H     0.17789   0.23421   0.47380   0.00000  Uiso   1.00
H32    H     0.18876   0.09007   0.03404   0.00000  Uiso   1.00
N33    N     0.16667   0.28402   0.25000   0.00000  Uiso   1.00
N34    N     0.16667   0.04931   0.25000   0.00000  Uiso   1.00
O35    O     0.10655   0.20625   0.25000   0.00000  Uiso   1.00
O36    O     0.22679   0.12709   0.25001   0.00000  Uiso   1.00
O37    O     0.22679   0.20625   0.25001   0.00000  Uiso   1.00
O38    O     0.10655   0.12709   0.25000   0.00000  Uiso   1.00
O39    O     0.16666   0.20626   0.18573   0.00000  Uiso   1.00
O40    O     0.16667   0.12707   0.31427   0.00000  Uiso   1.00
O41    O     0.16667   0.20626   0.31427   0.00000  Uiso   1.00
O42    O     0.16666   0.12707   0.18573   0.00000  Uiso   1.00
S43    S     0.09020   0.05597   0.19263   0.00000  Uiso   1.00
O44    O     0.06251   0.03491   0.15425   0.00000  Uiso   1.00
O45    O     0.06591   0.05756   0.22967   0.00000  Uiso   1.00
O46    O     0.09518   0.10899   0.17130   0.00000  Uiso   1.00
H47    H     0.06695   0.12168   0.16437   0.00000  Uiso   1.00
S48    S     0.23722   0.27634   0.31875   0.00000  Uiso   1.00
O49    O     0.27588   0.28707   0.30114   0.00000  Uiso   1.00
O50    O     0.24170   0.29336   0.36545   0.00000  Uiso   1.00
O51    O     0.23861   0.21948   0.32838   0.00000  Uiso   1.00
H52    H     0.26660   0.21260   0.34489   0.00000  Uiso   1.00
S53    S     0.23228   0.05245   0.32468   0.00000  Uiso   1.00
O54    O     0.22078   0.03894   0.36890   0.00000  Uiso   1.00
O55    O     0.27478   0.03504   0.32438   0.00000  Uiso   1.00
O56    O     0.23885   0.10923   0.32778   0.00000  Uiso   1.00
H57    H     0.25629   0.11423   0.35730   0.00000  Uiso   1.00
S58    S     0.09814   0.28178   0.18063   0.00000  Uiso   1.00
O59    O     0.05834   0.29308   0.19463   0.00000  Uiso   1.00
O60    O     0.09889   0.30402   0.13554   0.00000  Uiso   1.00
O61    O     0.09550   0.22552   0.17121   0.00000  Uiso   1.00
H62    H     0.06757   0.22024   0.15417   0.00000  Uiso   1.00
S63    S     0.16036   0.25436   0.09264   0.00000  Uiso   1.00
O64    O     0.11651   0.23952   0.08987   0.00000  Uiso   1.00
O65    O     0.17586   0.27972   0.13459   0.00000  Uiso   1.00
O66    O     0.16346   0.28846   0.04744   0.00000  Uiso   1.00
H67    H     0.13912   0.30876   0.04395   0.00000  Uiso   1.00
S68    S     0.14783   0.07193   0.40200   0.00000  Uiso   1.00
O69    O     0.13748   0.05927   0.35370   0.00000  Uiso   1.00
O70    O     0.16871   0.03184   0.42896   0.00000  Uiso   1.00
O71    O     0.10412   0.08244   0.42115   0.00000  Uiso   1.00
H72    H     0.08968   0.05258   0.42048   0.00000  Uiso   1.00
S73    S     0.13280   0.24819   0.38898   0.00000  Uiso   1.00
O74    O     0.15124   0.28121   0.35907   0.00000  Uiso   1.00
O75    O     0.09588   0.22575   0.36276   0.00000  Uiso   1.00
O76    O     0.11830   0.27748   0.43062   0.00000  Uiso   1.00
H77    H     0.10027   0.25621   0.44441   0.00000  Uiso   1.00
S78    S     0.17961   0.06398   0.11738   0.00000  Uiso   1.00
O79    O     0.19702   0.05569   0.16597   0.00000  Uiso   1.00
O80    O     0.13472   0.05274   0.10905   0.00000  Uiso   1.00
O81    O     0.20387   0.02760   0.08879   0.00000  Uiso   1.00
H82    H     0.23351   0.03340   0.09894   0.00000  Uiso   1.00
S83    S     0.03727   0.10041   0.31503   0.00000  Uiso   1.00
O84    O     0.07543   0.12313   0.33852   0.00000  Uiso   1.00
O85    O     0.00426   0.10511   0.34301   0.00000  Uiso   1.00
O86    O     0.04605   0.04438   0.30973   0.00000  Uiso   1.00
H87    H     0.05158   0.03140   0.34080   0.00000  Uiso   1.00
S88    S     0.28396   0.24707   0.19165   0.00000  Uiso   1.00
O89    O     0.25288   0.22106   0.16030   0.00000  Uiso   1.00
O90    O     0.26218   0.28386   0.21189   0.00000  Uiso   1.00
O91    O     0.31655   0.27184   0.16148   0.00000  Uiso   1.00
H92    H     0.32482   0.24696   0.14338   0.00000  Uiso   1.00
S93    S     0.29249   0.08121   0.21113   0.00000  Uiso   1.00
O94    O     0.32504   0.05200   0.19773   0.00000  Uiso   1.00
O95    O     0.26501   0.05056   0.23326   0.00000  Uiso   1.00
O96    O     0.26551   0.10553   0.16423   0.00000  Uiso   1.00
H97    H     0.28590   0.12309   0.15016   0.00000  Uiso   1.00
S98    S     0.03322   0.26053   0.27889   0.00000  Uiso   1.00
O99    O     0.07803   0.27198   0.28531   0.00000  Uiso   1.00
O100   O     0.00961   0.30172   0.25759   0.00000  Uiso   1.00
O101   O     0.01982   0.25035   0.32939   0.00000  Uiso   1.00
H102   H     0.02460   0.27970   0.34504   0.00000  Uiso   1.00
C103   C     0.42086   0.16711   0.25253   0.00000  Uiso   1.00
C104   C     0.57849   0.16680   0.24625   0.00000  Uiso   1.00
C105   C     0.50284   0.16654   0.16473   0.00000  Uiso   1.00
C106   C     0.49890   0.16575   0.33538   0.00000  Uiso   1.00
C107   C     0.47022   0.02569   0.22065   0.00000  Uiso   1.00
C108   C     0.52895   0.30724   0.28058   0.00000  Uiso   1.00
C109   C     0.52883   0.02425   0.28072   0.00000  Uiso   1.00
C110   C     0.47110   0.30916   0.22011   0.00000  Uiso   1.00
C111   C     0.35442   0.12848   0.26239   0.00000  Uiso   1.00
C112   C     0.64283   0.20786   0.23331   0.00000  Uiso   1.00
C113   C     0.64541   0.12618   0.24682   0.00000  Uiso   1.00
C114   C     0.35229   0.21096   0.24658   0.00000  Uiso   1.00
C115   C     0.54018   0.20135   0.05428   0.00000  Uiso   1.00
C116   C     0.53354   0.12409   0.45528   0.00000  Uiso   1.00
C117   C     0.51611   0.20385   0.45601   0.00000  Uiso   1.00
C118   C     0.52638   0.12147   0.05203   0.00000  Uiso   1.00
C119   C     0.52149   0.20408   0.09211   0.00000  Uiso   1.00
C120   C     0.51259   0.12181   0.41101   0.00000  Uiso   1.00
C121   C     0.50081   0.20390   0.41005   0.00000  Uiso   1.00
C122   C     0.51917   0.12093   0.09644   0.00000  Uiso   1.00
C123   C     0.51354   0.16388   0.11743   0.00000  Uiso   1.00
C124   C     0.50246   0.16343   0.38570   0.00000  Uiso   1.00
C125   C     0.53639   0.16154   0.02992   0.00000  Uiso   1.00
C126   C     0.53239   0.16403   0.47966   0.00000  Uiso   1.00
C127   C     0.62266   0.16696   0.24184   0.00000  Uiso   1.00
C128   C     0.37563   0.16928   0.25472   0.00000  Uiso   1.00
Cu129  Cu    0.50000   0.21355   0.25000   0.00000  Uiso   1.00
Cu130  Cu    0.50000   0.11978   0.25000   0.00000  Uiso   1.00
H131   H     0.54996   0.23261   0.03912   0.00000  Uiso   1.00
H132   H     0.54470   0.09248   0.47253   0.00000  Uiso   1.00
H133   H     0.51122   0.23421   0.47380   0.00000  Uiso   1.00
H134   H     0.52210   0.09007   0.03404   0.00000  Uiso   1.00
N135   N     0.50000   0.28402   0.25000   0.00000  Uiso   1.00
N136   N     0.50000   0.04931   0.25000   0.00000  Uiso   1.00
O137   O     0.43988   0.20625   0.25000   0.00000  Uiso   1.00
O138   O     0.56012   0.12709   0.25001   0.00000  Uiso   1.00
O139   O     0.56012   0.20625   0.25001   0.00000  Uiso   1.00
O140   O     0.43988   0.12709   0.25000   0.00000  Uiso   1.00
O141   O     0.50000   0.20626   0.18573   0.00000  Uiso   1.00
O142   O     0.50000   0.12707   0.31427   0.00000  Uiso   1.00
O143   O     0.50000   0.20626   0.31427   0.00000  Uiso   1.00
O144   O     0.50000   0.12707   0.18573   0.00000  Uiso   1.00
S145   S     0.42353   0.05597   0.19263   0.00000  Uiso   1.00
O146   O     0.39584   0.03491   0.15425   0.00000  Uiso   1.00
O147   O     0.39925   0.05756   0.22967   0.00000  Uiso   1.00
O148   O     0.42851   0.10899   0.17130   0.00000  Uiso   1.00
H149   H     0.40029   0.12168   0.16437   0.00000  Uiso   1.00
S150   S     0.57056   0.27634   0.31875   0.00000  Uiso   1.00
O151   O     0.60921   0.28707   0.30114   0.00000  Uiso   1.00
O152   O     0.57503   0.29336   0.36545   0.00000  Uiso   1.00
O153   O     0.57195   0.21948   0.32838   0.00000  Uiso   1.00
H154   H     0.59994   0.21260   0.34489   0.00000  Uiso   1.00
S155   S     0.56562   0.05245   0.32468   0.00000  Uiso   1.00
O156   O     0.55412   0.03894   0.36890   0.00000  Uiso   1.00
O157   O     0.60812   0.03504   0.32438   0.00000  Uiso   1.00
O158   O     0.57219   0.10923   0.32778   0.00000  Uiso   1.00
H159   H     0.58963   0.11423   0.35730   0.00000  Uiso   1.00
S160   S     0.43148   0.28178   0.18063   0.00000  Uiso   1.00
O161   O     0.39168   0.29308   0.19463   0.00000  Uiso   1.00
O162   O     0.43222   0.30402   0.13554   0.00000  Uiso   1.00
O163   O     0.42883   0.22552   0.17121   0.00000  Uiso   1.00
H164   H     0.40090   0.22024   0.15417   0.00000  Uiso   1.00
S165   S     0.49370   0.25436   0.09264   0.00000  Uiso   1.00
O166   O     0.44985   0.23952   0.08987   0.00000  Uiso   1.00
O167   O     0.50920   0.27972   0.13459   0.00000  Uiso   1.00
O168   O     0.49680   0.28846   0.04744   0.00000  Uiso   1.00
H169   H     0.47246   0.30876   0.04395   0.00000  Uiso   1.00
S170   S     0.48116   0.07193   0.40200   0.00000  Uiso   1.00
O171   O     0.47081   0.05927   0.35370   0.00000  Uiso   1.00
O172   O     0.50204   0.03184   0.42896   0.00000  Uiso   1.00
O173   O     0.43745   0.08244   0.42115   0.00000  Uiso   1.00
H174   H     0.42301   0.05258   0.42048   0.00000  Uiso   1.00
S175   S     0.46614   0.24819   0.38898   0.00000  Uiso   1.00
O176   O     0.48458   0.28121   0.35907   0.00000  Uiso   1.00
O177   O     0.42921   0.22575   0.36276   0.00000  Uiso   1.00
O178   O     0.45163   0.27748   0.43062   0.00000  Uiso   1.00
H179   H     0.43361   0.25621   0.44441   0.00000  Uiso   1.00
S180   S     0.51295   0.06398   0.11738   0.00000  Uiso   1.00
O181   O     0.53036   0.05569   0.16597   0.00000  Uiso   1.00
O182   O     0.46805   0.05274   0.10905   0.00000  Uiso   1.00
O183   O     0.53720   0.02760   0.08879   0.00000  Uiso   1.00
H184   H     0.56684   0.03340   0.09894   0.00000  Uiso   1.00
S185   S     0.37060   0.10041   0.31503   0.00000  Uiso   1.00
O186   O     0.40876   0.12313   0.33852   0.00000  Uiso   1.00
O187   O     0.33759   0.10511   0.34301   0.00000  Uiso   1.00
O188   O     0.37939   0.04438   0.30973   0.00000  Uiso   1.00
H189   H     0.38492   0.03140   0.34080   0.00000  Uiso   1.00
S190   S     0.61730   0.24707   0.19165   0.00000  Uiso   1.00
O191   O     0.58621   0.22106   0.16030   0.00000  Uiso   1.00
O192   O     0.59551   0.28386   0.21189   0.00000  Uiso   1.00
O193   O     0.64988   0.27184   0.16148   0.00000  Uiso   1.00
H194   H     0.65815   0.24696   0.14338   0.00000  Uiso   1.00
S195   S     0.62582   0.08121   0.21113   0.00000  Uiso   1.00
O196   O     0.65837   0.05200   0.19773   0.00000  Uiso   1.00
O197   O     0.59834   0.05056   0.23326   0.00000  Uiso   1.00
O198   O     0.59885   0.10553   0.16423   0.00000  Uiso   1.00
H199   H     0.61923   0.12309   0.15016   0.00000  Uiso   1.00
S200   S     0.36655   0.26053   0.27889   0.00000  Uiso   1.00
O201   O     0.41136   0.27198   0.28531   0.00000  Uiso   1.00
O202   O     0.34294   0.30172   0.25759   0.00000  Uiso   1.00
O203   O     0.35315   0.25035   0.32939   0.00000  Uiso   1.00
H204   H     0.35794   0.27970   0.34504   0.00000  Uiso   1.00
C205   C     0.75419   0.16711   0.25253   0.00000  Uiso   1.00
C206   C     0.91183   0.16680   0.24625   0.00000  Uiso   1.00
C207   C     0.83617   0.16654   0.16473   0.00000  Uiso   1.00
C208   C     0.83223   0.16575   0.33538   0.00000  Uiso   1.00
C209   C     0.80356   0.02569   0.22065   0.00000  Uiso   1.00
C210   C     0.86229   0.30724   0.28058   0.00000  Uiso   1.00
C211   C     0.86216   0.02425   0.28072   0.00000  Uiso   1.00
C212   C     0.80444   0.30916   0.22011   0.00000  Uiso   1.00
C213   C     0.68775   0.12848   0.26239   0.00000  Uiso   1.00
C214   C     0.97616   0.20786   0.23331   0.00000  Uiso   1.00
C215   C     0.97874   0.12618   0.24682   0.00000  Uiso   1.00
C216   C     0.68562   0.21096   0.24658   0.00000  Uiso   1.00
C217   C     0.87352   0.20135   0.05428   0.00000  Uiso   1.00
C218   C     0.86687   0.12409   0.45528   0.00000  Uiso   1.00
C219   C     0.84944   0.20385   0.45601   0.00000  Uiso   1.00
C220   C     0.85972   0.12147   0.05203   0.00000  Uiso   1.00
C221   C     0.85483   0.20408   0.09211   0.00000  Uiso   1.00
C222   C     0.84592   0.12181   0.41101   0.00000  Uiso   1.00
C223   C     0.83414   0.20390   0.41005   0.00000  Uiso   1.00
C224   C     0.85251   0.12093   0.09644   0.00000  Uiso   1.00
C225   C     0.84687   0.16388   0.11743   0.00000  Uiso   1.00
C226   C     0.83579   0.16343   0.38570   0.00000  Uiso   1.00
C227   C     0.86973   0.16154   0.02992   0.00000  Uiso   1.00
C228   C     0.86573   0.16403   0.47966   0.00000  Uiso   1.00
C229   C     0.95599   0.16696   0.24184   0.00000  Uiso   1.00
C230   C     0.70896   0.16928   0.25472   0.00000  Uiso   1.00
Cu231  Cu    0.83333   0.21355   0.25000   0.00000  Uiso   1.00
Cu232  Cu    0.83333   0.11978   0.25000   0.00000  Uiso   1.00
H233   H     0.88329   0.23261   0.03912   0.00000  Uiso   1.00
H234   H     0.87803   0.09248   0.47253   0.00000  Uiso   1.00
H235   H     0.84456   0.23421   0.47380   0.00000  Uiso   1.00
H236   H     0.85543   0.09007   0.03404   0.00000  Uiso   1.00
N237   N     0.83333   0.28402   0.25000   0.00000  Uiso   1.00
N238   N     0.83333   0.04931   0.25000   0.00000  Uiso   1.00
O239   O     0.77321   0.20625   0.25000   0.00000  Uiso   1.00
O240   O     0.89345   0.12709   0.25001   0.00000  Uiso   1.00
O241   O     0.89345   0.20625   0.25001   0.00000  Uiso   1.00
O242   O     0.77321   0.12709   0.25000   0.00000  Uiso   1.00
O243   O     0.83333   0.20626   0.18573   0.00000  Uiso   1.00
O244   O     0.83334   0.12707   0.31427   0.00000  Uiso   1.00
O245   O     0.83334   0.20626   0.31427   0.00000  Uiso   1.00
O246   O     0.83333   0.12707   0.18573   0.00000  Uiso   1.00
S247   S     0.75687   0.05597   0.19263   0.00000  Uiso   1.00
O248   O     0.72917   0.03491   0.15425   0.00000  Uiso   1.00
O249   O     0.73258   0.05756   0.22967   0.00000  Uiso   1.00
O250   O     0.76184   0.10899   0.17130   0.00000  Uiso   1.00
H251   H     0.73362   0.12168   0.16437   0.00000  Uiso   1.00
S252   S     0.90389   0.27634   0.31875   0.00000  Uiso   1.00
O253   O     0.94254   0.28707   0.30114   0.00000  Uiso   1.00
O254   O     0.90837   0.29336   0.36545   0.00000  Uiso   1.00
O255   O     0.90528   0.21948   0.32838   0.00000  Uiso   1.00
H256   H     0.93327   0.21260   0.34489   0.00000  Uiso   1.00
S257   S     0.89895   0.05245   0.32468   0.00000  Uiso   1.00
O258   O     0.88745   0.03894   0.36890   0.00000  Uiso   1.00
O259   O     0.94145   0.03504   0.32438   0.00000  Uiso   1.00
O260   O     0.90552   0.10923   0.32778   0.00000  Uiso   1.00
H261   H     0.92296   0.11423   0.35730   0.00000  Uiso   1.00
S262   S     0.76481   0.28178   0.18063   0.00000  Uiso   1.00
O263   O     0.72501   0.29308   0.19463   0.00000  Uiso   1.00
O264   O     0.76556   0.30402   0.13554   0.00000  Uiso   1.00
O265   O     0.76217   0.22552   0.17121   0.00000  Uiso   1.00
H266   H     0.73424   0.22024   0.15417   0.00000  Uiso   1.00
S267   S     0.82703   0.25436   0.09264   0.00000  Uiso   1.00
O268   O     0.78318   0.23952   0.08987   0.00000  Uiso   1.00
O269   O     0.84253   0.27972   0.13459   0.00000  Uiso   1.00
O270   O     0.83013   0.28846   0.04744   0.00000  Uiso   1.00
H271   H     0.80579   0.30876   0.04395   0.00000  Uiso   1.00
S272   S     0.81450   0.07193   0.40200   0.00000  Uiso   1.00
O273   O     0.80414   0.05927   0.35370   0.00000  Uiso   1.00
O274   O     0.83537   0.03184   0.42896   0.00000  Uiso   1.00
O275   O     0.77078   0.08244   0.42115   0.00000  Uiso   1.00
H276   H     0.75635   0.05258   0.42048   0.00000  Uiso   1.00
S277   S     0.79947   0.24819   0.38898   0.00000  Uiso   1.00
O278   O     0.81791   0.28121   0.35907   0.00000  Uiso   1.00
O279   O     0.76254   0.22575   0.36276   0.00000  Uiso   1.00
O280   O     0.78497   0.27748   0.43062   0.00000  Uiso   1.00
H281   H     0.76694   0.25621   0.44441   0.00000  Uiso   1.00
S282   S     0.84628   0.06398   0.11738   0.00000  Uiso   1.00
O283   O     0.86369   0.05569   0.16597   0.00000  Uiso   1.00
O284   O     0.80138   0.05274   0.10905   0.00000  Uiso   1.00
O285   O     0.87053   0.02760   0.08879   0.00000  Uiso   1.00
H286   H     0.90017   0.03340   0.09894   0.00000  Uiso   1.00
S287   S     0.70393   0.10041   0.31503   0.00000  Uiso   1.00
O288   O     0.74209   0.12313   0.33852   0.00000  Uiso   1.00
O289   O     0.67093   0.10511   0.34301   0.00000  Uiso   1.00
O290   O     0.71272   0.04438   0.30973   0.00000  Uiso   1.00
H291   H     0.71825   0.03140   0.34080   0.00000  Uiso   1.00
S292   S     0.95063   0.24707   0.19165   0.00000  Uiso   1.00
O293   O     0.91954   0.22106   0.16030   0.00000  Uiso   1.00
O294   O     0.92885   0.28386   0.21189   0.00000  Uiso   1.00
O295   O     0.98321   0.27184   0.16148   0.00000  Uiso   1.00
H296   H     0.99149   0.24696   0.14338   0.00000  Uiso   1.00
S297   S     0.95916   0.08121   0.21113   0.00000  Uiso   1.00
O298   O     0.99171   0.05200   0.19773   0.00000  Uiso   1.00
O299   O     0.93167   0.05056   0.23326   0.00000  Uiso   1.00
O300   O     0.93218   0.10553   0.16423   0.00000  Uiso   1.00
H301   H     0.95256   0.12309   0.15016   0.00000  Uiso   1.00
S302   S     0.69988   0.26053   0.27889   0.00000  Uiso   1.00
O303   O     0.74469   0.27198   0.28531   0.00000  Uiso   1.00
O304   O     0.67628   0.30172   0.25759   0.00000  Uiso   1.00
O305   O     0.68648   0.25035   0.32939   0.00000  Uiso   1.00
H306   H     0.69127   0.27970   0.34504   0.00000  Uiso   1.00
C307   C     0.08752   0.50045   0.25253   0.00000  Uiso   1.00
C308   C     0.24516   0.50013   0.24625   0.00000  Uiso   1.00
C309   C     0.16951   0.49987   0.16473   0.00000  Uiso   1.00
C310   C     0.16557   0.49908   0.33538   0.00000  Uiso   1.00
C311   C     0.13689   0.35903   0.22065   0.00000  Uiso   1.00
C312   C     0.19562   0.64057   0.28058   0.00000  Uiso   1.00
C313   C     0.19549   0.35758   0.28072   0.00000  Uiso   1.00
C314   C     0.13777   0.64249   0.22011   0.00000  Uiso   1.00
C315   C     0.02109   0.46181   0.26239   0.00000  Uiso   1.00
C316   C     0.30949   0.54120   0.23331   0.00000  Uiso   1.00
C317   C     0.31208   0.45951   0.24682   0.00000  Uiso   1.00
C318   C     0.01896   0.54429   0.24658   0.00000  Uiso   1.00
C319   C     0.20685   0.53469   0.05428   0.00000  Uiso   1.00
C320   C     0.20021   0.45742   0.45528   0.00000  Uiso   1.00
C321   C     0.18278   0.53719   0.45601   0.00000  Uiso   1.00
C322   C     0.19305   0.45481   0.05203   0.00000  Uiso   1.00
C323   C     0.18816   0.53741   0.09211   0.00000  Uiso   1.00
C324   C     0.17926   0.45514   0.41101   0.00000  Uiso   1.00
C325   C     0.16748   0.53723   0.41005   0.00000  Uiso   1.00
C326   C     0.18584   0.45426   0.09644   0.00000  Uiso   1.00
C327   C     0.18021   0.49722   0.11743   0.00000  Uiso   1.00
C328   C     0.16912   0.49676   0.38570   0.00000  Uiso   1.00
C329   C     0.20306   0.49487   0.02992   0.00000  Uiso   1.00
C330   C     0.19906   0.49737   0.47966   0.00000  Uiso   1.00
C331   C     0.28932   0.50030   0.24184   0.00000  Uiso   1.00
C332   C     0.04230   0.50261   0.25472   0.00000  Uiso   1.00
Cu333  Cu    0.16667   0.54689   0.25000   0.00000  Uiso   1.00
Cu334  Cu    0.16667   0.45311   0.25000   0.00000  Uiso   1.00
H335   H     0.21663   0.56594   0.03912   0.00000  Uiso   1.00
H336   H     0.21137   0.42581   0.47253   0.00000  Uiso   1.00
H337   H     0.17789   0.56755   0.47380   0.00000  Uiso   1.00
H338   H     0.18876   0.42340   0.03404   0.00000  Uiso   1.00
N339   N     0.16667   0.61736   0.25000   0.00000  Uiso   1.00
N340   N     0.16667   0.38264   0.25000   0.00000  Uiso   1.00
O341   O     0.10655   0.53958   0.25000   0.00000  Uiso   1.00
O342   O     0.22679   0.46042   0.25001   0.00000  Uiso   1.00
O343   O     0.22679   0.53958   0.25001   0.00000  Uiso   1.00
O344   O     0.10655   0.46042   0.25000   0.00000  Uiso   1.00
O345   O     0.16666   0.53959   0.18573   0.00000  Uiso   1.00
O346   O     0.16667   0.46041   0.31427   0.00000  Uiso   1.00
O347   O     0.16667   0.53959   0.31427   0.00000  Uiso   1.00
O348   O     0.16666   0.46041   0.18573   0.00000  Uiso   1.00
S349   S     0.09020   0.38930   0.19263   0.00000  Uiso   1.00
O350   O     0.06251   0.36824   0.15425   0.00000  Uiso   1.00
O351   O     0.06591   0.39089   0.22967   0.00000  Uiso   1.00
O352   O     0.09518   0.44233   0.17130   0.00000  Uiso   1.00
H353   H     0.06695   0.45501   0.16437   0.00000  Uiso   1.00
S354   S     0.23722   0.60968   0.31875   0.00000  Uiso   1.00
O355   O     0.27588   0.62041   0.30114   0.00000  Uiso   1.00
O356   O     0.24170   0.62669   0.36545   0.00000  Uiso   1.00
O357   O     0.23861   0.55282   0.32838   0.00000  Uiso   1.00
H358   H     0.26660   0.54593   0.34489   0.00000  Uiso   1.00
S359   S     0.23228   0.38579   0.32468   0.00000  Uiso   1.00
O360   O     0.22078   0.37228   0.36890   0.00000  Uiso   1.00
O361   O     0.27478   0.36837   0.32438   0.00000  Uiso   1.00
O362   O     0.23885   0.44256   0.32778   0.00000  Uiso   1.00
H363   H     0.25629   0.44757   0.35730   0.00000  Uiso   1.00
S364   S     0.09814   0.61511   0.18063   0.00000  Uiso   1.00
O365   O     0.05834   0.62642   0.19463   0.00000  Uiso   1.00
O366   O     0.09889   0.63736   0.13554   0.00000  Uiso   1.00
O367   O     0.09550   0.55885   0.17121   0.00000  Uiso   1.00
H368   H     0.06757   0.55357   0.15417   0.00000  Uiso   1.00
S369   S     0.16036   0.58769   0.09264   0.00000  Uiso   1.00
O370   O     0.11651   0.57285   0.08987   0.00000  Uiso   1.00
O371   O     0.17586   0.61306   0.13459   0.00000  Uiso   1.00
O372   O     0.16346   0.62179   0.04744   0.00000  Uiso   1.00
H373   H     0.13912   0.64209   0.04395   0.00000  Uiso   1.00
S374   S     0.14783   0.40527   0.40200   0.00000  Uiso   1.00
O375   O     0.13748   0.39260   0.35370   0.00000  Uiso   1.00
O376   O     0.16871   0.36518   0.42896   0.00000  Uiso   1.00
O377   O     0.10412   0.41578   0.42115   0.00000  Uiso   1.00
H378   H     0.08968   0.38591   0.42048   0.00000  Uiso   1.00
S379   S     0.13280   0.58152   0.38898   0.00000  Uiso   1.00
O380   O     0.15124   0.61455   0.35907   0.00000  Uiso   1.00
O381   O     0.09588   0.55908   0.36276   0.00000  Uiso   1.00
O382   O     0.11830   0.61082   0.43062   0.00000  Uiso   1.00
H383   H     0.10027   0.58954   0.44441   0.00000  Uiso   1.00
S384   S     0.17961   0.39732   0.11738   0.00000  Uiso   1.00
O385   O     0.19702   0.38902   0.16597   0.00000  Uiso   1.00
O386   O     0.13472   0.38607   0.10905   0.00000  Uiso   1.00
O387   O     0.20387   0.36093   0.08879   0.00000  Uiso   1.00
H388   H     0.23351   0.36674   0.09894   0.00000  Uiso   1.00
S389   S     0.03727   0.43375   0.31503   0.00000  Uiso   1.00
O390   O     0.07543   0.45646   0.33852   0.00000  Uiso   1.00
O391   O     0.00426   0.43845   0.34301   0.00000  Uiso   1.00
O392   O     0.04605   0.37771   0.30973   0.00000  Uiso   1.00
H393   H     0.05158   0.36474   0.34080   0.00000  Uiso   1.00
S394   S     0.28396   0.58040   0.19165   0.00000  Uiso   1.00
O395   O     0.25288   0.55439   0.16030   0.00000  Uiso   1.00
O396   O     0.26218   0.61719   0.21189   0.00000  Uiso   1.00
O397   O     0.31655   0.60517   0.16148   0.00000  Uiso   1.00
H398   H     0.32482   0.58030   0.14338   0.00000  Uiso   1.00
S399   S     0.29249   0.41454   0.21113   0.00000  Uiso   1.00
O400   O     0.32504   0.38533   0.19773   0.00000  Uiso   1.00
O401   O     0.26501   0.38390   0.23326   0.00000  Uiso   1.00
O402   O     0.26551   0.43887   0.16423   0.00000  Uiso   1.00
H403   H     0.28590   0.45643   0.15016   0.00000  Uiso   1.00
S404   S     0.03322   0.59386   0.27889   0.00000  Uiso   1.00
O405   O     0.07803   0.60531   0.28531   0.00000  Uiso   1.00
O406   O     0.00961   0.63505   0.25759   0.00000  Uiso   1.00
O407   O     0.01982   0.58368   0.32939   0.00000  Uiso   1.00
H408   H     0.02460   0.61303   0.34504   0.00000  Uiso   1.00
C409   C     0.42086   0.50045   0.25253   0.00000  Uiso   1.00
C410   C     0.57849   0.50013   0.24625   0.00000  Uiso   1.00
C411   C     0.50284   0.49987   0.16473   0.00000  Uiso   1.00
C412   C     0.49890   0.49908   0.33538   0.00000  Uiso   1.00
C413   C     0.47022   0.35903   0.22065   0.00000  Uiso   1.00
C414   C     0.52895   0.64057   0.28058   0.00000  Uiso   1.00
C415   C     0.52883   0.35758   0.28072   0.00000  Uiso   1.00
C416   C     0.47110   0.64249   0.22011   0.00000  Uiso   1.00
C417   C     0.35442   0.46181   0.26239   0.00000  Uiso   1.00
C418   C     0.64283   0.54120   0.23331   0.00000  Uiso   1.00
C419   C     0.64541   0.45951   0.24682   0.00000  Uiso   1.00
C420   C     0.35229   0.54429   0.24658   0.00000  Uiso   1.00
C421   C     0.54018   0.53469   0.05428   0.00000  Uiso   1.00
C422   C     0.53354   0.45742   0.45528   0.00000  Uiso   1.00
C423   C     0.51611   0.53719   0.45601   0.00000  Uiso   1.00
C424   C     0.52638   0.45481   0.05203   0.00000  Uiso   1.00
C425   C     0.52149   0.53741   0.09211   0.00000  Uiso   1.00
C426   C     0.51259   0.45514   0.41101   0.00000  Uiso   1.00
C427   C     0.50081   0.53723   0.41005   0.00000  Uiso   1.00
C428   C     0.51917   0.45426   0.09644   0.00000  Uiso   1.00
C429   C     0.51354   0.49722   0.11743   0.00000  Uiso   1.00
C430   C     0.50246   0.49676   0.38570   0.00000  Uiso   1.00
C431   C     0.53639   0.49487   0.02992   0.00000  Uiso   1.00
C432   C     0.53239   0.49737   0.47966   0.00000  Uiso   1.00
C433   C     0.62266   0.50030   0.24184   0.00000  Uiso   1.00
C434   C     0.37563   0.50261   0.25472   0.00000  Uiso   1.00
Cu435  Cu    0.50000   0.54689   0.25000   0.00000  Uiso   1.00
Cu436  Cu    0.50000   0.45311   0.25000   0.00000  Uiso   1.00
H437   H     0.54996   0.56594   0.03912   0.00000  Uiso   1.00
H438   H     0.54470   0.42581   0.47253   0.00000  Uiso   1.00
H439   H     0.51122   0.56755   0.47380   0.00000  Uiso   1.00
H440   H     0.52210   0.42340   0.03404   0.00000  Uiso   1.00
N441   N     0.50000   0.61736   0.25000   0.00000  Uiso   1.00
N442   N     0.50000   0.38264   0.25000   0.00000  Uiso   1.00
O443   O     0.43988   0.53958   0.25000   0.00000  Uiso   1.00
O444   O     0.56012   0.46042   0.25001   0.00000  Uiso   1.00
O445   O     0.56012   0.53958   0.25001   0.00000  Uiso   1.00
O446   O     0.43988   0.46042   0.25000   0.00000  Uiso   1.00
O447   O     0.50000   0.53959   0.18573   0.00000  Uiso   1.00
O448   O     0.50000   0.46041   0.31427   0.00000  Uiso   1.00
O449   O     0.50000   0.53959   0.31427   0.00000  Uiso   1.00
O450   O     0.50000   0.46041   0.18573   0.00000  Uiso   1.00
S451   S     0.42353   0.38930   0.19263   0.00000  Uiso   1.00
O452   O     0.39584   0.36824   0.15425   0.00000  Uiso   1.00
O453   O     0.39925   0.39089   0.22967   0.00000  Uiso   1.00
O454   O     0.42851   0.44233   0.17130   0.00000  Uiso   1.00
H455   H     0.40029   0.45501   0.16437   0.00000  Uiso   1.00
S456   S     0.57056   0.60968   0.31875   0.00000  Uiso   1.00
O457   O     0.60921   0.62041   0.30114   0.00000  Uiso   1.00
O458   O     0.57503   0.62669   0.36545   0.00000  Uiso   1.00
O459   O     0.57195   0.55282   0.32838   0.00000  Uiso   1.00
H460   H     0.59994   0.54593   0.34489   0.00000  Uiso   1.00
S461   S     0.56562   0.38579   0.32468   0.00000  Uiso   1.00
O462   O     0.55412   0.37228   0.36890   0.00000  Uiso   1.00
O463   O     0.60812   0.36837   0.32438   0.00000  Uiso   1.00
O464   O     0.57219   0.44256   0.32778   0.00000  Uiso   1.00
H465   H     0.58963   0.44757   0.35730   0.00000  Uiso   1.00
S466   S     0.43148   0.61511   0.18063   0.00000  Uiso   1.00
O467   O     0.39168   0.62642   0.19463   0.00000  Uiso   1.00
O468   O     0.43222   0.63736   0.13554   0.00000  Uiso   1.00
O469   O     0.42883   0.55885   0.17121   0.00000  Uiso   1.00
H470   H     0.40090   0.55357   0.15417   0.00000  Uiso   1.00
S471   S     0.49370   0.58769   0.09264   0.00000  Uiso   1.00
O472   O     0.44985   0.57285   0.08987   0.00000  Uiso   1.00
O473   O     0.50920   0.61306   0.13459   0.00000  Uiso   1.00
O474   O     0.49680   0.62179   0.04744   0.00000  Uiso   1.00
H475   H     0.47246   0.64209   0.04395   0.00000  Uiso   1.00
S476   S     0.48116   0.40527   0.40200   0.00000  Uiso   1.00
O477   O     0.47081   0.39260   0.35370   0.00000  Uiso   1.00
O478   O     0.50204   0.36518   0.42896   0.00000  Uiso   1.00
O479   O     0.43745   0.41578   0.42115   0.00000  Uiso   1.00
H480   H     0.42301   0.38591   0.42048   0.00000  Uiso   1.00
S481   S     0.46614   0.58152   0.38898   0.00000  Uiso   1.00
O482   O     0.48458   0.61455   0.35907   0.00000  Uiso   1.00
O483   O     0.42921   0.55908   0.36276   0.00000  Uiso   1.00
O484   O     0.45163   0.61082   0.43062   0.00000  Uiso   1.00
H485   H     0.43361   0.58954   0.44441   0.00000  Uiso   1.00
S486   S     0.51295   0.39732   0.11738   0.00000  Uiso   1.00
O487   O     0.53036   0.38902   0.16597   0.00000  Uiso   1.00
O488   O     0.46805   0.38607   0.10905   0.00000  Uiso   1.00
O489   O     0.53720   0.36093   0.08879   0.00000  Uiso   1.00
H490   H     0.56684   0.36674   0.09894   0.00000  Uiso   1.00
S491   S     0.37060   0.43375   0.31503   0.00000  Uiso   1.00
O492   O     0.40876   0.45646   0.33852   0.00000  Uiso   1.00
O493   O     0.33759   0.43845   0.34301   0.00000  Uiso   1.00
O494   O     0.37939   0.37771   0.30973   0.00000  Uiso   1.00
H495   H     0.38492   0.36474   0.34080   0.00000  Uiso   1.00
S496   S     0.61730   0.58040   0.19165   0.00000  Uiso   1.00
O497   O     0.58621   0.55439   0.16030   0.00000  Uiso   1.00
O498   O     0.59551   0.61719   0.21189   0.00000  Uiso   1.00
O499   O     0.64988   0.60517   0.16148   0.00000  Uiso   1.00
H500   H     0.65815   0.58030   0.14338   0.00000  Uiso   1.00
S501   S     0.62582   0.41454   0.21113   0.00000  Uiso   1.00
O502   O     0.65837   0.38533   0.19773   0.00000  Uiso   1.00
O503   O     0.59834   0.38390   0.23326   0.00000  Uiso   1.00
O504   O     0.59885   0.43887   0.16423   0.00000  Uiso   1.00
H505   H     0.61923   0.45643   0.15016   0.00000  Uiso   1.00
S506   S     0.36655   0.59386   0.27889   0.00000  Uiso   1.00
O507   O     0.41136   0.60531   0.28531   0.00000  Uiso   1.00
O508   O     0.34294   0.63505   0.25759   0.00000  Uiso   1.00
O509   O     0.35315   0.58368   0.32939   0.00000  Uiso   1.00
H510   H     0.35794   0.61303   0.34504   0.00000  Uiso   1.00
C511   C     0.75419   0.50045   0.25253   0.00000  Uiso   1.00
C512   C     0.91183   0.50013   0.24625   0.00000  Uiso   1.00
C513   C     0.83617   0.49987   0.16473   0.00000  Uiso   1.00
C514   C     0.83223   0.49908   0.33538   0.00000  Uiso   1.00
C515   C     0.80356   0.35903   0.22065   0.00000  Uiso   1.00
C516   C     0.86229   0.64057   0.28058   0.00000  Uiso   1.00
C517   C     0.86216   0.35758   0.28072   0.00000  Uiso   1.00
C518   C     0.80444   0.64249   0.22011   0.00000  Uiso   1.00
C519   C     0.68775   0.46181   0.26239   0.00000  Uiso   1.00
C520   C     0.97616   0.54120   0.23331   0.00000  Uiso   1.00
C521   C     0.97874   0.45951   0.24682   0.00000  Uiso   1.00
C522   C     0.68562   0.54429   0.24658   0.00000  Uiso   1.00
C523   C     0.87352   0.53469   0.05428   0.00000  Uiso   1.00
C524   C     0.86687   0.45742   0.45528   0.00000  Uiso   1.00
C525   C     0.84944   0.53719   0.45601   0.00000  Uiso   1.00
C526   C     0.85972   0.45481   0.05203   0.00000  Uiso   1.00
C527   C     0.85483   0.53741   0.09211   0.00000  Uiso   1.00
C528   C     0.84592   0.45514   0.41101   0.00000  Uiso   1.00
C529   C     0.83414   0.53723   0.41005   0.00000  Uiso   1.00
C530   C     0.85251   0.45426   0.09644   0.00000  Uiso   1.00
C531   C     0.84687   0.49722   0.11743   0.00000  Uiso   1.00
C532   C     0.83579   0.49676   0.38570   0.00000  Uiso   1.00
C533   C     0.86973   0.49487   0.02992   0.00000  Uiso   1.00
C534   C     0.86573   0.49737   0.47966   0.00000  Uiso   1.00
C535   C     0.95599   0.50030   0.24184   0.00000  Uiso   1.00
C536   C     0.70896   0.50261   0.25472   0.00000  Uiso   1.00
Cu537  Cu    0.83333   0.54689   0.25000   0.00000  Uiso   1.00
Cu538  Cu    0.83333   0.45311   0.25000   0.00000  Uiso   1.00
H539   H     0.88329   0.56594   0.03912   0.00000  Uiso   1.00
H540   H     0.87803   0.42581   0.47253   0.00000  Uiso   1.00
H541   H     0.84456   0.56755   0.47380   0.00000  Uiso   1.00
H542   H     0.85543   0.42340   0.03404   0.00000  Uiso   1.00
N543   N     0.83333   0.61736   0.25000   0.00000  Uiso   1.00
N544   N     0.83333   0.38264   0.25000   0.00000  Uiso   1.00
O545   O     0.77321   0.53958   0.25000   0.00000  Uiso   1.00
O546   O     0.89345   0.46042   0.25001   0.00000  Uiso   1.00
O547   O     0.89345   0.53958   0.25001   0.00000  Uiso   1.00
O548   O     0.77321   0.46042   0.25000   0.00000  Uiso   1.00
O549   O     0.83333   0.53959   0.18573   0.00000  Uiso   1.00
O550   O     0.83334   0.46041   0.31427   0.00000  Uiso   1.00
O551   O     0.83334   0.53959   0.31427   0.00000  Uiso   1.00
O552   O     0.83333   0.46041   0.18573   0.00000  Uiso   1.00
S553   S     0.75687   0.38930   0.19263   0.00000  Uiso   1.00
O554   O     0.72917   0.36824   0.15425   0.00000  Uiso   1.00
O555   O     0.73258   0.39089   0.22967   0.00000  Uiso   1.00
O556   O     0.76184   0.44233   0.17130   0.00000  Uiso   1.00
H557   H     0.73362   0.45501   0.16437   0.00000  Uiso   1.00
S558   S     0.90389   0.60968   0.31875   0.00000  Uiso   1.00
O559   O     0.94254   0.62041   0.30114   0.00000  Uiso   1.00
O560   O     0.90837   0.62669   0.36545   0.00000  Uiso   1.00
O561   O     0.90528   0.55282   0.32838   0.00000  Uiso   1.00
H562   H     0.93327   0.54593   0.34489   0.00000  Uiso   1.00
S563   S     0.89895   0.38579   0.32468   0.00000  Uiso   1.00
O564   O     0.88745   0.37228   0.36890   0.00000  Uiso   1.00
O565   O     0.94145   0.36837   0.32438   0.00000  Uiso   1.00
O566   O     0.90552   0.44256   0.32778   0.00000  Uiso   1.00
H567   H     0.92296   0.44757   0.35730   0.00000  Uiso   1.00
S568   S     0.76481   0.61511   0.18063   0.00000  Uiso   1.00
O569   O     0.72501   0.62642   0.19463   0.00000  Uiso   1.00
O570   O     0.76556   0.63736   0.13554   0.00000  Uiso   1.00
O571   O     0.76217   0.55885   0.17121   0.00000  Uiso   1.00
H572   H     0.73424   0.55357   0.15417   0.00000  Uiso   1.00
S573   S     0.82703   0.58769   0.09264   0.00000  Uiso   1.00
O574   O     0.78318   0.57285   0.08987   0.00000  Uiso   1.00
O575   O     0.84253   0.61306   0.13459   0.00000  Uiso   1.00
O576   O     0.83013   0.62179   0.04744   0.00000  Uiso   1.00
H577   H     0.80579   0.64209   0.04395   0.00000  Uiso   1.00
S578   S     0.81450   0.40527   0.40200   0.00000  Uiso   1.00
O579   O     0.80414   0.39260   0.35370   0.00000  Uiso   1.00
O580   O     0.83537   0.36518   0.42896   0.00000  Uiso   1.00
O581   O     0.77078   0.41578   0.42115   0.00000  Uiso   1.00
H582   H     0.75635   0.38591   0.42048   0.00000  Uiso   1.00
S583   S     0.79947   0.58152   0.38898   0.00000  Uiso   1.00
O584   O     0.81791   0.61455   0.35907   0.00000  Uiso   1.00
O585   O     0.76254   0.55908   0.36276   0.00000  Uiso   1.00
O586   O     0.78497   0.61082   0.43062   0.00000  Uiso   1.00
H587   H     0.76694   0.58954   0.44441   0.00000  Uiso   1.00
S588   S     0.84628   0.39732   0.11738   0.00000  Uiso   1.00
O589   O     0.86369   0.38902   0.16597   0.00000  Uiso   1.00
O590   O     0.80138   0.38607   0.10905   0.00000  Uiso   1.00
O591   O     0.87053   0.36093   0.08879   0.00000  Uiso   1.00
H592   H     0.90017   0.36674   0.09894   0.00000  Uiso   1.00
S593   S     0.70393   0.43375   0.31503   0.00000  Uiso   1.00
O594   O     0.74209   0.45646   0.33852   0.00000  Uiso   1.00
O595   O     0.67093   0.43845   0.34301   0.00000  Uiso   1.00
O596   O     0.71272   0.37771   0.30973   0.00000  Uiso   1.00
H597   H     0.71825   0.36474   0.34080   0.00000  Uiso   1.00
S598   S     0.95063   0.58040   0.19165   0.00000  Uiso   1.00
O599   O     0.91954   0.55439   0.16030   0.00000  Uiso   1.00
O600   O     0.92885   0.61719   0.21189   0.00000  Uiso   1.00
O601   O     0.98321   0.60517   0.16148   0.00000  Uiso   1.00
H602   H     0.99149   0.58030   0.14338   0.00000  Uiso   1.00
S603   S     0.95916   0.41454   0.21113   0.00000  Uiso   1.00
O604   O     0.99171   0.38533   0.19773   0.00000  Uiso   1.00
O605   O     0.93167   0.38390   0.23326   0.00000  Uiso   1.00
O606   O     0.93218   0.43887   0.16423   0.00000  Uiso   1.00
H607   H     0.95256   0.45643   0.15016   0.00000  Uiso   1.00
S608   S     0.69988   0.59386   0.27889   0.00000  Uiso   1.00
O609   O     0.74469   0.60531   0.28531   0.00000  Uiso   1.00
O610   O     0.67628   0.63505   0.25759   0.00000  Uiso   1.00
O611   O     0.68648   0.58368   0.32939   0.00000  Uiso   1.00
H612   H     0.69127   0.61303   0.34504   0.00000  Uiso   1.00
C613   C     0.08752   0.83378   0.25253   0.00000  Uiso   1.00
C614   C     0.24516   0.83347   0.24625   0.00000  Uiso   1.00
C615   C     0.16951   0.83320   0.16473   0.00000  Uiso   1.00
C616   C     0.16557   0.83241   0.33538   0.00000  Uiso   1.00
C617   C     0.13689   0.69236   0.22065   0.00000  Uiso   1.00
C618   C     0.19562   0.97390   0.28058   0.00000  Uiso   1.00
C619   C     0.19549   0.69092   0.28072   0.00000  Uiso   1.00
C620   C     0.13777   0.97583   0.22011   0.00000  Uiso   1.00
C621   C     0.02109   0.79515   0.26239   0.00000  Uiso   1.00
C622   C     0.30949   0.87453   0.23331   0.00000  Uiso   1.00
C623   C     0.31208   0.79285   0.24682   0.00000  Uiso   1.00
C624   C     0.01896   0.87762   0.24658   0.00000  Uiso   1.00
C625   C     0.20685   0.86802   0.05428   0.00000  Uiso   1.00
C626   C     0.20021   0.79076   0.45528   0.00000  Uiso   1.00
C627   C     0.18278   0.87052   0.45601   0.00000  Uiso   1.00
C628   C     0.19305   0.78814   0.05203   0.00000  Uiso   1.00
C629   C     0.18816   0.87074   0.09211   0.00000  Uiso   1.00
C630   C     0.17926   0.78848   0.41101   0.00000  Uiso   1.00
C631   C     0.16748   0.87057   0.41005   0.00000  Uiso   1.00
C632   C     0.18584   0.78759   0.09644   0.00000  Uiso   1.00
C633   C     0.18021   0.83055   0.11743   0.00000  Uiso   1.00
C634   C     0.16912   0.83009   0.38570   0.00000  Uiso   1.00
C635   C     0.20306   0.82821   0.02992   0.00000  Uiso   1.00
C636   C     0.19906   0.83070   0.47966   0.00000  Uiso   1.00
C637   C     0.28932   0.83363   0.24184   0.00000  Uiso   1.00
C638   C     0.04230   0.83594   0.25472   0.00000  Uiso   1.00
Cu639  Cu    0.16667   0.88022   0.25000   0.00000  Uiso   1.00
Cu640  Cu    0.16667   0.78645   0.25000   0.00000  Uiso   1.00
H641   H     0.21663   0.89928   0.03912   0.00000  Uiso   1.00
H642   H     0.21137   0.75915   0.47253   0.00000  Uiso   1.00
H643   H     0.17789   0.90088   0.47380   0.00000  Uiso   1.00
H644   H     0.18876   0.75673   0.03404   0.00000  Uiso   1.00
N645   N     0.16667   0.95069   0.25000   0.00000  Uiso   1.00
N646   N     0.16667   0.71598   0.25000   0.00000  Uiso   1.00
O647   O     0.10655   0.87291   0.25000   0.00000  Uiso   1.00
O648   O     0.22679   0.79375   0.25001   0.00000  Uiso   1.00
O649   O     0.22679   0.87291   0.25001   0.00000  Uiso   1.00
O650   O     0.10655   0.79375   0.25000   0.00000  Uiso   1.00
O651   O     0.16666   0.87293   0.18573   0.00000  Uiso   1.00
O652   O     0.16667   0.79374   0.31427   0.00000  Uiso   1.00
O653   O     0.16667   0.87293   0.31427   0.00000  Uiso   1.00
O654   O     0.16666   0.79374   0.18573   0.00000  Uiso   1.00
S655   S     0.09020   0.72263   0.19263   0.00000  Uiso   1.00
O656   O     0.06251   0.70157   0.15425   0.00000  Uiso   1.00
O657   O     0.06591   0.72423   0.22967   0.00000  Uiso   1.00
O658   O     0.09518   0.77566   0.17130   0.00000  Uiso   1.00
H659   H     0.06695   0.78835   0.16437   0.00000  Uiso   1.00
S660   S     0.23722   0.94301   0.31875   0.00000  Uiso   1.00
O661   O     0.27588   0.95374   0.30114   0.00000  Uiso   1.00
O662   O     0.24170   0.96002   0.36545   0.00000  Uiso   1.00
O663   O     0.23861   0.88615   0.32838   0.00000  Uiso   1.00
H664   H     0.26660   0.87926   0.34489   0.00000  Uiso   1.00
S665   S     0.23228   0.71912   0.32468   0.00000  Uiso   1.00
O666   O     0.22078   0.70561   0.36890   0.00000  Uiso   1.00
O667   O     0.27478   0.70170   0.32438   0.00000  Uiso   1.00
O668   O     0.23885   0.77589   0.32778   0.00000  Uiso   1.00
H669   H     0.25629   0.78090   0.35730   0.00000  Uiso   1.00
S670   S     0.09814   0.94844   0.18063   0.00000  Uiso   1.00
O671   O     0.05834   0.95975   0.19463   0.00000  Uiso   1.00
O672   O     0.09889   0.97069   0.13554   0.00000  Uiso   1.00
O673   O     0.09550   0.89219   0.17121   0.00000  Uiso   1.00
H674   H     0.06757   0.88691   0.15417   0.00000  Uiso   1.00
S675   S     0.16036   0.92103   0.09264   0.00000  Uiso   1.00
O676   O     0.11651   0.90619   0.08987   0.00000  Uiso   1.00
O677   O     0.17586   0.94639   0.13459   0.00000  Uiso   1.00
O678   O     0.16346   0.95513   0.04744   0.00000  Uiso   1.00
H679   H     0.13912   0.97542   0.04395   0.00000  Uiso   1.00
S680   S     0.14783   0.73860   0.40200   0.00000  Uiso   1.00
O681   O     0.13748   0.72594   0.35370   0.00000  Uiso   1.00
O682   O     0.16871   0.69851   0.42896   0.00000  Uiso   1.00
O683   O     0.10412   0.74911   0.42115   0.00000  Uiso   1.00
H684   H     0.08968   0.71925   0.42048   0.00000  Uiso   1.00
S685   S     0.13280   0.91485   0.38898   0.00000  Uiso   1.00
O686   O     0.15124   0.94788   0.35907   0.00000  Uiso   1.00
O687   O     0.09588   0.89241   0.36276   0.00000  Uiso   1.00
O688   O     0.11830   0.94415   0.43062   0.00000  Uiso   1.00
H689   H     0.10027   0.92288   0.44441   0.00000  Uiso   1.00
S690   S     0.17961   0.73065   0.11738   0.00000  Uiso   1.00
O691   O     0.19702   0.72236   0.16597   0.00000  Uiso   1.00
O692   O     0.13472   0.71940   0.10905   0.00000  Uiso   1.00
O693   O     0.20387   0.69427   0.08879   0.00000  Uiso   1.00
H694   H     0.23351   0.70007   0.09894   0.00000  Uiso   1.00
S695   S     0.03727   0.76708   0.31503   0.00000  Uiso   1.00
O696   O     0.07543   0.78979   0.33852   0.00000  Uiso   1.00
O697   O     0.00426   0.77178   0.34301   0.00000  Uiso   1.00
O698   O     0.04605   0.71104   0.30973   0.00000  Uiso   1.00
H699   H     0.05158   0.69807   0.34080   0.00000  Uiso   1.00
S700   S     0.28396   0.91373   0.19165   0.00000  Uiso   1.00
O701   O     0.25288   0.88773   0.16030   0.00000  Uiso   1.00
O702   O     0.26218   0.95052   0.21189   0.00000  Uiso   1.00
O703   O     0.31655   0.93850   0.16148   0.00000  Uiso   1.00
H704   H     0.32482   0.91363   0.14338   0.00000  Uiso   1.00
S705   S     0.29249   0.74787   0.21113   0.00000  Uiso   1.00
O706   O     0.32504   0.71867   0.19773   0.00000  Uiso   1.00
O707   O     0.26501   0.71723   0.23326   0.00000  Uiso   1.00
O708   O     0.26551   0.77220   0.16423   0.00000  Uiso   1.00
H709   H     0.28590   0.78976   0.15016   0.00000  Uiso   1.00
S710   S     0.03322   0.92720   0.27889   0.00000  Uiso   1.00
O711   O     0.07803   0.93865   0.28531   0.00000  Uiso   1.00
O712   O     0.00961   0.96839   0.25759   0.00000  Uiso   1.00
O713   O     0.01982   0.91702   0.32939   0.00000  Uiso   1.00
H714   H     0.02460   0.94637   0.34504   0.00000  Uiso   1.00
C715   C     0.42086   0.83378   0.25253   0.00000  Uiso   1.00
C716   C     0.57849   0.83347   0.24625   0.00000  Uiso   1.00
C717   C     0.50284   0.83320   0.16473   0.00000  Uiso   1.00
C718   C     0.49890   0.83241   0.33538   0.00000  Uiso   1.00
C719   C     0.47022   0.69236   0.22065   0.00000  Uiso   1.00
C720   C     0.52895   0.97390   0.28058   0.00000  Uiso   1.00
C721   C     0.52883   0.69092   0.28072   0.00000  Uiso   1.00
C722   C     0.47110   0.97583   0.22011   0.00000  Uiso   1.00
C723   C     0.35442   0.79515   0.26239   0.00000  Uiso   1.00
C724   C     0.64283   0.87453   0.23331   0.00000  Uiso   1.00
C725   C     0.64541   0.79285   0.24682   0.00000  Uiso   1.00
C726   C     0.35229   0.87762   0.24658   0.00000  Uiso   1.00
C727   C     0.54018   0.86802   0.05428   0.00000  Uiso   1.00
C728   C     0.53354   0.79076   0.45528   0.00000  Uiso   1.00
C729   C     0.51611   0.87052   0.45601   0.00000  Uiso   1.00
C730   C     0.52638   0.78814   0.05203   0.00000  Uiso   1.00
C731   C     0.52149   0.87074   0.09211   0.00000  Uiso   1.00
C732   C     0.51259   0.78848   0.41101   0.00000  Uiso   1.00
C733   C     0.50081   0.87057   0.41005   0.00000  Uiso   1.00
C734   C     0.51917   0.78759   0.09644   0.00000  Uiso   1.00
C735   C     0.51354   0.83055   0.11743   0.00000  Uiso   1.00
C736   C     0.50246   0.83009   0.38570   0.00000  Uiso   1.00
C737   C     0.53639   0.82821   0.02992   0.00000  Uiso   1.00
C738   C     0.53239   0.83070   0.47966   0.00000  Uiso   1.00
C739   C     0.62266   0.83363   0.24184   0.00000  Uiso   1.00
C740   C     0.37563   0.83594   0.25472   0.00000  Uiso   1.00
Cu741  Cu    0.50000   0.88022   0.25000   0.00000  Uiso   1.00
Cu742  Cu    0.50000   0.78645   0.25000   0.00000  Uiso   1.00
H743   H     0.54996   0.89928   0.03912   0.00000  Uiso   1.00
H744   H     0.54470   0.75915   0.47253   0.00000  Uiso   1.00
H745   H     0.51122   0.90088   0.47380   0.00000  Uiso   1.00
H746   H     0.52210   0.75673   0.03404   0.00000  Uiso   1.00
N747   N     0.50000   0.95069   0.25000   0.00000  Uiso   1.00
N748   N     0.50000   0.71598   0.25000   0.00000  Uiso   1.00
O749   O     0.43988   0.87291   0.25000   0.00000  Uiso   1.00
O750   O     0.56012   0.79375   0.25001   0.00000  Uiso   1.00
O751   O     0.56012   0.87291   0.25001   0.00000  Uiso   1.00
O752   O     0.43988   0.79375   0.25000   0.00000  Uiso   1.00
O753   O     0.50000   0.87293   0.18573   0.00000  Uiso   1.00
O754   O     0.50000   0.79374   0.31427   0.00000  Uiso   1.00
O755   O     0.50000   0.87293   0.31427   0.00000  Uiso   1.00
O756   O     0.50000   0.79374   0.18573   0.00000  Uiso   1.00
S757   S     0.42353   0.72263   0.19263   0.00000  Uiso   1.00
O758   O     0.39584   0.70157   0.15425   0.00000  Uiso   1.00
O759   O     0.39925   0.72423   0.22967   0.00000  Uiso   1.00
O760   O     0.42851   0.77566   0.17130   0.00000  Uiso   1.00
H761   H     0.40029   0.78835   0.16437   0.00000  Uiso   1.00
S762   S     0.57056   0.94301   0.31875   0.00000  Uiso   1.00
O763   O     0.60921   0.95374   0.30114   0.00000  Uiso   1.00
O764   O     0.57503   0.96002   0.36545   0.00000  Uiso   1.00
O765   O     0.57195   0.88615   0.32838   0.00000  Uiso   1.00
H766   H     0.59994   0.87926   0.34489   0.00000  Uiso   1.00
S767   S     0.56562   0.71912   0.32468   0.00000  Uiso   1.00
O768   O     0.55412   0.70561   0.36890   0.00000  Uiso   1.00
O769   O     0.60812   0.70170   0.32438   0.00000  Uiso   1.00
O770   O     0.57219   0.77589   0.32778   0.00000  Uiso   1.00
H771   H     0.58963   0.78090   0.35730   0.00000  Uiso   1.00
S772   S     0.43148   0.94844   0.18063   0.00000  Uiso   1.00
O773   O     0.39168   0.95975   0.19463   0.00000  Uiso   1.00
O774   O     0.43222   0.97069   0.13554   0.00000  Uiso   1.00
O775   O     0.42883   0.89219   0.17121   0.00000  Uiso   1.00
H776   H     0.40090   0.88691   0.15417   0.00000  Uiso   1.00
S777   S     0.49370   0.92103   0.09264   0.00000  Uiso   1.00
O778   O     0.44985   0.90619   0.08987   0.00000  Uiso   1.00
O779   O     0.50920   0.94639   0.13459   0.00000  Uiso   1.00
O780   O     0.49680   0.95513   0.04744   0.00000  Uiso   1.00
H781   H     0.47246   0.97542   0.04395   0.00000  Uiso   1.00
S782   S     0.48116   0.73860   0.40200   0.00000  Uiso   1.00
O783   O     0.47081   0.72594   0.35370   0.00000  Uiso   1.00
O784   O     0.50204   0.69851   0.42896   0.00000  Uiso   1.00
O785   O     0.43745   0.74911   0.42115   0.00000  Uiso   1.00
H786   H     0.42301   0.71925   0.42048   0.00000  Uiso   1.00
S787   S     0.46614   0.91485   0.38898   0.00000  Uiso   1.00
O788   O     0.48458   0.94788   0.35907   0.00000  Uiso   1.00
O789   O     0.42921   0.89241   0.36276   0.00000  Uiso   1.00
O790   O     0.45163   0.94415   0.43062   0.00000  Uiso   1.00
H791   H     0.43361   0.92288   0.44441   0.00000  Uiso   1.00
S792   S     0.51295   0.73065   0.11738   0.00000  Uiso   1.00
O793   O     0.53036   0.72236   0.16597   0.00000  Uiso   1.00
O794   O     0.46805   0.71940   0.10905   0.00000  Uiso   1.00
O795   O     0.53720   0.69427   0.08879   0.00000  Uiso   1.00
H796   H     0.56684   0.70007   0.09894   0.00000  Uiso   1.00
S797   S     0.37060   0.76708   0.31503   0.00000  Uiso   1.00
O798   O     0.40876   0.78979   0.33852   0.00000  Uiso   1.00
O799   O     0.33759   0.77178   0.34301   0.00000  Uiso   1.00
O800   O     0.37939   0.71104   0.30973   0.00000  Uiso   1.00
H801   H     0.38492   0.69807   0.34080   0.00000  Uiso   1.00
S802   S     0.61730   0.91373   0.19165   0.00000  Uiso   1.00
O803   O     0.58621   0.88773   0.16030   0.00000  Uiso   1.00
O804   O     0.59551   0.95052   0.21189   0.00000  Uiso   1.00
O805   O     0.64988   0.93850   0.16148   0.00000  Uiso   1.00
H806   H     0.65815   0.91363   0.14338   0.00000  Uiso   1.00
S807   S     0.62582   0.74787   0.21113   0.00000  Uiso   1.00
O808   O     0.65837   0.71867   0.19773   0.00000  Uiso   1.00
O809   O     0.59834   0.71723   0.23326   0.00000  Uiso   1.00
O810   O     0.59885   0.77220   0.16423   0.00000  Uiso   1.00
H811   H     0.61923   0.78976   0.15016   0.00000  Uiso   1.00
S812   S     0.36655   0.92720   0.27889   0.00000  Uiso   1.00
O813   O     0.41136   0.93865   0.28531   0.00000  Uiso   1.00
O814   O     0.34294   0.96839   0.25759   0.00000  Uiso   1.00
O815   O     0.35315   0.91702   0.32939   0.00000  Uiso   1.00
H816   H     0.35794   0.94637   0.34504   0.00000  Uiso   1.00
C817   C     0.75419   0.83378   0.25253   0.00000  Uiso   1.00
C818   C     0.91183   0.83347   0.24625   0.00000  Uiso   1.00
C819   C     0.83617   0.83320   0.16473   0.00000  Uiso   1.00
C820   C     0.83223   0.83241   0.33538   0.00000  Uiso   1.00
C821   C     0.80356   0.69236   0.22065   0.00000  Uiso   1.00
C822   C     0.86229   0.97390   0.28058   0.00000  Uiso   1.00
C823   C     0.86216   0.69092   0.28072   0.00000  Uiso   1.00
C824   C     0.80444   0.97583   0.22011   0.00000  Uiso   1.00
C825   C     0.68775   0.79515   0.26239   0.00000  Uiso   1.00
C826   C     0.97616   0.87453   0.23331   0.00000  Uiso   1.00
C827   C     0.97874   0.79285   0.24682   0.00000  Uiso   1.00
C828   C     0.68562   0.87762   0.24658   0.00000  Uiso   1.00
C829   C     0.87352   0.86802   0.05428   0.00000  Uiso   1.00
C830   C     0.86687   0.79076   0.45528   0.00000  Uiso   1.00
C831   C     0.84944   0.87052   0.45601   0.00000  Uiso   1.00
C832   C     0.85972   0.78814   0.05203   0.00000  Uiso   1.00
C833   C     0.85483   0.87074   0.09211   0.00000  Uiso   1.00
C834   C     0.84592   0.78848   0.41101   0.00000  Uiso   1.00
C835   C     0.83414   0.87057   0.41005   0.00000  Uiso   1.00
C836   C     0.85251   0.78759   0.09644   0.00000  Uiso   1.00
C837   C     0.84687   0.83055   0.11743   0.00000  Uiso   1.00
C838   C     0.83579   0.83009   0.38570   0.00000  Uiso   1.00
C839   C     0.86973   0.82821   0.02992   0.00000  Uiso   1.00
C840   C     0.86573   0.83070   0.47966   0.00000  Uiso   1.00
C841   C     0.95599   0.83363   0.24184   0.00000  Uiso   1.00
C842   C     0.70896   0.83594   0.25472   0.00000  Uiso   1.00
Cu843  Cu    0.83333   0.88022   0.25000   0.00000  Uiso   1.00
Cu844  Cu    0.83333   0.78645   0.25000   0.00000  Uiso   1.00
H845   H     0.88329   0.89928   0.03912   0.00000  Uiso   1.00
H846   H     0.87803   0.75915   0.47253   0.00000  Uiso   1.00
H847   H     0.84456   0.90088   0.47380   0.00000  Uiso   1.00
H848   H     0.85543   0.75673   0.03404   0.00000  Uiso   1.00
N849   N     0.83333   0.95069   0.25000   0.00000  Uiso   1.00
N850   N     0.83333   0.71598   0.25000   0.00000  Uiso   1.00
O851   O     0.77321   0.87291   0.25000   0.00000  Uiso   1.00
O852   O     0.89345   0.79375   0.25001   0.00000  Uiso   1.00
O853   O     0.89345   0.87291   0.25001   0.00000  Uiso   1.00
O854   O     0.77321   0.79375   0.25000   0.00000  Uiso   1.00
O855   O     0.83333   0.87293   0.18573   0.00000  Uiso   1.00
O856   O     0.83334   0.79374   0.31427   0.00000  Uiso   1.00
O857   O     0.83334   0.87293   0.31427   0.00000  Uiso   1.00
O858   O     0.83333   0.79374   0.18573   0.00000  Uiso   1.00
S859   S     0.75687   0.72263   0.19263   0.00000  Uiso   1.00
O860   O     0.72917   0.70157   0.15425   0.00000  Uiso   1.00
O861   O     0.73258   0.72423   0.22967   0.00000  Uiso   1.00
O862   O     0.76184   0.77566   0.17130   0.00000  Uiso   1.00
H863   H     0.73362   0.78835   0.16437   0.00000  Uiso   1.00
S864   S     0.90389   0.94301   0.31875   0.00000  Uiso   1.00
O865   O     0.94254   0.95374   0.30114   0.00000  Uiso   1.00
O866   O     0.90837   0.96002   0.36545   0.00000  Uiso   1.00
O867   O     0.90528   0.88615   0.32838   0.00000  Uiso   1.00
H868   H     0.93327   0.87926   0.34489   0.00000  Uiso   1.00
S869   S     0.89895   0.71912   0.32468   0.00000  Uiso   1.00
O870   O     0.88745   0.70561   0.36890   0.00000  Uiso   1.00
O871   O     0.94145   0.70170   0.32438   0.00000  Uiso   1.00
O872   O     0.90552   0.77589   0.32778   0.00000  Uiso   1.00
H873   H     0.92296   0.78090   0.35730   0.00000  Uiso   1.00
S874   S     0.76481   0.94844   0.18063   0.00000  Uiso   1.00
O875   O     0.72501   0.95975   0.19463   0.00000  Uiso   1.00
O876   O     0.76556   0.97069   0.13554   0.00000  Uiso   1.00
O877   O     0.76217   0.89219   0.17121   0.00000  Uiso   1.00
H878   H     0.73424   0.88691   0.15417   0.00000  Uiso   1.00
S879   S     0.82703   0.92103   0.09264   0.00000  Uiso   1.00
O880   O     0.78318   0.90619   0.08987   0.00000  Uiso   1.00
O881   O     0.84253   0.94639   0.13459   0.00000  Uiso   1.00
O882   O     0.83013   0.95513   0.04744   0.00000  Uiso   1.00
H883   H     0.80579   0.97542   0.04395   0.00000  Uiso   1.00
S884   S     0.81450   0.73860   0.40200   0.00000  Uiso   1.00
O885   O     0.80414   0.72594   0.35370   0.00000  Uiso   1.00
O886   O     0.83537   0.69851   0.42896   0.00000  Uiso   1.00
O887   O     0.77078   0.74911   0.42115   0.00000  Uiso   1.00
H888   H     0.75635   0.71925   0.42048   0.00000  Uiso   1.00
S889   S     0.79947   0.91485   0.38898   0.00000  Uiso   1.00
O890   O     0.81791   0.94788   0.35907   0.00000  Uiso   1.00
O891   O     0.76254   0.89241   0.36276   0.00000  Uiso   1.00
O892   O     0.78497   0.94415   0.43062   0.00000  Uiso   1.00
H893   H     0.76694   0.92288   0.44441   0.00000  Uiso   1.00
S894   S     0.84628   0.73065   0.11738   0.00000  Uiso   1.00
O895   O     0.86369   0.72236   0.16597   0.00000  Uiso   1.00
O896   O     0.80138   0.71940   0.10905   0.00000  Uiso   1.00
O897   O     0.87053   0.69427   0.08879   0.00000  Uiso   1.00
H898   H     0.90017   0.70007   0.09894   0.00000  Uiso   1.00
S899   S     0.70393   0.76708   0.31503   0.00000  Uiso   1.00
O900   O     0.74209   0.78979   0.33852   0.00000  Uiso   1.00
O901   O     0.67093   0.77178   0.34301   0.00000  Uiso   1.00
O902   O     0.71272   0.71104   0.30973   0.00000  Uiso   1.00
H903   H     0.71825   0.69807   0.34080   0.00000  Uiso   1.00
S904   S     0.95063   0.91373   0.19165   0.00000  Uiso   1.00
O905   O     0.91954   0.88773   0.16030   0.00000  Uiso   1.00
O906   O     0.92885   0.95052   0.21189   0.00000  Uiso   1.00
O907   O     0.98321   0.93850   0.16148   0.00000  Uiso   1.00
H908   H     0.99149   0.91363   0.14338   0.00000  Uiso   1.00
S909   S     0.95916   0.74787   0.21113   0.00000  Uiso   1.00
O910   O     0.99171   0.71867   0.19773   0.00000  Uiso   1.00
O911   O     0.93167   0.71723   0.23326   0.00000  Uiso   1.00
O912   O     0.93218   0.77220   0.16423   0.00000  Uiso   1.00
H913   H     0.95256   0.78976   0.15016   0.00000  Uiso   1.00
S914   S     0.69988   0.92720   0.27889   0.00000  Uiso   1.00
O915   O     0.74469   0.93865   0.28531   0.00000  Uiso   1.00
O916   O     0.67628   0.96839   0.25759   0.00000  Uiso   1.00
O917   O     0.68648   0.91702   0.32939   0.00000  Uiso   1.00
H918   H     0.69127   0.94637   0.34504   0.00000  Uiso   1.00
C919   C     0.08752   0.16711   0.75253   0.00000  Uiso   1.00
C920   C     0.24516   0.16680   0.74625   0.00000  Uiso   1.00
C921   C     0.16951   0.16654   0.66473   0.00000  Uiso   1.00
C922   C     0.16557   0.16575   0.83538   0.00000  Uiso   1.00
C923   C     0.13689   0.02569   0.72065   0.00000  Uiso   1.00
C924   C     0.19562   0.30724   0.78058   0.00000  Uiso   1.00
C925   C     0.19549   0.02425   0.78072   0.00000  Uiso   1.00
C926   C     0.13777   0.30916   0.72011   0.00000  Uiso   1.00
C927   C     0.02109   0.12848   0.76239   0.00000  Uiso   1.00
C928   C     0.30949   0.20786   0.73331   0.00000  Uiso   1.00
C929   C     0.31208   0.12618   0.74682   0.00000  Uiso   1.00
C930   C     0.01896   0.21096   0.74658   0.00000  Uiso   1.00
C931   C     0.20685   0.20135   0.55428   0.00000  Uiso   1.00
C932   C     0.20021   0.12409   0.95528   0.00000  Uiso   1.00
C933   C     0.18278   0.20385   0.95601   0.00000  Uiso   1.00
C934   C     0.19305   0.12147   0.55203   0.00000  Uiso   1.00
C935   C     0.18816   0.20408   0.59211   0.00000  Uiso   1.00
C936   C     0.17926   0.12181   0.91101   0.00000  Uiso   1.00
C937   C     0.16748   0.20390   0.91005   0.00000  Uiso   1.00
C938   C     0.18584   0.12093   0.59644   0.00000  Uiso   1.00
C939   C     0.18021   0.16388   0.61743   0.00000  Uiso   1.00
C940   C     0.16912   0.16343   0.88570   0.00000  Uiso   1.00
C941   C     0.20306   0.16154   0.52992   0.00000  Uiso   1.00
C942   C     0.19906   0.16403   0.97966   0.00000  Uiso   1.00
C943   C     0.28932   0.16696   0.74184   0.00000  Uiso   1.00
C944   C     0.04230   0.16928   0.75472   0.00000  Uiso   1.00
Cu945  Cu    0.16667   0.21355   0.75000   0.00000  Uiso   1.00
Cu946  Cu    0.16667   0.11978   0.75000   0.00000  Uiso   1.00
H947   H     0.21663   0.23261   0.53912   0.00000  Uiso   1.00
H948   H     0.21137   0.09248   0.97253   0.00000  Uiso   1.00
H949   H     0.17789   0.23421   0.97380   0.00000  Uiso   1.00
H950   H     0.18876   0.09007   0.53404   0.00000  Uiso   1.00
N951   N     0.16667   0.28402   0.75000   0.00000  Uiso   1.00
N952   N     0.16667   0.04931   0.75000   0.00000  Uiso   1.00
O953   O     0.10655   0.20625   0.75000   0.00000  Uiso   1.00
O954   O     0.22679   0.12709   0.75001   0.00000  Uiso   1.00
O955   O     0.22679   0.20625   0.75001   0.00000  Uiso   1.00
O956   O     0.10655   0.12709   0.75000   0.00000  Uiso   1.00
O957   O     0.16666   0.20626   0.68573   0.00000  Uiso   1.00
O958   O     0.16667   0.12707   0.81427   0.00000  Uiso   1.00
O959   O     0.16667   0.20626   0.81427   0.00000  Uiso   1.00
O960   O     0.16666   0.12707   0.68573   0.00000  Uiso   1.00
S961   S     0.09020   0.05597   0.69263   0.00000  Uiso   1.00
O962   O     0.06251   0.03491   0.65425   0.00000  Uiso   1.00
O963   O     0.06591   0.05756   0.72967   0.00000  Uiso   1.00
O964   O     0.09518   0.10899   0.67130   0.00000  Uiso   1.00
H965   H     0.06695   0.12168   0.66437   0.00000  Uiso   1.00
S966   S     0.23722   0.27634   0.81875   0.00000  Uiso   1.00
O967   O     0.27588   0.28707   0.80114   0.00000  Uiso   1.00
O968   O     0.24170   0.29336   0.86545   0.00000  Uiso   1.00
O969   O     0.23861   0.21948   0.82838   0.00000  Uiso   1.00
H970   H     0.26660   0.21260   0.84489   0.00000  Uiso   1.00
S971   S     0.23228   0.05245   0.82468   0.00000  Uiso   1.00
O972   O     0.22078   0.03894   0.86890   0.00000  Uiso   1.00
O973   O     0.27478   0.03504   0.82438   0.00000  Uiso   1.00
O974   O     0.23885   0.10923   0.82778   0.00000  Uiso   1.00
H975   H     0.25629   0.11423   0.85730   0.00000  Uiso   1.00
S976   S     0.09814   0.28178   0.68063   0.00000  Uiso   1.00
O977   O     0.05834   0.29308   0.69463   0.00000  Uiso   1.00
O978   O     0.09889   0.30402   0.63554   0.00000  Uiso   1.00
O979   O     0.09550   0.22552   0.67121   0.00000  Uiso   1.00
H980   H     0.06757   0.22024   0.65417   0.00000  Uiso   1.00
S981   S     0.16036   0.25436   0.59264   0.00000  Uiso   1.00
O982   O     0.11651   0.23952   0.58987   0.00000  Uiso   1.00
O983   O     0.17586   0.27972   0.63459   0.00000  Uiso   1.00
O984   O     0.16346   0.28846   0.54744   0.00000  Uiso   1.00
H985   H     0.13912   0.30876   0.54395   0.00000  Uiso   1.00
S986   S     0.14783   0.07193   0.90200   0.00000  Uiso   1.00
O987   O     0.13748   0.05927   0.85370   0.00000  Uiso   1.00
O988   O     0.16871   0.03184   0.92896   0.00000  Uiso   1.00
O989   O     0.10412   0.08244   0.92115   0.00000  Uiso   1.00
H990   H     0.08968   0.05258   0.92048   0.00000  Uiso   1.00
S991   S     0.13280   0.24819   0.88898   0.00000  Uiso   1.00
O992   O     0.15124   0.28121   0.85907   0.00000  Uiso   1.00
O993   O     0.09588   0.22575   0.86276   0.00000  Uiso   1.00
O994   O     0.11830   0.27748   0.93062   0.00000  Uiso   1.00
H995   H     0.10027   0.25621   0.94441   0.00000  Uiso   1.00
S996   S     0.17961   0.06398   0.61738   0.00000  Uiso   1.00
O997   O     0.19702   0.05569   0.66597   0.00000  Uiso   1.00
O998   O     0.13472   0.05274   0.60905   0.00000  Uiso   1.00
O999   O     0.20387   0.02760   0.58879   0.00000  Uiso   1.00
H1000  H     0.23351   0.03340   0.59894   0.00000  Uiso   1.00
S1001  S     0.03727   0.10041   0.81503   0.00000  Uiso   1.00
O1002  O     0.07543   0.12313   0.83852   0.00000  Uiso   1.00
O1003  O     0.00426   0.10511   0.84301   0.00000  Uiso   1.00
O1004  O     0.04605   0.04438   0.80973   0.00000  Uiso   1.00
H1005  H     0.05158   0.03140   0.84080   0.00000  Uiso   1.00
S1006  S     0.28396   0.24707   0.69165   0.00000  Uiso   1.00
O1007  O     0.25288   0.22106   0.66030   0.00000  Uiso   1.00
O1008  O     0.26218   0.28386   0.71189   0.00000  Uiso   1.00
O1009  O     0.31655   0.27184   0.66148   0.00000  Uiso   1.00
H1010  H     0.32482   0.24696   0.64338   0.00000  Uiso   1.00
S1011  S     0.29249   0.08121   0.71113   0.00000  Uiso   1.00
O1012  O     0.32504   0.05200   0.69773   0.00000  Uiso   1.00
O1013  O     0.26501   0.05056   0.73326   0.00000  Uiso   1.00
O1014  O     0.26551   0.10553   0.66423   0.00000  Uiso   1.00
H1015  H     0.28590   0.12309   0.65016   0.00000  Uiso   1.00
S1016  S     0.03322   0.26053   0.77889   0.00000  Uiso   1.00
O1017  O     0.07803   0.27198   0.78531   0.00000  Uiso   1.00
O1018  O     0.00961   0.30172   0.75759   0.00000  Uiso   1.00
O1019  O     0.01982   0.25035   0.82939   0.00000  Uiso   1.00
H1020  H     0.02460   0.27970   0.84504   0.00000  Uiso   1.00
C1021  C     0.42086   0.16711   0.75253   0.00000  Uiso   1.00
C1022  C     0.57849   0.16680   0.74625   0.00000  Uiso   1.00
C1023  C     0.50284   0.16654   0.66473   0.00000  Uiso   1.00
C1024  C     0.49890   0.16575   0.83538   0.00000  Uiso   1.00
C1025  C     0.47022   0.02569   0.72065   0.00000  Uiso   1.00
C1026  C     0.52895   0.30724   0.78058   0.00000  Uiso   1.00
C1027  C     0.52883   0.02425   0.78072   0.00000  Uiso   1.00
C1028  C     0.47110   0.30916   0.72011   0.00000  Uiso   1.00
C1029  C     0.35442   0.12848   0.76239   0.00000  Uiso   1.00
C1030  C     0.64283   0.20786   0.73331   0.00000  Uiso   1.00
C1031  C     0.64541   0.12618   0.74682   0.00000  Uiso   1.00
C1032  C     0.35229   0.21096   0.74658   0.00000  Uiso   1.00
C1033  C     0.54018   0.20135   0.55428   0.00000  Uiso   1.00
C1034  C     0.53354   0.12409   0.95528   0.00000  Uiso   1.00
C1035  C     0.51611   0.20385   0.95601   0.00000  Uiso   1.00
C1036  C     0.52638   0.12147   0.55203   0.00000  Uiso   1.00
C1037  C     0.52149   0.20408   0.59211   0.00000  Uiso   1.00
C1038  C     0.51259   0.12181   0.91101   0.00000  Uiso   1.00
C1039  C     0.50081   0.20390   0.91005   0.00000  Uiso   1.00
C1040  C     0.51917   0.12093   0.59644   0.00000  Uiso   1.00
C1041  C     0.51354   0.16388   0.61743   0.00000  Uiso   1.00
C1042  C     0.50246   0.16343   0.88570   0.00000  Uiso   1.00
C1043  C     0.53639   0.16154   0.52992   0.00000  Uiso   1.00
C1044  C     0.53239   0.16403   0.97966   0.00000  Uiso   1.00
C1045  C     0.62266   0.16696   0.74184   0.00000  Uiso   1.00
C1046  C     0.37563   0.16928   0.75472   0.00000  Uiso   1.00
Cu1047 Cu    0.50000   0.21355   0.75000   0.00000  Uiso   1.00
Cu1048 Cu    0.50000   0.11978   0.75000   0.00000  Uiso   1.00
H1049  H     0.54996   0.23261   0.53912   0.00000  Uiso   1.00
H1050  H     0.54470   0.09248   0.97253   0.00000  Uiso   1.00
H1051  H     0.51122   0.23421   0.97380   0.00000  Uiso   1.00
H1052  H     0.52210   0.09007   0.53404   0.00000  Uiso   1.00
N1053  N     0.50000   0.28402   0.75000   0.00000  Uiso   1.00
N1054  N     0.50000   0.04931   0.75000   0.00000  Uiso   1.00
O1055  O     0.43988   0.20625   0.75000   0.00000  Uiso   1.00
O1056  O     0.56012   0.12709   0.75001   0.00000  Uiso   1.00
O1057  O     0.56012   0.20625   0.75001   0.00000  Uiso   1.00
O1058  O     0.43988   0.12709   0.75000   0.00000  Uiso   1.00
O1059  O     0.50000   0.20626   0.68573   0.00000  Uiso   1.00
O1060  O     0.50000   0.12707   0.81427   0.00000  Uiso   1.00
O1061  O     0.50000   0.20626   0.81427   0.00000  Uiso   1.00
O1062  O     0.50000   0.12707   0.68573   0.00000  Uiso   1.00
S1063  S     0.42353   0.05597   0.69263   0.00000  Uiso   1.00
O1064  O     0.39584   0.03491   0.65425   0.00000  Uiso   1.00
O1065  O     0.39925   0.05756   0.72967   0.00000  Uiso   1.00
O1066  O     0.42851   0.10899   0.67130   0.00000  Uiso   1.00
H1067  H     0.40029   0.12168   0.66437   0.00000  Uiso   1.00
S1068  S     0.57056   0.27634   0.81875   0.00000  Uiso   1.00
O1069  O     0.60921   0.28707   0.80114   0.00000  Uiso   1.00
O1070  O     0.57503   0.29336   0.86545   0.00000  Uiso   1.00
O1071  O     0.57195   0.21948   0.82838   0.00000  Uiso   1.00
H1072  H     0.59994   0.21260   0.84489   0.00000  Uiso   1.00
S1073  S     0.56562   0.05245   0.82468   0.00000  Uiso   1.00
O1074  O     0.55412   0.03894   0.86890   0.00000  Uiso   1.00
O1075  O     0.60812   0.03504   0.82438   0.00000  Uiso   1.00
O1076  O     0.57219   0.10923   0.82778   0.00000  Uiso   1.00
H1077  H     0.58963   0.11423   0.85730   0.00000  Uiso   1.00
S1078  S     0.43148   0.28178   0.68063   0.00000  Uiso   1.00
O1079  O     0.39168   0.29308   0.69463   0.00000  Uiso   1.00
O1080  O     0.43222   0.30402   0.63554   0.00000  Uiso   1.00
O1081  O     0.42883   0.22552   0.67121   0.00000  Uiso   1.00
H1082  H     0.40090   0.22024   0.65417   0.00000  Uiso   1.00
S1083  S     0.49370   0.25436   0.59264   0.00000  Uiso   1.00
O1084  O     0.44985   0.23952   0.58987   0.00000  Uiso   1.00
O1085  O     0.50920   0.27972   0.63459   0.00000  Uiso   1.00
O1086  O     0.49680   0.28846   0.54744   0.00000  Uiso   1.00
H1087  H     0.47246   0.30876   0.54395   0.00000  Uiso   1.00
S1088  S     0.48116   0.07193   0.90200   0.00000  Uiso   1.00
O1089  O     0.47081   0.05927   0.85370   0.00000  Uiso   1.00
O1090  O     0.50204   0.03184   0.92896   0.00000  Uiso   1.00
O1091  O     0.43745   0.08244   0.92115   0.00000  Uiso   1.00
H1092  H     0.42301   0.05258   0.92048   0.00000  Uiso   1.00
S1093  S     0.46614   0.24819   0.88898   0.00000  Uiso   1.00
O1094  O     0.48458   0.28121   0.85907   0.00000  Uiso   1.00
O1095  O     0.42921   0.22575   0.86276   0.00000  Uiso   1.00
O1096  O     0.45163   0.27748   0.93062   0.00000  Uiso   1.00
H1097  H     0.43361   0.25621   0.94441   0.00000  Uiso   1.00
S1098  S     0.51295   0.06398   0.61738   0.00000  Uiso   1.00
O1099  O     0.53036   0.05569   0.66597   0.00000  Uiso   1.00
O1100  O     0.46805   0.05274   0.60905   0.00000  Uiso   1.00
O1101  O     0.53720   0.02760   0.58879   0.00000  Uiso   1.00
H1102  H     0.56684   0.03340   0.59894   0.00000  Uiso   1.00
S1103  S     0.37060   0.10041   0.81503   0.00000  Uiso   1.00
O1104  O     0.40876   0.12313   0.83852   0.00000  Uiso   1.00
O1105  O     0.33759   0.10511   0.84301   0.00000  Uiso   1.00
O1106  O     0.37939   0.04438   0.80973   0.00000  Uiso   1.00
H1107  H     0.38492   0.03140   0.84080   0.00000  Uiso   1.00
S1108  S     0.61730   0.24707   0.69165   0.00000  Uiso   1.00
O1109  O     0.58621   0.22106   0.66030   0.00000  Uiso   1.00
O1110  O     0.59551   0.28386   0.71189   0.00000  Uiso   1.00
O1111  O     0.64988   0.27184   0.66148   0.00000  Uiso   1.00
H1112  H     0.65815   0.24696   0.64338   0.00000  Uiso   1.00
S1113  S     0.62582   0.08121   0.71113   0.00000  Uiso   1.00
O1114  O     0.65837   0.05200   0.69773   0.00000  Uiso   1.00
O1115  O     0.59834   0.05056   0.73326   0.00000  Uiso   1.00
O1116  O     0.59885   0.10553   0.66423   0.00000  Uiso   1.00
H1117  H     0.61923   0.12309   0.65016   0.00000  Uiso   1.00
S1118  S     0.36655   0.26053   0.77889   0.00000  Uiso   1.00
O1119  O     0.41136   0.27198   0.78531   0.00000  Uiso   1.00
O1120  O     0.34294   0.30172   0.75759   0.00000  Uiso   1.00
O1121  O     0.35315   0.25035   0.82939   0.00000  Uiso   1.00
H1122  H     0.35794   0.27970   0.84504   0.00000  Uiso   1.00
C1123  C     0.75419   0.16711   0.75253   0.00000  Uiso   1.00
C1124  C     0.91183   0.16680   0.74625   0.00000  Uiso   1.00
C1125  C     0.83617   0.16654   0.66473   0.00000  Uiso   1.00
C1126  C     0.83223   0.16575   0.83538   0.00000  Uiso   1.00
C1127  C     0.80356   0.02569   0.72065   0.00000  Uiso   1.00
C1128  C     0.86229   0.30724   0.78058   0.00000  Uiso   1.00
C1129  C     0.86216   0.02425   0.78072   0.00000  Uiso   1.00
C1130  C     0.80444   0.30916   0.72011   0.00000  Uiso   1.00
C1131  C     0.68775   0.12848   0.76239   0.00000  Uiso   1.00
C1132  C     0.97616   0.20786   0.73331   0.00000  Uiso   1.00
C1133  C     0.97874   0.12618   0.74682   0.00000  Uiso   1.00
C1134  C     0.68562   0.21096   0.74658   0.00000  Uiso   1.00
C1135  C     0.87352   0.20135   0.55428   0.00000  Uiso   1.00
C1136  C     0.86687   0.12409   0.95528   0.00000  Uiso   1.00
C1137  C     0.84944   0.20385   0.95601   0.00000  Uiso   1.00
C1138  C     0.85972   0.12147   0.55203   0.00000  Uiso   1.00
C1139  C     0.85483   0.20408   0.59211   0.00000  Uiso   1.00
C1140  C     0.84592   0.12181   0.91101   0.00000  Uiso   1.00
C1141  C     0.83414   0.20390   0.91005   0.00000  Uiso   1.00
C1142  C     0.85251   0.12093   0.59644   0.00000  Uiso   1.00
C1143  C     0.84687   0.16388   0.61743   0.00000  Uiso   1.00
C1144  C     0.83579   0.16343   0.88570   0.00000  Uiso   1.00
C1145  C     0.86973   0.16154   0.52992   0.00000  Uiso   1.00
C1146  C     0.86573   0.16403   0.97966   0.00000  Uiso   1.00
C1147  C     0.95599   0.16696   0.74184   0.00000  Uiso   1.00
C1148  C     0.70896   0.16928   0.75472   0.00000  Uiso   1.00
Cu1149 Cu    0.83333   0.21355   0.75000   0.00000  Uiso   1.00
Cu1150 Cu    0.83333   0.11978   0.75000   0.00000  Uiso   1.00
H1151  H     0.88329   0.23261   0.53912   0.00000  Uiso   1.00
H1152  H     0.87803   0.09248   0.97253   0.00000  Uiso   1.00
H1153  H     0.84456   0.23421   0.97380   0.00000  Uiso   1.00
H1154  H     0.85543   0.09007   0.53404   0.00000  Uiso   1.00
N1155  N     0.83333   0.28402   0.75000   0.00000  Uiso   1.00
N1156  N     0.83333   0.04931   0.75000   0.00000  Uiso   1.00
O1157  O     0.77321   0.20625   0.75000   0.00000  Uiso   1.00
O1158  O     0.89345   0.12709   0.75001   0.00000  Uiso   1.00
O1159  O     0.89345   0.20625   0.75001   0.00000  Uiso   1.00
O1160  O     0.77321   0.12709   0.75000   0.00000  Uiso   1.00
O1161  O     0.83333   0.20626   0.68573   0.00000  Uiso   1.00
O1162  O     0.83334   0.12707   0.81427   0.00000  Uiso   1.00
O1163  O     0.83334   0.20626   0.81427   0.00000  Uiso   1.00
O1164  O     0.83333   0.12707   0.68573   0.00000  Uiso   1.00
S1165  S     0.75687   0.05597   0.69263   0.00000  Uiso   1.00
O1166  O     0.72917   0.03491   0.65425   0.00000  Uiso   1.00
O1167  O     0.73258   0.05756   0.72967   0.00000  Uiso   1.00
O1168  O     0.76184   0.10899   0.67130   0.00000  Uiso   1.00
H1169  H     0.73362   0.12168   0.66437   0.00000  Uiso   1.00
S1170  S     0.90389   0.27634   0.81875   0.00000  Uiso   1.00
O1171  O     0.94254   0.28707   0.80114   0.00000  Uiso   1.00
O1172  O     0.90837   0.29336   0.86545   0.00000  Uiso   1.00
O1173  O     0.90528   0.21948   0.82838   0.00000  Uiso   1.00
H1174  H     0.93327   0.21260   0.84489   0.00000  Uiso   1.00
S1175  S     0.89895   0.05245   0.82468   0.00000  Uiso   1.00
O1176  O     0.88745   0.03894   0.86890   0.00000  Uiso   1.00
O1177  O     0.94145   0.03504   0.82438   0.00000  Uiso   1.00
O1178  O     0.90552   0.10923   0.82778   0.00000  Uiso   1.00
H1179  H     0.92296   0.11423   0.85730   0.00000  Uiso   1.00
S1180  S     0.76481   0.28178   0.68063   0.00000  Uiso   1.00
O1181  O     0.72501   0.29308   0.69463   0.00000  Uiso   1.00
O1182  O     0.76556   0.30402   0.63554   0.00000  Uiso   1.00
O1183  O     0.76217   0.22552   0.67121   0.00000  Uiso   1.00
H1184  H     0.73424   0.22024   0.65417   0.00000  Uiso   1.00
S1185  S     0.82703   0.25436   0.59264   0.00000  Uiso   1.00
O1186  O     0.78318   0.23952   0.58987   0.00000  Uiso   1.00
O1187  O     0.84253   0.27972   0.63459   0.00000  Uiso   1.00
O1188  O     0.83013   0.28846   0.54744   0.00000  Uiso   1.00
H1189  H     0.80579   0.30876   0.54395   0.00000  Uiso   1.00
S1190  S     0.81450   0.07193   0.90200   0.00000  Uiso   1.00
O1191  O     0.80414   0.05927   0.85370   0.00000  Uiso   1.00
O1192  O     0.83537   0.03184   0.92896   0.00000  Uiso   1.00
O1193  O     0.77078   0.08244   0.92115   0.00000  Uiso   1.00
H1194  H     0.75635   0.05258   0.92048   0.00000  Uiso   1.00
S1195  S     0.79947   0.24819   0.88898   0.00000  Uiso   1.00
O1196  O     0.81791   0.28121   0.85907   0.00000  Uiso   1.00
O1197  O     0.76254   0.22575   0.86276   0.00000  Uiso   1.00
O1198  O     0.78497   0.27748   0.93062   0.00000  Uiso   1.00
H1199  H     0.76694   0.25621   0.94441   0.00000  Uiso   1.00
S1200  S     0.84628   0.06398   0.61738   0.00000  Uiso   1.00
O1201  O     0.86369   0.05569   0.66597   0.00000  Uiso   1.00
O1202  O     0.80138   0.05274   0.60905   0.00000  Uiso   1.00
O1203  O     0.87053   0.02760   0.58879   0.00000  Uiso   1.00
H1204  H     0.90017   0.03340   0.59894   0.00000  Uiso   1.00
S1205  S     0.70393   0.10041   0.81503   0.00000  Uiso   1.00
O1206  O     0.74209   0.12313   0.83852   0.00000  Uiso   1.00
O1207  O     0.67093   0.10511   0.84301   0.00000  Uiso   1.00
O1208  O     0.71272   0.04438   0.80973   0.00000  Uiso   1.00
H1209  H     0.71825   0.03140   0.84080   0.00000  Uiso   1.00
S1210  S     0.95063   0.24707   0.69165   0.00000  Uiso   1.00
O1211  O     0.91954   0.22106   0.66030   0.00000  Uiso   1.00
O1212  O     0.92885   0.28386   0.71189   0.00000  Uiso   1.00
O1213  O     0.98321   0.27184   0.66148   0.00000  Uiso   1.00
H1214  H     0.99149   0.24696   0.64338   0.00000  Uiso   1.00
S1215  S     0.95916   0.08121   0.71113   0.00000  Uiso   1.00
O1216  O     0.99171   0.05200   0.69773   0.00000  Uiso   1.00
O1217  O     0.93167   0.05056   0.73326   0.00000  Uiso   1.00
O1218  O     0.93218   0.10553   0.66423   0.00000  Uiso   1.00
H1219  H     0.95256   0.12309   0.65016   0.00000  Uiso   1.00
S1220  S     0.69988   0.26053   0.77889   0.00000  Uiso   1.00
O1221  O     0.74469   0.27198   0.78531   0.00000  Uiso   1.00
O1222  O     0.67628   0.30172   0.75759   0.00000  Uiso   1.00
O1223  O     0.68648   0.25035   0.82939   0.00000  Uiso   1.00
H1224  H     0.69127   0.27970   0.84504   0.00000  Uiso   1.00
C1225  C     0.08752   0.50045   0.75253   0.00000  Uiso   1.00
C1226  C     0.24516   0.50013   0.74625   0.00000  Uiso   1.00
C1227  C     0.16951   0.49987   0.66473   0.00000  Uiso   1.00
C1228  C     0.16557   0.49908   0.83538   0.00000  Uiso   1.00
C1229  C     0.13689   0.35903   0.72065   0.00000  Uiso   1.00
C1230  C     0.19562   0.64057   0.78058   0.00000  Uiso   1.00
C1231  C     0.19549   0.35758   0.78072   0.00000  Uiso   1.00
C1232  C     0.13777   0.64249   0.72011   0.00000  Uiso   1.00
C1233  C     0.02109   0.46181   0.76239   0.00000  Uiso   1.00
C1234  C     0.30949   0.54120   0.73331   0.00000  Uiso   1.00
C1235  C     0.31208   0.45951   0.74682   0.00000  Uiso   1.00
C1236  C     0.01896   0.54429   0.74658   0.00000  Uiso   1.00
C1237  C     0.20685   0.53469   0.55428   0.00000  Uiso   1.00
C1238  C     0.20021   0.45742   0.95528   0.00000  Uiso   1.00
C1239  C     0.18278   0.53719   0.95601   0.00000  Uiso   1.00
C1240  C     0.19305   0.45481   0.55203   0.00000  Uiso   1.00
C1241  C     0.18816   0.53741   0.59211   0.00000  Uiso   1.00
C1242  C     0.17926   0.45514   0.91101   0.00000  Uiso   1.00
C1243  C     0.16748   0.53723   0.91005   0.00000  Uiso   1.00
C1244  C     0.18584   0.45426   0.59644   0.00000  Uiso   1.00
C1245  C     0.18021   0.49722   0.61743   0.00000  Uiso   1.00
C1246  C     0.16912   0.49676   0.88570   0.00000  Uiso   1.00
C1247  C     0.20306   0.49487   0.52992   0.00000  Uiso   1.00
C1248  C     0.19906   0.49737   0.97966   0.00000  Uiso   1.00
C1249  C     0.28932   0.50030   0.74184   0.00000  Uiso   1.00
C1250  C     0.04230   0.50261   0.75472   0.00000  Uiso   1.00
Cu1251 Cu    0.16667   0.54689   0.75000   0.00000  Uiso   1.00
Cu1252 Cu    0.16667   0.45311   0.75000   0.00000  Uiso   1.00
H1253  H     0.21663   0.56594   0.53912   0.00000  Uiso   1.00
H1254  H     0.21137   0.42581   0.97253   0.00000  Uiso   1.00
H1255  H     0.17789   0.56755   0.97380   0.00000  Uiso   1.00
H1256  H     0.18876   0.42340   0.53404   0.00000  Uiso   1.00
N1257  N     0.16667   0.61736   0.75000   0.00000  Uiso   1.00
N1258  N     0.16667   0.38264   0.75000   0.00000  Uiso   1.00
O1259  O     0.10655   0.53958   0.75000   0.00000  Uiso   1.00
O1260  O     0.22679   0.46042   0.75001   0.00000  Uiso   1.00
O1261  O     0.22679   0.53958   0.75001   0.00000  Uiso   1.00
O1262  O     0.10655   0.46042   0.75000   0.00000  Uiso   1.00
O1263  O     0.16666   0.53959   0.68573   0.00000  Uiso   1.00
O1264  O     0.16667   0.46041   0.81427   0.00000  Uiso   1.00
O1265  O     0.16667   0.53959   0.81427   0.00000  Uiso   1.00
O1266  O     0.16666   0.46041   0.68573   0.00000  Uiso   1.00
S1267  S     0.09020   0.38930   0.69263   0.00000  Uiso   1.00
O1268  O     0.06251   0.36824   0.65425   0.00000  Uiso   1.00
O1269  O     0.06591   0.39089   0.72967   0.00000  Uiso   1.00
O1270  O     0.09518   0.44233   0.67130   0.00000  Uiso   1.00
H1271  H     0.06695   0.45501   0.66437   0.00000  Uiso   1.00
S1272  S     0.23722   0.60968   0.81875   0.00000  Uiso   1.00
O1273  O     0.27588   0.62041   0.80114   0.00000  Uiso   1.00
O1274  O     0.24170   0.62669   0.86545   0.00000  Uiso   1.00
O1275  O     0.23861   0.55282   0.82838   0.00000  Uiso   1.00
H1276  H     0.26660   0.54593   0.84489   0.00000  Uiso   1.00
S1277  S     0.23228   0.38579   0.82468   0.00000  Uiso   1.00
O1278  O     0.22078   0.37228   0.86890   0.00000  Uiso   1.00
O1279  O     0.27478   0.36837   0.82438   0.00000  Uiso   1.00
O1280  O     0.23885   0.44256   0.82778   0.00000  Uiso   1.00
H1281  H     0.25629   0.44757   0.85730   0.00000  Uiso   1.00
S1282  S     0.09814   0.61511   0.68063   0.00000  Uiso   1.00
O1283  O     0.05834   0.62642   0.69463   0.00000  Uiso   1.00
O1284  O     0.09889   0.63736   0.63554   0.00000  Uiso   1.00
O1285  O     0.09550   0.55885   0.67121   0.00000  Uiso   1.00
H1286  H     0.06757   0.55357   0.65417   0.00000  Uiso   1.00
S1287  S     0.16036   0.58769   0.59264   0.00000  Uiso   1.00
O1288  O     0.11651   0.57285   0.58987   0.00000  Uiso   1.00
O1289  O     0.17586   0.61306   0.63459   0.00000  Uiso   1.00
O1290  O     0.16346   0.62179   0.54744   0.00000  Uiso   1.00
H1291  H     0.13912   0.64209   0.54395   0.00000  Uiso   1.00
S1292  S     0.14783   0.40527   0.90200   0.00000  Uiso   1.00
O1293  O     0.13748   0.39260   0.85370   0.00000  Uiso   1.00
O1294  O     0.16871   0.36518   0.92896   0.00000  Uiso   1.00
O1295  O     0.10412   0.41578   0.92115   0.00000  Uiso   1.00
H1296  H     0.08968   0.38591   0.92048   0.00000  Uiso   1.00
S1297  S     0.13280   0.58152   0.88898   0.00000  Uiso   1.00
O1298  O     0.15124   0.61455   0.85907   0.00000  Uiso   1.00
O1299  O     0.09588   0.55908   0.86276   0.00000  Uiso   1.00
O1300  O     0.11830   0.61082   0.93062   0.00000  Uiso   1.00
H1301  H     0.10027   0.58954   0.94441   0.00000  Uiso   1.00
S1302  S     0.17961   0.39732   0.61738   0.00000  Uiso   1.00
O1303  O     0.19702   0.38902   0.66597   0.00000  Uiso   1.00
O1304  O     0.13472   0.38607   0.60905   0.00000  Uiso   1.00
O1305  O     0.20387   0.36093   0.58879   0.00000  Uiso   1.00
H1306  H     0.23351   0.36674   0.59894   0.00000  Uiso   1.00
S1307  S     0.03727   0.43375   0.81503   0.00000  Uiso   1.00
O1308  O     0.07543   0.45646   0.83852   0.00000  Uiso   1.00
O1309  O     0.00426   0.43845   0.84301   0.00000  Uiso   1.00
O1310  O     0.04605   0.37771   0.80973   0.00000  Uiso   1.00
H1311  H     0.05158   0.36474   0.84080   0.00000  Uiso   1.00
S1312  S     0.28396   0.58040   0.69165   0.00000  Uiso   1.00
O1313  O     0.25288   0.55439   0.66030   0.00000  Uiso   1.00
O1314  O     0.26218   0.61719   0.71189   0.00000  Uiso   1.00
O1315  O     0.31655   0.60517   0.66148   0.00000  Uiso   1.00
H1316  H     0.32482   0.58030   0.64338   0.00000  Uiso   1.00
S1317  S     0.29249   0.41454   0.71113   0.00000  Uiso   1.00
O1318  O     0.32504   0.38533   0.69773   0.00000  Uiso   1.00
O1319  O     0.26501   0.38390   0.73326   0.00000  Uiso   1.00
O1320  O     0.26551   0.43887   0.66423   0.00000  Uiso   1.00
H1321  H     0.28590   0.45643   0.65016   0.00000  Uiso   1.00
S1322  S     0.03322   0.59386   0.77889   0.00000  Uiso   1.00
O1323  O     0.07803   0.60531   0.78531   0.00000  Uiso   1.00
O1324  O     0.00961   0.63505   0.75759   0.00000  Uiso   1.00
O1325  O     0.01982   0.58368   0.82939   0.00000  Uiso   1.00
H1326  H     0.02460   0.61303   0.84504   0.00000  Uiso   1.00
C1327  C     0.42086   0.50045   0.75253   0.00000  Uiso   1.00
C1328  C     0.57849   0.50013   0.74625   0.00000  Uiso   1.00
C1329  C     0.50284   0.49987   0.66473   0.00000  Uiso   1.00
C1330  C     0.49890   0.49908   0.83538   0.00000  Uiso   1.00
C1331  C     0.47022   0.35903   0.72065   0.00000  Uiso   1.00
C1332  C     0.52895   0.64057   0.78058   0.00000  Uiso   1.00
C1333  C     0.52883   0.35758   0.78072   0.00000  Uiso   1.00
C1334  C     0.47110   0.64249   0.72011   0.00000  Uiso   1.00
C1335  C     0.35442   0.46181   0.76239   0.00000  Uiso   1.00
C1336  C     0.64283   0.54120   0.73331   0.00000  Uiso   1.00
C1337  C     0.64541   0.45951   0.74682   0.00000  Uiso   1.00
C1338  C     0.35229   0.54429   0.74658   0.00000  Uiso   1.00
C1339  C     0.54018   0.53469   0.55428   0.00000  Uiso   1.00
C1340  C     0.53354   0.45742   0.95528   0.00000  Uiso   1.00
C1341  C     0.51611   0.53719   0.95601   0.00000  Uiso   1.00
C1342  C     0.52638   0.45481   0.55203   0.00000  Uiso   1.00
C1343  C     0.52149   0.53741   0.59211   0.00000  Uiso   1.00
C1344  C     0.51259   0.45514   0.91101   0.00000  Uiso   1.00
C1345  C     0.50081   0.53723   0.91005   0.00000  Uiso   1.00
C1346  C     0.51917   0.45426   0.59644   0.00000  Uiso   1.00
C1347  C     0.51354   0.49722   0.61743   0.00000  Uiso   1.00
C1348  C     0.50246   0.49676   0.88570   0.00000  Uiso   1.00
C1349  C     0.53639   0.49487   0.52992   0.00000  Uiso   1.00
C1350  C     0.53239   0.49737   0.97966   0.00000  Uiso   1.00
C1351  C     0.62266   0.50030   0.74184   0.00000  Uiso   1.00
C1352  C     0.37563   0.50261   0.75472   0.00000  Uiso   1.00
Cu1353 Cu    0.50000   0.54689   0.75000   0.00000  Uiso   1.00
Cu1354 Cu    0.50000   0.45311   0.75000   0.00000  Uiso   1.00
H1355  H     0.54996   0.56594   0.53912   0.00000  Uiso   1.00
H1356  H     0.54470   0.42581   0.97253   0.00000  Uiso   1.00
H1357  H     0.51122   0.56755   0.97380   0.00000  Uiso   1.00
H1358  H     0.52210   0.42340   0.53404   0.00000  Uiso   1.00
N1359  N     0.50000   0.61736   0.75000   0.00000  Uiso   1.00
N1360  N     0.50000   0.38264   0.75000   0.00000  Uiso   1.00
O1361  O     0.43988   0.53958   0.75000   0.00000  Uiso   1.00
O1362  O     0.56012   0.46042   0.75001   0.00000  Uiso   1.00
O1363  O     0.56012   0.53958   0.75001   0.00000  Uiso   1.00
O1364  O     0.43988   0.46042   0.75000   0.00000  Uiso   1.00
O1365  O     0.50000   0.53959   0.68573   0.00000  Uiso   1.00
O1366  O     0.50000   0.46041   0.81427   0.00000  Uiso   1.00
O1367  O     0.50000   0.53959   0.81427   0.00000  Uiso   1.00
O1368  O     0.50000   0.46041   0.68573   0.00000  Uiso   1.00
S1369  S     0.42353   0.38930   0.69263   0.00000  Uiso   1.00
O1370  O     0.39584   0.36824   0.65425   0.00000  Uiso   1.00
O1371  O     0.39925   0.39089   0.72967   0.00000  Uiso   1.00
O1372  O     0.42851   0.44233   0.67130   0.00000  Uiso   1.00
H1373  H     0.40029   0.45501   0.66437   0.00000  Uiso   1.00
S1374  S     0.57056   0.60968   0.81875   0.00000  Uiso   1.00
O1375  O     0.60921   0.62041   0.80114   0.00000  Uiso   1.00
O1376  O     0.57503   0.62669   0.86545   0.00000  Uiso   1.00
O1377  O     0.57195   0.55282   0.82838   0.00000  Uiso   1.00
H1378  H     0.59994   0.54593   0.84489   0.00000  Uiso   1.00
S1379  S     0.56562   0.38579   0.82468   0.00000  Uiso   1.00
O1380  O     0.55412   0.37228   0.86890   0.00000  Uiso   1.00
O1381  O     0.60812   0.36837   0.82438   0.00000  Uiso   1.00
O1382  O     0.57219   0.44256   0.82778   0.00000  Uiso   1.00
H1383  H     0.58963   0.44757   0.85730   0.00000  Uiso   1.00
S1384  S     0.43148   0.61511   0.68063   0.00000  Uiso   1.00
O1385  O     0.39168   0.62642   0.69463   0.00000  Uiso   1.00
O1386  O     0.43222   0.63736   0.63554   0.00000  Uiso   1.00
O1387  O     0.42883   0.55885   0.67121   0.00000  Uiso   1.00
H1388  H     0.40090   0.55357   0.65417   0.00000  Uiso   1.00
S1389  S     0.49370   0.58769   0.59264   0.00000  Uiso   1.00
O1390  O     0.44985   0.57285   0.58987   0.00000  Uiso   1.00
O1391  O     0.50920   0.61306   0.63459   0.00000  Uiso   1.00
O1392  O     0.49680   0.62179   0.54744   0.00000  Uiso   1.00
H1393  H     0.47246   0.64209   0.54395   0.00000  Uiso   1.00
S1394  S     0.48116   0.40527   0.90200   0.00000  Uiso   1.00
O1395  O     0.47081   0.39260   0.85370   0.00000  Uiso   1.00
O1396  O     0.50204   0.36518   0.92896   0.00000  Uiso   1.00
O1397  O     0.43745   0.41578   0.92115   0.00000  Uiso   1.00
H1398  H     0.42301   0.38591   0.92048   0.00000  Uiso   1.00
S1399  S     0.46614   0.58152   0.88898   0.00000  Uiso   1.00
O1400  O     0.48458   0.61455   0.85907   0.00000  Uiso   1.00
O1401  O     0.42921   0.55908   0.86276   0.00000  Uiso   1.00
O1402  O     0.45163   0.61082   0.93062   0.00000  Uiso   1.00
H1403  H     0.43361   0.58954   0.94441   0.00000  Uiso   1.00
S1404  S     0.51295   0.39732   0.61738   0.00000  Uiso   1.00
O1405  O     0.53036   0.38902   0.66597   0.00000  Uiso   1.00
O1406  O     0.46805   0.38607   0.60905   0.00000  Uiso   1.00
O1407  O     0.53720   0.36093   0.58879   0.00000  Uiso   1.00
H1408  H     0.56684   0.36674   0.59894   0.00000  Uiso   1.00
S1409  S     0.37060   0.43375   0.81503   0.00000  Uiso   1.00
O1410  O     0.40876   0.45646   0.83852   0.00000  Uiso   1.00
O1411  O     0.33759   0.43845   0.84301   0.00000  Uiso   1.00
O1412  O     0.37939   0.37771   0.80973   0.00000  Uiso   1.00
H1413  H     0.38492   0.36474   0.84080   0.00000  Uiso   1.00
S1414  S     0.61730   0.58040   0.69165   0.00000  Uiso   1.00
O1415  O     0.58621   0.55439   0.66030   0.00000  Uiso   1.00
O1416  O     0.59551   0.61719   0.71189   0.00000  Uiso   1.00
O1417  O     0.64988   0.60517   0.66148   0.00000  Uiso   1.00
H1418  H     0.65815   0.58030   0.64338   0.00000  Uiso   1.00
S1419  S     0.62582   0.41454   0.71113   0.00000  Uiso   1.00
O1420  O     0.65837   0.38533   0.69773   0.00000  Uiso   1.00
O1421  O     0.59834   0.38390   0.73326   0.00000  Uiso   1.00
O1422  O     0.59885   0.43887   0.66423   0.00000  Uiso   1.00
H1423  H     0.61923   0.45643   0.65016   0.00000  Uiso   1.00
S1424  S     0.36655   0.59386   0.77889   0.00000  Uiso   1.00
O1425  O     0.41136   0.60531   0.78531   0.00000  Uiso   1.00
O1426  O     0.34294   0.63505   0.75759   0.00000  Uiso   1.00
O1427  O     0.35315   0.58368   0.82939   0.00000  Uiso   1.00
H1428  H     0.35794   0.61303   0.84504   0.00000  Uiso   1.00
C1429  C     0.75419   0.50045   0.75253   0.00000  Uiso   1.00
C1430  C     0.91183   0.50013   0.74625   0.00000  Uiso   1.00
C1431  C     0.83617   0.49987   0.66473   0.00000  Uiso   1.00
C1432  C     0.83223   0.49908   0.83538   0.00000  Uiso   1.00
C1433  C     0.80356   0.35903   0.72065   0.00000  Uiso   1.00
C1434  C     0.86229   0.64057   0.78058   0.00000  Uiso   1.00
C1435  C     0.86216   0.35758   0.78072   0.00000  Uiso   1.00
C1436  C     0.80444   0.64249   0.72011   0.00000  Uiso   1.00
C1437  C     0.68775   0.46181   0.76239   0.00000  Uiso   1.00
C1438  C     0.97616   0.54120   0.73331   0.00000  Uiso   1.00
C1439  C     0.97874   0.45951   0.74682   0.00000  Uiso   1.00
C1440  C     0.68562   0.54429   0.74658   0.00000  Uiso   1.00
C1441  C     0.87352   0.53469   0.55428   0.00000  Uiso   1.00
C1442  C     0.86687   0.45742   0.95528   0.00000  Uiso   1.00
C1443  C     0.84944   0.53719   0.95601   0.00000  Uiso   1.00
C1444  C     0.85972   0.45481   0.55203   0.00000  Uiso   1.00
C1445  C     0.85483   0.53741   0.59211   0.00000  Uiso   1.00
C1446  C     0.84592   0.45514   0.91101   0.00000  Uiso   1.00
C1447  C     0.83414   0.53723   0.91005   0.00000  Uiso   1.00
C1448  C     0.85251   0.45426   0.59644   0.00000  Uiso   1.00
C1449  C     0.84687   0.49722   0.61743   0.00000  Uiso   1.00
C1450  C     0.83579   0.49676   0.88570   0.00000  Uiso   1.00
C1451  C     0.86973   0.49487   0.52992   0.00000  Uiso   1.00
C1452  C     0.86573   0.49737   0.97966   0.00000  Uiso   1.00
C1453  C     0.95599   0.50030   0.74184   0.00000  Uiso   1.00
C1454  C     0.70896   0.50261   0.75472   0.00000  Uiso   1.00
Cu1455 Cu    0.83333   0.54689   0.75000   0.00000  Uiso   1.00
Cu1456 Cu    0.83333   0.45311   0.75000   0.00000  Uiso   1.00
H1457  H     0.88329   0.56594   0.53912   0.00000  Uiso   1.00
H1458  H     0.87803   0.42581   0.97253   0.00000  Uiso   1.00
H1459  H     0.84456   0.56755   0.97380   0.00000  Uiso   1.00
H1460  H     0.85543   0.42340   0.53404   0.00000  Uiso   1.00
N1461  N     0.83333   0.61736   0.75000   0.00000  Uiso   1.00
N1462  N     0.83333   0.38264   0.75000   0.00000  Uiso   1.00
O1463  O     0.77321   0.53958   0.75000   0.00000  Uiso   1.00
O1464  O     0.89345   0.46042   0.75001   0.00000  Uiso   1.00
O1465  O     0.89345   0.53958   0.75001   0.00000  Uiso   1.00
O1466  O     0.77321   0.46042   0.75000   0.00000  Uiso   1.00
O1467  O     0.83333   0.53959   0.68573   0.00000  Uiso   1.00
O1468  O     0.83334   0.46041   0.81427   0.00000  Uiso   1.00
O1469  O     0.83334   0.53959   0.81427   0.00000  Uiso   1.00
O1470  O     0.83333   0.46041   0.68573   0.00000  Uiso   1.00
S1471  S     0.75687   0.38930   0.69263   0.00000  Uiso   1.00
O1472  O     0.72917   0.36824   0.65425   0.00000  Uiso   1.00
O1473  O     0.73258   0.39089   0.72967   0.00000  Uiso   1.00
O1474  O     0.76184   0.44233   0.67130   0.00000  Uiso   1.00
H1475  H     0.73362   0.45501   0.66437   0.00000  Uiso   1.00
S1476  S     0.90389   0.60968   0.81875   0.00000  Uiso   1.00
O1477  O     0.94254   0.62041   0.80114   0.00000  Uiso   1.00
O1478  O     0.90837   0.62669   0.86545   0.00000  Uiso   1.00
O1479  O     0.90528   0.55282   0.82838   0.00000  Uiso   1.00
H1480  H     0.93327   0.54593   0.84489   0.00000  Uiso   1.00
S1481  S     0.89895   0.38579   0.82468   0.00000  Uiso   1.00
O1482  O     0.88745   0.37228   0.86890   0.00000  Uiso   1.00
O1483  O     0.94145   0.36837   0.82438   0.00000  Uiso   1.00
O1484  O     0.90552   0.44256   0.82778   0.00000  Uiso   1.00
H1485  H     0.92296   0.44757   0.85730   0.00000  Uiso   1.00
S1486  S     0.76481   0.61511   0.68063   0.00000  Uiso   1.00
O1487  O     0.72501   0.62642   0.69463   0.00000  Uiso   1.00
O1488  O     0.76556   0.63736   0.63554   0.00000  Uiso   1.00
O1489  O     0.76217   0.55885   0.67121   0.00000  Uiso   1.00
H1490  H     0.73424   0.55357   0.65417   0.00000  Uiso   1.00
S1491  S     0.82703   0.58769   0.59264   0.00000  Uiso   1.00
O1492  O     0.78318   0.57285   0.58987   0.00000  Uiso   1.00
O1493  O     0.84253   0.61306   0.63459   0.00000  Uiso   1.00
O1494  O     0.83013   0.62179   0.54744   0.00000  Uiso   1.00
H1495  H     0.80579   0.64209   0.54395   0.00000  Uiso   1.00
S1496  S     0.81450   0.40527   0.90200   0.00000  Uiso   1.00
O1497  O     0.80414   0.39260   0.85370   0.00000  Uiso   1.00
O1498  O     0.83537   0.36518   0.92896   0.00000  Uiso   1.00
O1499  O     0.77078   0.41578   0.92115   0.00000  Uiso   1.00
H1500  H     0.75635   0.38591   0.92048   0.00000  Uiso   1.00
S1501  S     0.79947   0.58152   0.88898   0.00000  Uiso   1.00
O1502  O     0.81791   0.61455   0.85907   0.00000  Uiso   1.00
O1503  O     0.76254   0.55908   0.86276   0.00000  Uiso   1.00
O1504  O     0.78497   0.61082   0.93062   0.00000  Uiso   1.00
H1505  H     0.76694   0.58954   0.94441   0.00000  Uiso   1.00
S1506  S     0.84628   0.39732   0.61738   0.00000  Uiso   1.00
O1507  O     0.86369   0.38902   0.66597   0.00000  Uiso   1.00
O1508  O     0.80138   0.38607   0.60905   0.00000  Uiso   1.00
O1509  O     0.87053   0.36093   0.58879   0.00000  Uiso   1.00
H1510  H     0.90017   0.36674   0.59894   0.00000  Uiso   1.00
S1511  S     0.70393   0.43375   0.81503   0.00000  Uiso   1.00
O1512  O     0.74209   0.45646   0.83852   0.00000  Uiso   1.00
O1513  O     0.67093   0.43845   0.84301   0.00000  Uiso   1.00
O1514  O     0.71272   0.37771   0.80973   0.00000  Uiso   1.00
H1515  H     0.71825   0.36474   0.84080   0.00000  Uiso   1.00
S1516  S     0.95063   0.58040   0.69165   0.00000  Uiso   1.00
O1517  O     0.91954   0.55439   0.66030   0.00000  Uiso   1.00
O1518  O     0.92885   0.61719   0.71189   0.00000  Uiso   1.00
O1519  O     0.98321   0.60517   0.66148   0.00000  Uiso   1.00
H1520  H     0.99149   0.58030   0.64338   0.00000  Uiso   1.00
S1521  S     0.95916   0.41454   0.71113   0.00000  Uiso   1.00
O1522  O     0.99171   0.38533   0.69773   0.00000  Uiso   1.00
O1523  O     0.93167   0.38390   0.73326   0.00000  Uiso   1.00
O1524  O     0.93218   0.43887   0.66423   0.00000  Uiso   1.00
H1525  H     0.95256   0.45643   0.65016   0.00000  Uiso   1.00
S1526  S     0.69988   0.59386   0.77889   0.00000  Uiso   1.00
O1527  O     0.74469   0.60531   0.78531   0.00000  Uiso   1.00
O1528  O     0.67628   0.63505   0.75759   0.00000  Uiso   1.00
O1529  O     0.68648   0.58368   0.82939   0.00000  Uiso   1.00
H1530  H     0.69127   0.61303   0.84504   0.00000  Uiso   1.00
C1531  C     0.08752   0.83378   0.75253   0.00000  Uiso   1.00
C1532  C     0.24516   0.83347   0.74625   0.00000  Uiso   1.00
C1533  C     0.16951   0.83320   0.66473   0.00000  Uiso   1.00
C1534  C     0.16557   0.83241   0.83538   0.00000  Uiso   1.00
C1535  C     0.13689   0.69236   0.72065   0.00000  Uiso   1.00
C1536  C     0.19562   0.97390   0.78058   0.00000  Uiso   1.00
C1537  C     0.19549   0.69092   0.78072   0.00000  Uiso   1.00
C1538  C     0.13777   0.97583   0.72011   0.00000  Uiso   1.00
C1539  C     0.02109   0.79515   0.76239   0.00000  Uiso   1.00
C1540  C     0.30949   0.87453   0.73331   0.00000  Uiso   1.00
C1541  C     0.31208   0.79285   0.74682   0.00000  Uiso   1.00
C1542  C     0.01896   0.87762   0.74658   0.00000  Uiso   1.00
C1543  C     0.20685   0.86802   0.55428   0.00000  Uiso   1.00
C1544  C     0.20021   0.79076   0.95528   0.00000  Uiso   1.00
C1545  C     0.18278   0.87052   0.95601   0.00000  Uiso   1.00
C1546  C     0.19305   0.78814   0.55203   0.00000  Uiso   1.00
C1547  C     0.18816   0.87074   0.59211   0.00000  Uiso   1.00
C1548  C     0.17926   0.78848   0.91101   0.00000  Uiso   1.00
C1549  C     0.16748   0.87057   0.91005   0.00000  Uiso   1.00
C1550  C     0.18584   0.78759   0.59644   0.00000  Uiso   1.00
C1551  C     0.18021   0.83055   0.61743   0.00000  Uiso   1.00
C1552  C     0.16912   0.83009   0.88570   0.00000  Uiso   1.00
C1553  C     0.20306   0.82821   0.52992   0.00000  Uiso   1.00
C1554  C     0.19906   0.83070   0.97966   0.00000  Uiso   1.00
C1555  C     0.28932   0.83363   0.74184   0.00000  Uiso   1.00
C1556  C     0.04230   0.83594   0.75472   0.00000  Uiso   1.00
Cu1557 Cu    0.16667   0.88022   0.75000   0.00000  Uiso   1.00
Cu1558 Cu    0.16667   0.78645   0.75000   0.00000  Uiso   1.00
H1559  H     0.21663   0.89928   0.53912   0.00000  Uiso   1.00
H1560  H     0.21137   0.75915   0.97253   0.00000  Uiso   1.00
H1561  H     0.17789   0.90088   0.97380   0.00000  Uiso   1.00
H1562  H     0.18876   0.75673   0.53404   0.00000  Uiso   1.00
N1563  N     0.16667   0.95069   0.75000   0.00000  Uiso   1.00
N1564  N     0.16667   0.71598   0.75000   0.00000  Uiso   1.00
O1565  O     0.10655   0.87291   0.75000   0.00000  Uiso   1.00
O1566  O     0.22679   0.79375   0.75001   0.00000  Uiso   1.00
O1567  O     0.22679   0.87291   0.75001   0.00000  Uiso   1.00
O1568  O     0.10655   0.79375   0.75000   0.00000  Uiso   1.00
O1569  O     0.16666   0.87293   0.68573   0.00000  Uiso   1.00
O1570  O     0.16667   0.79374   0.81427   0.00000  Uiso   1.00
O1571  O     0.16667   0.87293   0.81427   0.00000  Uiso   1.00
O1572  O     0.16666   0.79374   0.68573   0.00000  Uiso   1.00
S1573  S     0.09020   0.72263   0.69263   0.00000  Uiso   1.00
O1574  O     0.06251   0.70157   0.65425   0.00000  Uiso   1.00
O1575  O     0.06591   0.72423   0.72967   0.00000  Uiso   1.00
O1576  O     0.09518   0.77566   0.67130   0.00000  Uiso   1.00
H1577  H     0.06695   0.78835   0.66437   0.00000  Uiso   1.00
S1578  S     0.23722   0.94301   0.81875   0.00000  Uiso   1.00
O1579  O     0.27588   0.95374   0.80114   0.00000  Uiso   1.00
O1580  O     0.24170   0.96002   0.86545   0.00000  Uiso   1.00
O1581  O     0.23861   0.88615   0.82838   0.00000  Uiso   1.00
H1582  H     0.26660   0.87926   0.84489   0.00000  Uiso   1.00
S1583  S     0.23228   0.71912   0.82468   0.00000  Uiso   1.00
O1584  O     0.22078   0.70561   0.86890   0.00000  Uiso   1.00
O1585  O     0.27478   0.70170   0.82438   0.00000  Uiso   1.00
O1586  O     0.23885   0.77589   0.82778   0.00000  Uiso   1.00
H1587  H     0.25629   0.78090   0.85730   0.00000  Uiso   1.00
S1588  S     0.09814   0.94844   0.68063   0.00000  Uiso   1.00
O1589  O     0.05834   0.95975   0.69463   0.00000  Uiso   1.00
O1590  O     0.09889   0.97069   0.63554   0.00000  Uiso   1.00
O1591  O     0.09550   0.89219   0.67121   0.00000  Uiso   1.00
H1592  H     0.06757   0.88691   0.65417   0.00000  Uiso   1.00
S1593  S     0.16036   0.92103   0.59264   0.00000  Uiso   1.00
O1594  O     0.11651   0.90619   0.58987   0.00000  Uiso   1.00
O1595  O     0.17586   0.94639   0.63459   0.00000  Uiso   1.00
O1596  O     0.16346   0.95513   0.54744   0.00000  Uiso   1.00
H1597  H     0.13912   0.97542   0.54395   0.00000  Uiso   1.00
S1598  S     0.14783   0.73860   0.90200   0.00000  Uiso   1.00
O1599  O     0.13748   0.72594   0.85370   0.00000  Uiso   1.00
O1600  O     0.16871   0.69851   0.92896   0.00000  Uiso   1.00
O1601  O     0.10412   0.74911   0.92115   0.00000  Uiso   1.00
H1602  H     0.08968   0.71925   0.92048   0.00000  Uiso   1.00
S1603  S     0.13280   0.91485   0.88898   0.00000  Uiso   1.00
O1604  O     0.15124   0.94788   0.85907   0.00000  Uiso   1.00
O1605  O     0.09588   0.89241   0.86276   0.00000  Uiso   1.00
O1606  O     0.11830   0.94415   0.93062   0.00000  Uiso   1.00
H1607  H     0.10027   0.92288   0.94441   0.00000  Uiso   1.00
S1608  S     0.17961   0.73065   0.61738   0.00000  Uiso   1.00
O1609  O     0.19702   0.72236   0.66597   0.00000  Uiso   1.00
O1610  O     0.13472   0.71940   0.60905   0.00000  Uiso   1.00
O1611  O     0.20387   0.69427   0.58879   0.00000  Uiso   1.00
H1612  H     0.23351   0.70007   0.59894   0.00000  Uiso   1.00
S1613  S     0.03727   0.76708   0.81503   0.00000  Uiso   1.00
O1614  O     0.07543   0.78979   0.83852   0.00000  Uiso   1.00
O1615  O     0.00426   0.77178   0.84301   0.00000  Uiso   1.00
O1616  O     0.04605   0.71104   0.80973   0.00000  Uiso   1.00
H1617  H     0.05158   0.69807   0.84080   0.00000  Uiso   1.00
S1618  S     0.28396   0.91373   0.69165   0.00000  Uiso   1.00
O1619  O     0.25288   0.88773   0.66030   0.00000  Uiso   1.00
O1620  O     0.26218   0.95052   0.71189   0.00000  Uiso   1.00
O1621  O     0.31655   0.93850   0.66148   0.00000  Uiso   1.00
H1622  H     0.32482   0.91363   0.64338   0.00000  Uiso   1.00
S1623  S     0.29249   0.74787   0.71113   0.00000  Uiso   1.00
O1624  O     0.32504   0.71867   0.69773   0.00000  Uiso   1.00
O1625  O     0.26501   0.71723   0.73326   0.00000  Uiso   1.00
O1626  O     0.26551   0.77220   0.66423   0.00000  Uiso   1.00
H1627  H     0.28590   0.78976   0.65016   0.00000  Uiso   1.00
S1628  S     0.03322   0.92720   0.77889   0.00000  Uiso   1.00
O1629  O     0.07803   0.93865   0.78531   0.00000  Uiso   1.00
O1630  O     0.00961   0.96839   0.75759   0.00000  Uiso   1.00
O1631  O     0.01982   0.91702   0.82939   0.00000  Uiso   1.00
H1632  H     0.02460   0.94637   0.84504   0.00000  Uiso   1.00
C1633  C     0.42086   0.83378   0.75253   0.00000  Uiso   1.00
C1634  C     0.57849   0.83347   0.74625   0.00000  Uiso   1.00
C1635  C     0.50284   0.83320   0.66473   0.00000  Uiso   1.00
C1636  C     0.49890   0.83241   0.83538   0.00000  Uiso   1.00
C1637  C     0.47022   0.69236   0.72065   0.00000  Uiso   1.00
C1638  C     0.52895   0.97390   0.78058   0.00000  Uiso   1.00
C1639  C     0.52883   0.69092   0.78072   0.00000  Uiso   1.00
C1640  C     0.47110   0.97583   0.72011   0.00000  Uiso   1.00
C1641  C     0.35442   0.79515   0.76239   0.00000  Uiso   1.00
C1642  C     0.64283   0.87453   0.73331   0.00000  Uiso   1.00
C1643  C     0.64541   0.79285   0.74682   0.00000  Uiso   1.00
C1644  C     0.35229   0.87762   0.74658   0.00000  Uiso   1.00
C1645  C     0.54018   0.86802   0.55428   0.00000  Uiso   1.00
C1646  C     0.53354   0.79076   0.95528   0.00000  Uiso   1.00
C1647  C     0.51611   0.87052   0.95601   0.00000  Uiso   1.00
C1648  C     0.52638   0.78814   0.55203   0.00000  Uiso   1.00
C1649  C     0.52149   0.87074   0.59211   0.00000  Uiso   1.00
C1650  C     0.51259   0.78848   0.91101   0.00000  Uiso   1.00
C1651  C     0.50081   0.87057   0.91005   0.00000  Uiso   1.00
C1652  C     0.51917   0.78759   0.59644   0.00000  Uiso   1.00
C1653  C     0.51354   0.83055   0.61743   0.00000  Uiso   1.00
C1654  C     0.50246   0.83009   0.88570   0.00000  Uiso   1.00
C1655  C     0.53639   0.82821   0.52992   0.00000  Uiso   1.00
C1656  C     0.53239   0.83070   0.97966   0.00000  Uiso   1.00
C1657  C     0.62266   0.83363   0.74184   0.00000  Uiso   1.00
C1658  C     0.37563   0.83594   0.75472   0.00000  Uiso   1.00
Cu1659 Cu    0.50000   0.88022   0.75000   0.00000  Uiso   1.00
Cu1660 Cu    0.50000   0.78645   0.75000   0.00000  Uiso   1.00
H1661  H     0.54996   0.89928   0.53912   0.00000  Uiso   1.00
H1662  H     0.54470   0.75915   0.97253   0.00000  Uiso   1.00
H1663  H     0.51122   0.90088   0.97380   0.00000  Uiso   1.00
H1664  H     0.52210   0.75673   0.53404   0.00000  Uiso   1.00
N1665  N     0.50000   0.95069   0.75000   0.00000  Uiso   1.00
N1666  N     0.50000   0.71598   0.75000   0.00000  Uiso   1.00
O1667  O     0.43988   0.87291   0.75000   0.00000  Uiso   1.00
O1668  O     0.56012   0.79375   0.75001   0.00000  Uiso   1.00
O1669  O     0.56012   0.87291   0.75001   0.00000  Uiso   1.00
O1670  O     0.43988   0.79375   0.75000   0.00000  Uiso   1.00
O1671  O     0.50000   0.87293   0.68573   0.00000  Uiso   1.00
O1672  O     0.50000   0.79374   0.81427   0.00000  Uiso   1.00
O1673  O     0.50000   0.87293   0.81427   0.00000  Uiso   1.00
O1674  O     0.50000   0.79374   0.68573   0.00000  Uiso   1.00
S1675  S     0.42353   0.72263   0.69263   0.00000  Uiso   1.00
O1676  O     0.39584   0.70157   0.65425   0.00000  Uiso   1.00
O1677  O     0.39925   0.72423   0.72967   0.00000  Uiso   1.00
O1678  O     0.42851   0.77566   0.67130   0.00000  Uiso   1.00
H1679  H     0.40029   0.78835   0.66437   0.00000  Uiso   1.00
S1680  S     0.57056   0.94301   0.81875   0.00000  Uiso   1.00
O1681  O     0.60921   0.95374   0.80114   0.00000  Uiso   1.00
O1682  O     0.57503   0.96002   0.86545   0.00000  Uiso   1.00
O1683  O     0.57195   0.88615   0.82838   0.00000  Uiso   1.00
H1684  H     0.59994   0.87926   0.84489   0.00000  Uiso   1.00
S1685  S     0.56562   0.71912   0.82468   0.00000  Uiso   1.00
O1686  O     0.55412   0.70561   0.86890   0.00000  Uiso   1.00
O1687  O     0.60812   0.70170   0.82438   0.00000  Uiso   1.00
O1688  O     0.57219   0.77589   0.82778   0.00000  Uiso   1.00
H1689  H     0.58963   0.78090   0.85730   0.00000  Uiso   1.00
S1690  S     0.43148   0.94844   0.68063   0.00000  Uiso   1.00
O1691  O     0.39168   0.95975   0.69463   0.00000  Uiso   1.00
O1692  O     0.43222   0.97069   0.63554   0.00000  Uiso   1.00
O1693  O     0.42883   0.89219   0.67121   0.00000  Uiso   1.00
H1694  H     0.40090   0.88691   0.65417   0.00000  Uiso   1.00
S1695  S     0.49370   0.92103   0.59264   0.00000  Uiso   1.00
O1696  O     0.44985   0.90619   0.58987   0.00000  Uiso   1.00
O1697  O     0.50920   0.94639   0.63459   0.00000  Uiso   1.00
O1698  O     0.49680   0.95513   0.54744   0.00000  Uiso   1.00
H1699  H     0.47246   0.97542   0.54395   0.00000  Uiso   1.00
S1700  S     0.48116   0.73860   0.90200   0.00000  Uiso   1.00
O1701  O     0.47081   0.72594   0.85370   0.00000  Uiso   1.00
O1702  O     0.50204   0.69851   0.92896   0.00000  Uiso   1.00
O1703  O     0.43745   0.74911   0.92115   0.00000  Uiso   1.00
H1704  H     0.42301   0.71925   0.92048   0.00000  Uiso   1.00
S1705  S     0.46614   0.91485   0.88898   0.00000  Uiso   1.00
O1706  O     0.48458   0.94788   0.85907   0.00000  Uiso   1.00
O1707  O     0.42921   0.89241   0.86276   0.00000  Uiso   1.00
O1708  O     0.45163   0.94415   0.93062   0.00000  Uiso   1.00
H1709  H     0.43361   0.92288   0.94441   0.00000  Uiso   1.00
S1710  S     0.51295   0.73065   0.61738   0.00000  Uiso   1.00
O1711  O     0.53036   0.72236   0.66597   0.00000  Uiso   1.00
O1712  O     0.46805   0.71940   0.60905   0.00000  Uiso   1.00
O1713  O     0.53720   0.69427   0.58879   0.00000  Uiso   1.00
H1714  H     0.56684   0.70007   0.59894   0.00000  Uiso   1.00
S1715  S     0.37060   0.76708   0.81503   0.00000  Uiso   1.00
O1716  O     0.40876   0.78979   0.83852   0.00000  Uiso   1.00
O1717  O     0.33759   0.77178   0.84301   0.00000  Uiso   1.00
O1718  O     0.37939   0.71104   0.80973   0.00000  Uiso   1.00
H1719  H     0.38492   0.69807   0.84080   0.00000  Uiso   1.00
S1720  S     0.61730   0.91373   0.69165   0.00000  Uiso   1.00
O1721  O     0.58621   0.88773   0.66030   0.00000  Uiso   1.00
O1722  O     0.59551   0.95052   0.71189   0.00000  Uiso   1.00
O1723  O     0.64988   0.93850   0.66148   0.00000  Uiso   1.00
H1724  H     0.65815   0.91363   0.64338   0.00000  Uiso   1.00
S1725  S     0.62582   0.74787   0.71113   0.00000  Uiso   1.00
O1726  O     0.65837   0.71867   0.69773   0.00000  Uiso   1.00
O1727  O     0.59834   0.71723   0.73326   0.00000  Uiso   1.00
O1728  O     0.59885   0.77220   0.66423   0.00000  Uiso   1.00
H1729  H     0.61923   0.78976   0.65016   0.00000  Uiso   1.00
S1730  S     0.36655   0.92720   0.77889   0.00000  Uiso   1.00
O1731  O     0.41136   0.93865   0.78531   0.00000  Uiso   1.00
O1732  O     0.34294   0.96839   0.75759   0.00000  Uiso   1.00
O1733  O     0.35315   0.91702   0.82939   0.00000  Uiso   1.00
H1734  H     0.35794   0.94637   0.84504   0.00000  Uiso   1.00
C1735  C     0.75419   0.83378   0.75253   0.00000  Uiso   1.00
C1736  C     0.91183   0.83347   0.74625   0.00000  Uiso   1.00
C1737  C     0.83617   0.83320   0.66473   0.00000  Uiso   1.00
C1738  C     0.83223   0.83241   0.83538   0.00000  Uiso   1.00
C1739  C     0.80356   0.69236   0.72065   0.00000  Uiso   1.00
C1740  C     0.86229   0.97390   0.78058   0.00000  Uiso   1.00
C1741  C     0.86216   0.69092   0.78072   0.00000  Uiso   1.00
C1742  C     0.80444   0.97583   0.72011   0.00000  Uiso   1.00
C1743  C     0.68775   0.79515   0.76239   0.00000  Uiso   1.00
C1744  C     0.97616   0.87453   0.73331   0.00000  Uiso   1.00
C1745  C     0.97874   0.79285   0.74682   0.00000  Uiso   1.00
C1746  C     0.68562   0.87762   0.74658   0.00000  Uiso   1.00
C1747  C     0.87352   0.86802   0.55428   0.00000  Uiso   1.00
C1748  C     0.86687   0.79076   0.95528   0.00000  Uiso   1.00
C1749  C     0.84944   0.87052   0.95601   0.00000  Uiso   1.00
C1750  C     0.85972   0.78814   0.55203   0.00000  Uiso   1.00
C1751  C     0.85483   0.87074   0.59211   0.00000  Uiso   1.00
C1752  C     0.84592   0.78848   0.91101   0.00000  Uiso   1.00
C1753  C     0.83414   0.87057   0.91005   0.00000  Uiso   1.00
C1754  C     0.85251   0.78759   0.59644   0.00000  Uiso   1.00
C1755  C     0.84687   0.83055   0.61743   0.00000  Uiso   1.00
C1756  C     0.83579   0.83009   0.88570   0.00000  Uiso   1.00
C1757  C     0.86973   0.82821   0.52992   0.00000  Uiso   1.00
C1758  C     0.86573   0.83070   0.97966   0.00000  Uiso   1.00
C1759  C     0.95599   0.83363   0.74184   0.00000  Uiso   1.00
C1760  C     0.70896   0.83594   0.75472   0.00000  Uiso   1.00
Cu1761 Cu    0.83333   0.88022   0.75000   0.00000  Uiso   1.00
Cu1762 Cu    0.83333   0.78645   0.75000   0.00000  Uiso   1.00
H1763  H     0.88329   0.89928   0.53912   0.00000  Uiso   1.00
H1764  H     0.87803   0.75915   0.97253   0.00000  Uiso   1.00
H1765  H     0.84456   0.90088   0.97380   0.00000  Uiso   1.00
H1766  H     0.85543   0.75673   0.53404   0.00000  Uiso   1.00
N1767  N     0.83333   0.95069   0.75000   0.00000  Uiso   1.00
N1768  N     0.83333   0.71598   0.75000   0.00000  Uiso   1.00
O1769  O     0.77321   0.87291   0.75000   0.00000  Uiso   1.00
O1770  O     0.89345   0.79375   0.75001   0.00000  Uiso   1.00
O1771  O     0.89345   0.87291   0.75001   0.00000  Uiso   1.00
O1772  O     0.77321   0.79375   0.75000   0.00000  Uiso   1.00
O1773  O     0.83333   0.87293   0.68573   0.00000  Uiso   1.00
O1774  O     0.83334   0.79374   0.81427   0.00000  Uiso   1.00
O1775  O     0.83334   0.87293   0.81427   0.00000  Uiso   1.00
O1776  O     0.83333   0.79374   0.68573   0.00000  Uiso   1.00
S1777  S     0.75687   0.72263   0.69263   0.00000  Uiso   1.00
O1778  O     0.72917   0.70157   0.65425   0.00000  Uiso   1.00
O1779  O     0.73258   0.72423   0.72967   0.00000  Uiso   1.00
O1780  O     0.76184   0.77566   0.67130   0.00000  Uiso   1.00
H1781  H     0.73362   0.78835   0.66437   0.00000  Uiso   1.00
S1782  S     0.90389   0.94301   0.81875   0.00000  Uiso   1.00
O1783  O     0.94254   0.95374   0.80114   0.00000  Uiso   1.00
O1784  O     0.90837   0.96002   0.86545   0.00000  Uiso   1.00
O1785  O     0.90528   0.88615   0.82838   0.00000  Uiso   1.00
H1786  H     0.93327   0.87926   0.84489   0.00000  Uiso   1.00
S1787  S     0.89895   0.71912   0.82468   0.00000  Uiso   1.00
O1788  O     0.88745   0.70561   0.86890   0.00000  Uiso   1.00
O1789  O     0.94145   0.70170   0.82438   0.00000  Uiso   1.00
O1790  O     0.90552   0.77589   0.82778   0.00000  Uiso   1.00
H1791  H     0.92296   0.78090   0.85730   0.00000  Uiso   1.00
S1792  S     0.76481   0.94844   0.68063   0.00000  Uiso   1.00
O1793  O     0.72501   0.95975   0.69463   0.00000  Uiso   1.00
O1794  O     0.76556   0.97069   0.63554   0.00000  Uiso   1.00
O1795  O     0.76217   0.89219   0.67121   0.00000  Uiso   1.00
H1796  H     0.73424   0.88691   0.65417   0.00000  Uiso   1.00
S1797  S     0.82703   0.92103   0.59264   0.00000  Uiso   1.00
O1798  O     0.78318   0.90619   0.58987   0.00000  Uiso   1.00
O1799  O     0.84253   0.94639   0.63459   0.00000  Uiso   1.00
O1800  O     0.83013   0.95513   0.54744   0.00000  Uiso   1.00
H1801  H     0.80579   0.97542   0.54395   0.00000  Uiso   1.00
S1802  S     0.81450   0.73860   0.90200   0.00000  Uiso   1.00
O1803  O     0.80414   0.72594   0.85370   0.00000  Uiso   1.00
O1804  O     0.83537   0.69851   0.92896   0.00000  Uiso   1.00
O1805  O     0.77078   0.74911   0.92115   0.00000  Uiso   1.00
H1806  H     0.75635   0.71925   0.92048   0.00000  Uiso   1.00
S1807  S     0.79947   0.91485   0.88898   0.00000  Uiso   1.00
O1808  O     0.81791   0.94788   0.85907   0.00000  Uiso   1.00
O1809  O     0.76254   0.89241   0.86276   0.00000  Uiso   1.00
O1810  O     0.78497   0.94415   0.93062   0.00000  Uiso   1.00
H1811  H     0.76694   0.92288   0.94441   0.00000  Uiso   1.00
S1812  S     0.84628   0.73065   0.61738   0.00000  Uiso   1.00
O1813  O     0.86369   0.72236   0.66597   0.00000  Uiso   1.00
O1814  O     0.80138   0.71940   0.60905   0.00000  Uiso   1.00
O1815  O     0.87053   0.69427   0.58879   0.00000  Uiso   1.00
H1816  H     0.90017   0.70007   0.59894   0.00000  Uiso   1.00
S1817  S     0.70393   0.76708   0.81503   0.00000  Uiso   1.00
O1818  O     0.74209   0.78979   0.83852   0.00000  Uiso   1.00
O1819  O     0.67093   0.77178   0.84301   0.00000  Uiso   1.00
O1820  O     0.71272   0.71104   0.80973   0.00000  Uiso   1.00
H1821  H     0.71825   0.69807   0.84080   0.00000  Uiso   1.00
S1822  S     0.95063   0.91373   0.69165   0.00000  Uiso   1.00
O1823  O     0.91954   0.88773   0.66030   0.00000  Uiso   1.00
O1824  O     0.92885   0.95052   0.71189   0.00000  Uiso   1.00
O1825  O     0.98321   0.93850   0.66148   0.00000  Uiso   1.00
H1826  H     0.99149   0.91363   0.64338   0.00000  Uiso   1.00
S1827  S     0.95916   0.74787   0.71113   0.00000  Uiso   1.00
O1828  O     0.99171   0.71867   0.69773   0.00000  Uiso   1.00
O1829  O     0.93167   0.71723   0.73326   0.00000  Uiso   1.00
O1830  O     0.93218   0.77220   0.66423   0.00000  Uiso   1.00
H1831  H     0.95256   0.78976   0.65016   0.00000  Uiso   1.00
S1832  S     0.69988   0.92720   0.77889   0.00000  Uiso   1.00
O1833  O     0.74469   0.93865   0.78531   0.00000  Uiso   1.00
O1834  O     0.67628   0.96839   0.75759   0.00000  Uiso   1.00
O1835  O     0.68648   0.91702   0.82939   0.00000  Uiso   1.00
H1836  H     0.69127   0.94637   0.84504   0.00000  Uiso   1.00
loop_
_geom_bond_atom_site_label_1
_geom_bond_atom_site_label_2
_geom_bond_distance
_geom_bond_site_symmetry_2
_ccdc_geom_bond_type
C1     O38     1.340   .     A
C1     C26     1.511   .     S
C1     O35     1.308   .     A
C2     O36     1.317   .     A
C2     O37     1.321   .     A
C2     C25     1.490   .     S
C3     O42     1.308   .     A
C3     C21     1.538   .     S
C3     O39     1.351   .     A
C4     O41     1.329   .     A
C4     O40     1.318   .     A
C4     C22     1.507   .     S
C5     S43     1.843   .     S
C5     N34     1.401   .     A
C5     C620    1.456   1_545 S
C6     S48     1.854   .     S
C6     N33     1.400   .     A
C6     C313    1.469   .     S
C7     S53     1.852   .     S
C7     N34     1.402   .     A
C7     C618    1.469   1_545 S
C8     S58     1.815   .     S
C8     N33     1.391   .     A
C8     C311    1.456   .     S
C9     C26     1.412   .     A
C9     S83     1.767   .     S
C9     C215    1.400   1_455 S
C10    S88     1.778   .     S
C10    C25     1.403   .     A
C10    C114    1.406   .     S
C11    S93     1.774   .     S
C11    C25     1.401   .     A
C11    C111    1.400   .     S
C12    S98     1.787   .     S
C12    C26     1.435   .     A
C12    C214    1.406   1_455 S
C13    H29     1.081   .     S
C13    C23     1.390   .     A
C13    C17     1.397   .     A
C14    C18     1.402   .     A
C14    C24     1.403   .     A
C14    H30     1.080   .     S
C15    C19     1.396   .     A
C15    C24     1.404   .     A
C15    H31     1.078   .     S
C16    C20     1.405   .     A
C16    H32     1.077   .     S
C16    C23     1.395   .     A
C17    C21     1.429   .     A
C17    S63     1.737   .     S
C18    S68     1.785   .     S
C18    C22     1.425   .     A
C19    S73     1.761   .     S
C19    C22     1.418   .     A
C20    C21     1.450   .     A
C20    S78     1.783   .     S
C23    C942    1.504   1_554 S
C24    C941    1.504   .     S
Cu27   N33     2.056   .     S
Cu27   O39     1.964   .     S
Cu27   O35     1.999   .     S
Cu27   O41     1.951   .     S
Cu27   O37     2.001   .     S
Cu27   Cu28    2.736   .     S
Cu28   O40     1.964   .     S
Cu28   N34     2.056   .     S
Cu28   O38     2.001   .     S
Cu28   O42     1.951   .     S
Cu28   O36     1.999   .     S
S43    O44     1.496   .     D
S43    O45     1.491   .     D
S43    O46     1.676   .     S
O46    H47     0.992   .     S
S48    O51     1.675   .     S
S48    O50     1.496   .     D
S48    O49     1.497   .     D
O51    H52     0.991   .     S
S53    O54     1.495   .     D
S53    O55     1.499   .     D
S53    O56     1.673   .     S
O56    H57     0.991   .     S
S58    O61     1.674   .     S
S58    O59     1.493   .     D
S58    O60     1.497   .     D
O61    H62     0.991   .     S
S63    O65     1.501   .     D
S63    O66     1.683   .     S
S63    O64     1.501   .     D
O66    H67     0.991   .     S
S68    O69     1.501   .     D
S68    O71     1.681   .     S
S68    O70     1.504   .     D
O71    H72     0.991   .     S
S73    O74     1.500   .     D
S73    O75     1.497   .     D
S73    O76     1.683   .     S
O76    H77     0.991   .     S
S78    O81     1.681   .     S
S78    O80     1.499   .     D
S78    O79     1.497   .     D
O81    H82     0.991   .     S
S83    O84     1.500   .     D
S83    O85     1.503   .     D
S83    O86     1.679   .     S
O86    H87     0.990   .     S
S88    O91     1.676   .     S
S88    O90     1.500   .     D
S88    O89     1.495   .     D
O91    H92     0.991   .     S
S93    O94     1.494   .     D
S93    O95     1.497   .     D
S93    O96     1.679   .     S
O96    H97     0.990   .     S
S98    O100    1.502   .     D
S98    O101    1.681   .     S
S98    O99     1.499   .     D
O101   H102    0.991   .     S
C103   O140    1.340   .     A
C103   C128    1.511   .     S
C103   O137    1.308   .     A
C104   O138    1.317   .     A
C104   O139    1.321   .     A
C104   C127    1.490   .     S
C105   O144    1.308   .     A
C105   C123    1.538   .     S
C105   O141    1.351   .     A
C106   O143    1.329   .     A
C106   O142    1.318   .     A
C106   C124    1.507   .     S
C107   S145    1.843   .     S
C107   N136    1.401   .     A
C107   C722    1.456   1_545 S
C108   S150    1.854   .     S
C108   N135    1.400   .     A
C108   C415    1.469   .     S
C109   S155    1.852   .     S
C109   N136    1.402   .     A
C109   C720    1.469   1_545 S
C110   S160    1.815   .     S
C110   N135    1.391   .     A
C110   C413    1.456   .     S
C111   C128    1.412   .     A
C111   S185    1.767   .     S
C112   S190    1.778   .     S
C112   C127    1.403   .     A
C112   C216    1.406   .     S
C113   S195    1.774   .     S
C113   C127    1.401   .     A
C113   C213    1.400   .     S
C114   S200    1.787   .     S
C114   C128    1.435   .     A
C115   H131    1.081   .     S
C115   C125    1.390   .     A
C115   C119    1.397   .     A
C116   C120    1.402   .     A
C116   C126    1.403   .     A
C116   H132    1.080   .     S
C117   C121    1.396   .     A
C117   C126    1.404   .     A
C117   H133    1.078   .     S
C118   C122    1.405   .     A
C118   H134    1.077   .     S
C118   C125    1.395   .     A
C119   C123    1.429   .     A
C119   S165    1.737   .     S
C120   S170    1.785   .     S
C120   C124    1.425   .     A
C121   S175    1.761   .     S
C121   C124    1.418   .     A
C122   C123    1.450   .     A
C122   S180    1.783   .     S
C125   C1044   1.504   1_554 S
C126   C1043   1.504   .     S
Cu129  N135    2.056   .     S
Cu129  O141    1.964   .     S
Cu129  O137    1.999   .     S
Cu129  O143    1.951   .     S
Cu129  O139    2.001   .     S
Cu129  Cu130   2.736   .     S
Cu130  O142    1.964   .     S
Cu130  N136    2.056   .     S
Cu130  O140    2.001   .     S
Cu130  O144    1.951   .     S
Cu130  O138    1.999   .     S
S145   O146    1.496   .     D
S145   O147    1.491   .     D
S145   O148    1.676   .     S
O148   H149    0.992   .     S
S150   O153    1.675   .     S
S150   O152    1.496   .     D
S150   O151    1.497   .     D
O153   H154    0.991   .     S
S155   O156    1.495   .     D
S155   O157    1.499   .     D
S155   O158    1.673   .     S
O158   H159    0.991   .     S
S160   O163    1.674   .     S
S160   O161    1.493   .     D
S160   O162    1.497   .     D
O163   H164    0.991   .     S
S165   O167    1.501   .     D
S165   O168    1.683   .     S
S165   O166    1.501   .     D
O168   H169    0.991   .     S
S170   O171    1.501   .     D
S170   O173    1.681   .     S
S170   O172    1.504   .     D
O173   H174    0.991   .     S
S175   O176    1.500   .     D
S175   O177    1.497   .     D
S175   O178    1.683   .     S
O178   H179    0.991   .     S
S180   O183    1.681   .     S
S180   O182    1.499   .     D
S180   O181    1.497   .     D
O183   H184    0.991   .     S
S185   O186    1.500   .     D
S185   O187    1.503   .     D
S185   O188    1.679   .     S
O188   H189    0.990   .     S
S190   O193    1.676   .     S
S190   O192    1.500   .     D
S190   O191    1.495   .     D
O193   H194    0.991   .     S
S195   O196    1.494   .     D
S195   O197    1.497   .     D
S195   O198    1.679   .     S
O198   H199    0.990   .     S
S200   O202    1.502   .     D
S200   O203    1.681   .     S
S200   O201    1.499   .     D
O203   H204    0.991   .     S
C205   O242    1.340   .     A
C205   C230    1.511   .     S
C205   O239    1.308   .     A
C206   O240    1.317   .     A
C206   O241    1.321   .     A
C206   C229    1.490   .     S
C207   O246    1.308   .     A
C207   C225    1.538   .     S
C207   O243    1.351   .     A
C208   O245    1.329   .     A
C208   O244    1.318   .     A
C208   C226    1.507   .     S
C209   S247    1.843   .     S
C209   N238    1.401   .     A
C209   C824    1.456   1_545 S
C210   S252    1.854   .     S
C210   N237    1.400   .     A
C210   C517    1.469   .     S
C211   S257    1.852   .     S
C211   N238    1.402   .     A
C211   C822    1.469   1_545 S
C212   S262    1.815   .     S
C212   N237    1.391   .     A
C212   C515    1.456   .     S
C213   C230    1.412   .     A
C213   S287    1.767   .     S
C214   S292    1.778   .     S
C214   C229    1.403   .     A
C214   C12     1.406   1_655 S
C215   S297    1.774   .     S
C215   C229    1.401   .     A
C215   C9      1.400   1_655 S
C216   S302    1.787   .     S
C216   C230    1.435   .     A
C217   H233    1.081   .     S
C217   C227    1.390   .     A
C217   C221    1.397   .     A
C218   C222    1.402   .     A
C218   C228    1.403   .     A
C218   H234    1.080   .     S
C219   C223    1.396   .     A
C219   C228    1.404   .     A
C219   H235    1.078   .     S
C220   C224    1.405   .     A
C220   H236    1.077   .     S
C220   C227    1.395   .     A
C221   C225    1.429   .     A
C221   S267    1.737   .     S
C222   S272    1.785   .     S
C222   C226    1.425   .     A
C223   S277    1.761   .     S
C223   C226    1.418   .     A
C224   C225    1.450   .     A
C224   S282    1.783   .     S
C227   C1146   1.504   1_554 S
C228   C1145   1.504   .     S
Cu231  N237    2.056   .     S
Cu231  O243    1.964   .     S
Cu231  O239    1.999   .     S
Cu231  O245    1.951   .     S
Cu231  O241    2.001   .     S
Cu231  Cu232   2.736   .     S
Cu232  O244    1.964   .     S
Cu232  N238    2.056   .     S
Cu232  O242    2.001   .     S
Cu232  O246    1.951   .     S
Cu232  O240    1.999   .     S
S247   O248    1.496   .     D
S247   O249    1.491   .     D
S247   O250    1.676   .     S
O250   H251    0.992   .     S
S252   O255    1.675   .     S
S252   O254    1.496   .     D
S252   O253    1.497   .     D
O255   H256    0.991   .     S
S257   O258    1.495   .     D
S257   O259    1.499   .     D
S257   O260    1.673   .     S
O260   H261    0.991   .     S
S262   O265    1.674   .     S
S262   O263    1.493   .     D
S262   O264    1.497   .     D
O265   H266    0.991   .     S
S267   O269    1.501   .     D
S267   O270    1.683   .     S
S267   O268    1.501   .     D
O270   H271    0.991   .     S
S272   O273    1.501   .     D
S272   O275    1.681   .     S
S272   O274    1.504   .     D
O275   H276    0.991   .     S
S277   O278    1.500   .     D
S277   O279    1.497   .     D
S277   O280    1.683   .     S
O280   H281    0.991   .     S
S282   O285    1.681   .     S
S282   O284    1.499   .     D
S282   O283    1.497   .     D
O285   H286    0.991   .     S
S287   O288    1.500   .     D
S287   O289    1.503   .     D
S287   O290    1.679   .     S
O290   H291    0.990   .     S
S292   O295    1.676   .     S
S292   O294    1.500   .     D
S292   O293    1.495   .     D
O295   H296    0.991   .     S
S297   O298    1.494   .     D
S297   O299    1.497   .     D
S297   O300    1.679   .     S
O300   H301    0.990   .     S
S302   O304    1.502   .     D
S302   O305    1.681   .     S
S302   O303    1.499   .     D
O305   H306    0.991   .     S
C307   O344    1.340   .     A
C307   C332    1.511   .     S
C307   O341    1.308   .     A
C308   O342    1.317   .     A
C308   O343    1.321   .     A
C308   C331    1.490   .     S
C309   O348    1.308   .     A
C309   C327    1.538   .     S
C309   O345    1.351   .     A
C310   O347    1.329   .     A
C310   O346    1.318   .     A
C310   C328    1.507   .     S
C311   S349    1.843   .     S
C311   N340    1.401   .     A
C312   S354    1.854   .     S
C312   N339    1.400   .     A
C312   C619    1.469   .     S
C313   S359    1.852   .     S
C313   N340    1.402   .     A
C314   S364    1.815   .     S
C314   N339    1.391   .     A
C314   C617    1.456   .     S
C315   C332    1.412   .     A
C315   S389    1.767   .     S
C315   C521    1.400   1_455 S
C316   S394    1.778   .     S
C316   C331    1.403   .     A
C316   C420    1.406   .     S
C317   S399    1.774   .     S
C317   C331    1.401   .     A
C317   C417    1.400   .     S
C318   S404    1.787   .     S
C318   C332    1.435   .     A
C318   C520    1.406   1_455 S
C319   H335    1.081   .     S
C319   C329    1.390   .     A
C319   C323    1.397   .     A
C320   C324    1.402   .     A
C320   C330    1.403   .     A
C320   H336    1.080   .     S
C321   C325    1.396   .     A
C321   C330    1.404   .     A
C321   H337    1.078   .     S
C322   C326    1.405   .     A
C322   H338    1.077   .     S
C322   C329    1.395   .     A
C323   C327    1.429   .     A
C323   S369    1.737   .     S
C324   S374    1.785   .     S
C324   C328    1.425   .     A
C325   S379    1.761   .     S
C325   C328    1.418   .     A
C326   C327    1.450   .     A
C326   S384    1.783   .     S
C329   C1248   1.504   1_554 S
C330   C1247   1.504   .     S
Cu333  N339    2.056   .     S
Cu333  O345    1.964   .     S
Cu333  O341    1.999   .     S
Cu333  O347    1.951   .     S
Cu333  O343    2.001   .     S
Cu333  Cu334   2.736   .     S
Cu334  O346    1.964   .     S
Cu334  N340    2.056   .     S
Cu334  O344    2.001   .     S
Cu334  O348    1.951   .     S
Cu334  O342    1.999   .     S
S349   O350    1.496   .     D
S349   O351    1.491   .     D
S349   O352    1.676   .     S
O352   H353    0.992   .     S
S354   O357    1.675   .     S
S354   O356    1.496   .     D
S354   O355    1.497   .     D
O357   H358    0.991   .     S
S359   O360    1.495   .     D
S359   O361    1.499   .     D
S359   O362    1.673   .     S
O362   H363    0.991   .     S
S364   O367    1.674   .     S
S364   O365    1.493   .     D
S364   O366    1.497   .     D
O367   H368    0.991   .     S
S369   O371    1.501   .     D
S369   O372    1.683   .     S
S369   O370    1.501   .     D
O372   H373    0.991   .     S
S374   O375    1.501   .     D
S374   O377    1.681   .     S
S374   O376    1.504   .     D
O377   H378    0.991   .     S
S379   O380    1.500   .     D
S379   O381    1.497   .     D
S379   O382    1.683   .     S
O382   H383    0.991   .     S
S384   O387    1.681   .     S
S384   O386    1.499   .     D
S384   O385    1.497   .     D
O387   H388    0.991   .     S
S389   O390    1.500   .     D
S389   O391    1.503   .     D
S389   O392    1.679   .     S
O392   H393    0.990   .     S
S394   O397    1.676   .     S
S394   O396    1.500   .     D
S394   O395    1.495   .     D
O397   H398    0.991   .     S
S399   O400    1.494   .     D
S399   O401    1.497   .     D
S399   O402    1.679   .     S
O402   H403    0.990   .     S
S404   O406    1.502   .     D
S404   O407    1.681   .     S
S404   O405    1.499   .     D
O407   H408    0.991   .     S
C409   O446    1.340   .     A
C409   C434    1.511   .     S
C409   O443    1.308   .     A
C410   O444    1.317   .     A
C410   O445    1.321   .     A
C410   C433    1.490   .     S
C411   O450    1.308   .     A
C411   C429    1.538   .     S
C411   O447    1.351   .     A
C412   O449    1.329   .     A
C412   O448    1.318   .     A
C412   C430    1.507   .     S
C413   S451    1.843   .     S
C413   N442    1.401   .     A
C414   S456    1.854   .     S
C414   N441    1.400   .     A
C414   C721    1.469   .     S
C415   S461    1.852   .     S
C415   N442    1.402   .     A
C416   S466    1.815   .     S
C416   N441    1.391   .     A
C416   C719    1.456   .     S
C417   C434    1.412   .     A
C417   S491    1.767   .     S
C418   S496    1.778   .     S
C418   C433    1.403   .     A
C418   C522    1.406   .     S
C419   S501    1.774   .     S
C419   C433    1.401   .     A
C419   C519    1.400   .     S
C420   S506    1.787   .     S
C420   C434    1.435   .     A
C421   H437    1.081   .     S
C421   C431    1.390   .     A
C421   C425    1.397   .     A
C422   C426    1.402   .     A
C422   C432    1.403   .     A
C422   H438    1.080   .     S
C423   C427    1.396   .     A
C423   C432    1.404   .     A
C423   H439    1.078   .     S
C424   C428    1.405   .     A
C424   H440    1.077   .     S
C424   C431    1.395   .     A
C425   C429    1.429   .     A
C425   S471    1.737   .     S
C426   S476    1.785   .     S
C426   C430    1.425   .     A
C427   S481    1.761   .     S
C427   C430    1.418   .     A
C428   C429    1.450   .     A
C428   S486    1.783   .     S
C431   C1350   1.504   1_554 S
C432   C1349   1.504   .     S
Cu435  N441    2.056   .     S
Cu435  O447    1.964   .     S
Cu435  O443    1.999   .     S
Cu435  O449    1.951   .     S
Cu435  O445    2.001   .     S
Cu435  Cu436   2.736   .     S
Cu436  O448    1.964   .     S
Cu436  N442    2.056   .     S
Cu436  O446    2.001   .     S
Cu436  O450    1.951   .     S
Cu436  O444    1.999   .     S
S451   O452    1.496   .     D
S451   O453    1.491   .     D
S451   O454    1.676   .     S
O454   H455    0.992   .     S
S456   O459    1.675   .     S
S456   O458    1.496   .     D
S456   O457    1.497   .     D
O459   H460    0.991   .     S
S461   O462    1.495   .     D
S461   O463    1.499   .     D
S461   O464    1.673   .     S
O464   H465    0.991   .     S
S466   O469    1.674   .     S
S466   O467    1.493   .     D
S466   O468    1.497   .     D
O469   H470    0.991   .     S
S471   O473    1.501   .     D
S471   O474    1.683   .     S
S471   O472    1.501   .     D
O474   H475    0.991   .     S
S476   O477    1.501   .     D
S476   O479    1.681   .     S
S476   O478    1.504   .     D
O479   H480    0.991   .     S
S481   O482    1.500   .     D
S481   O483    1.497   .     D
S481   O484    1.683   .     S
O484   H485    0.991   .     S
S486   O489    1.681   .     S
S486   O488    1.499   .     D
S486   O487    1.497   .     D
O489   H490    0.991   .     S
S491   O492    1.500   .     D
S491   O493    1.503   .     D
S491   O494    1.679   .     S
O494   H495    0.990   .     S
S496   O499    1.676   .     S
S496   O498    1.500   .     D
S496   O497    1.495   .     D
O499   H500    0.991   .     S
S501   O502    1.494   .     D
S501   O503    1.497   .     D
S501   O504    1.679   .     S
O504   H505    0.990   .     S
S506   O508    1.502   .     D
S506   O509    1.681   .     S
S506   O507    1.499   .     D
O509   H510    0.991   .     S
C511   O548    1.340   .     A
C511   C536    1.511   .     S
C511   O545    1.308   .     A
C512   O546    1.317   .     A
C512   O547    1.321   .     A
C512   C535    1.490   .     S
C513   O552    1.308   .     A
C513   C531    1.538   .     S
C513   O549    1.351   .     A
C514   O551    1.329   .     A
C514   O550    1.318   .     A
C514   C532    1.507   .     S
C515   S553    1.843   .     S
C515   N544    1.401   .     A
C516   S558    1.854   .     S
C516   N543    1.400   .     A
C516   C823    1.469   .     S
C517   S563    1.852   .     S
C517   N544    1.402   .     A
C518   S568    1.815   .     S
C518   N543    1.391   .     A
C518   C821    1.456   .     S
C519   C536    1.412   .     A
C519   S593    1.767   .     S
C520   S598    1.778   .     S
C520   C535    1.403   .     A
C520   C318    1.406   1_655 S
C521   S603    1.774   .     S
C521   C535    1.401   .     A
C521   C315    1.400   1_655 S
C522   S608    1.787   .     S
C522   C536    1.435   .     A
C523   H539    1.081   .     S
C523   C533    1.390   .     A
C523   C527    1.397   .     A
C524   C528    1.402   .     A
C524   C534    1.403   .     A
C524   H540    1.080   .     S
C525   C529    1.396   .     A
C525   C534    1.404   .     A
C525   H541    1.078   .     S
C526   C530    1.405   .     A
C526   H542    1.077   .     S
C526   C533    1.395   .     A
C527   C531    1.429   .     A
C527   S573    1.737   .     S
C528   S578    1.785   .     S
C528   C532    1.425   .     A
C529   S583    1.761   .     S
C529   C532    1.418   .     A
C530   C531    1.450   .     A
C530   S588    1.783   .     S
C533   C1452   1.504   1_554 S
C534   C1451   1.504   .     S
Cu537  N543    2.056   .     S
Cu537  O549    1.964   .     S
Cu537  O545    1.999   .     S
Cu537  O551    1.951   .     S
Cu537  O547    2.001   .     S
Cu537  Cu538   2.736   .     S
Cu538  O550    1.964   .     S
Cu538  N544    2.056   .     S
Cu538  O548    2.001   .     S
Cu538  O552    1.951   .     S
Cu538  O546    1.999   .     S
S553   O554    1.496   .     D
S553   O555    1.491   .     D
S553   O556    1.676   .     S
O556   H557    0.992   .     S
S558   O561    1.675   .     S
S558   O560    1.496   .     D
S558   O559    1.497   .     D
O561   H562    0.991   .     S
S563   O564    1.495   .     D
S563   O565    1.499   .     D
S563   O566    1.673   .     S
O566   H567    0.991   .     S
S568   O571    1.674   .     S
S568   O569    1.493   .     D
S568   O570    1.497   .     D
O571   H572    0.991   .     S
S573   O575    1.501   .     D
S573   O576    1.683   .     S
S573   O574    1.501   .     D
O576   H577    0.991   .     S
S578   O579    1.501   .     D
S578   O581    1.681   .     S
S578   O580    1.504   .     D
O581   H582    0.991   .     S
S583   O584    1.500   .     D
S583   O585    1.497   .     D
S583   O586    1.683   .     S
O586   H587    0.991   .     S
S588   O591    1.681   .     S
S588   O590    1.499   .     D
S588   O589    1.497   .     D
O591   H592    0.991   .     S
S593   O594    1.500   .     D
S593   O595    1.503   .     D
S593   O596    1.679   .     S
O596   H597    0.990   .     S
S598   O601    1.676   .     S
S598   O600    1.500   .     D
S598   O599    1.495   .     D
O601   H602    0.991   .     S
S603   O604    1.494   .     D
S603   O605    1.497   .     D
S603   O606    1.679   .     S
O606   H607    0.990   .     S
S608   O610    1.502   .     D
S608   O611    1.681   .     S
S608   O609    1.499   .     D
O611   H612    0.991   .     S
C613   O650    1.340   .     A
C613   C638    1.511   .     S
C613   O647    1.308   .     A
C614   O648    1.317   .     A
C614   O649    1.321   .     A
C614   C637    1.490   .     S
C615   O654    1.308   .     A
C615   C633    1.538   .     S
C615   O651    1.351   .     A
C616   O653    1.329   .     A
C616   O652    1.318   .     A
C616   C634    1.507   .     S
C617   S655    1.843   .     S
C617   N646    1.401   .     A
C618   S660    1.854   .     S
C618   N645    1.400   .     A
C618   C7      1.469   1_565 S
C619   S665    1.852   .     S
C619   N646    1.402   .     A
C620   S670    1.815   .     S
C620   N645    1.391   .     A
C620   C5      1.456   1_565 S
C621   C638    1.412   .     A
C621   S695    1.767   .     S
C621   C827    1.400   1_455 S
C622   S700    1.778   .     S
C622   C637    1.403   .     A
C622   C726    1.406   .     S
C623   S705    1.774   .     S
C623   C637    1.401   .     A
C623   C723    1.400   .     S
C624   S710    1.787   .     S
C624   C638    1.435   .     A
C624   C826    1.406   1_455 S
C625   H641    1.081   .     S
C625   C635    1.390   .     A
C625   C629    1.397   .     A
C626   C630    1.402   .     A
C626   C636    1.403   .     A
C626   H642    1.080   .     S
C627   C631    1.396   .     A
C627   C636    1.404   .     A
C627   H643    1.078   .     S
C628   C632    1.405   .     A
C628   H644    1.077   .     S
C628   C635    1.395   .     A
C629   C633    1.429   .     A
C629   S675    1.737   .     S
C630   S680    1.785   .     S
C630   C634    1.425   .     A
C631   S685    1.761   .     S
C631   C634    1.418   .     A
C632   C633    1.450   .     A
C632   S690    1.783   .     S
C635   C1554   1.504   1_554 S
C636   C1553   1.504   .     S
Cu639  N645    2.056   .     S
Cu639  O651    1.964   .     S
Cu639  O647    1.999   .     S
Cu639  O653    1.951   .     S
Cu639  O649    2.001   .     S
Cu639  Cu640   2.736   .     S
Cu640  O652    1.964   .     S
Cu640  N646    2.056   .     S
Cu640  O650    2.001   .     S
Cu640  O654    1.951   .     S
Cu640  O648    1.999   .     S
S655   O656    1.496   .     D
S655   O657    1.491   .     D
S655   O658    1.676   .     S
O658   H659    0.992   .     S
S660   O663    1.675   .     S
S660   O662    1.496   .     D
S660   O661    1.497   .     D
O663   H664    0.991   .     S
S665   O666    1.495   .     D
S665   O667    1.499   .     D
S665   O668    1.673   .     S
O668   H669    0.991   .     S
S670   O673    1.674   .     S
S670   O671    1.493   .     D
S670   O672    1.497   .     D
O673   H674    0.991   .     S
S675   O677    1.501   .     D
S675   O678    1.683   .     S
S675   O676    1.501   .     D
O678   H679    0.991   .     S
S680   O681    1.501   .     D
S680   O683    1.681   .     S
S680   O682    1.504   .     D
O683   H684    0.991   .     S
S685   O686    1.500   .     D
S685   O687    1.497   .     D
S685   O688    1.683   .     S
O688   H689    0.991   .     S
S690   O693    1.681   .     S
S690   O692    1.499   .     D
S690   O691    1.497   .     D
O693   H694    0.991   .     S
S695   O696    1.500   .     D
S695   O697    1.503   .     D
S695   O698    1.679   .     S
O698   H699    0.990   .     S
S700   O703    1.676   .     S
S700   O702    1.500   .     D
S700   O701    1.495   .     D
O703   H704    0.991   .     S
S705   O706    1.494   .     D
S705   O707    1.497   .     D
S705   O708    1.679   .     S
O708   H709    0.990   .     S
S710   O712    1.502   .     D
S710   O713    1.681   .     S
S710   O711    1.499   .     D
O713   H714    0.991   .     S
C715   O752    1.340   .     A
C715   C740    1.511   .     S
C715   O749    1.308   .     A
C716   O750    1.317   .     A
C716   O751    1.321   .     A
C716   C739    1.490   .     S
C717   O756    1.308   .     A
C717   C735    1.538   .     S
C717   O753    1.351   .     A
C718   O755    1.329   .     A
C718   O754    1.318   .     A
C718   C736    1.507   .     S
C719   S757    1.843   .     S
C719   N748    1.401   .     A
C720   S762    1.854   .     S
C720   N747    1.400   .     A
C720   C109    1.469   1_565 S
C721   S767    1.852   .     S
C721   N748    1.402   .     A
C722   S772    1.815   .     S
C722   N747    1.391   .     A
C722   C107    1.456   1_565 S
C723   C740    1.412   .     A
C723   S797    1.767   .     S
C724   S802    1.778   .     S
C724   C739    1.403   .     A
C724   C828    1.406   .     S
C725   S807    1.774   .     S
C725   C739    1.401   .     A
C725   C825    1.400   .     S
C726   S812    1.787   .     S
C726   C740    1.435   .     A
C727   H743    1.081   .     S
C727   C737    1.390   .     A
C727   C731    1.397   .     A
C728   C732    1.402   .     A
C728   C738    1.403   .     A
C728   H744    1.080   .     S
C729   C733    1.396   .     A
C729   C738    1.404   .     A
C729   H745    1.078   .     S
C730   C734    1.405   .     A
C730   H746    1.077   .     S
C730   C737    1.395   .     A
C731   C735    1.429   .     A
C731   S777    1.737   .     S
C732   S782    1.785   .     S
C732   C736    1.425   .     A
C733   S787    1.761   .     S
C733   C736    1.418   .     A
C734   C735    1.450   .     A
C734   S792    1.783   .     S
C737   C1656   1.504   1_554 S
C738   C1655   1.504   .     S
Cu741  N747    2.056   .     S
Cu741  O753    1.964   .     S
Cu741  O749    1.999   .     S
Cu741  O755    1.951   .     S
Cu741  O751    2.001   .     S
Cu741  Cu742   2.736   .     S
Cu742  O754    1.964   .     S
Cu742  N748    2.056   .     S
Cu742  O752    2.001   .     S
Cu742  O756    1.951   .     S
Cu742  O750    1.999   .     S
S757   O758    1.496   .     D
S757   O759    1.491   .     D
S757   O760    1.676   .     S
O760   H761    0.992   .     S
S762   O765    1.675   .     S
S762   O764    1.496   .     D
S762   O763    1.497   .     D
O765   H766    0.991   .     S
S767   O768    1.495   .     D
S767   O769    1.499   .     D
S767   O770    1.673   .     S
O770   H771    0.991   .     S
S772   O775    1.674   .     S
S772   O773    1.493   .     D
S772   O774    1.497   .     D
O775   H776    0.991   .     S
S777   O779    1.501   .     D
S777   O780    1.683   .     S
S777   O778    1.501   .     D
O780   H781    0.991   .     S
S782   O783    1.501   .     D
S782   O785    1.681   .     S
S782   O784    1.504   .     D
O785   H786    0.991   .     S
S787   O788    1.500   .     D
S787   O789    1.497   .     D
S787   O790    1.683   .     S
O790   H791    0.991   .     S
S792   O795    1.681   .     S
S792   O794    1.499   .     D
S792   O793    1.497   .     D
O795   H796    0.991   .     S
S797   O798    1.500   .     D
S797   O799    1.503   .     D
S797   O800    1.679   .     S
O800   H801    0.990   .     S
S802   O805    1.676   .     S
S802   O804    1.500   .     D
S802   O803    1.495   .     D
O805   H806    0.991   .     S
S807   O808    1.494   .     D
S807   O809    1.497   .     D
S807   O810    1.679   .     S
O810   H811    0.990   .     S
S812   O814    1.502   .     D
S812   O815    1.681   .     S
S812   O813    1.499   .     D
O815   H816    0.991   .     S
C817   O854    1.340   .     A
C817   C842    1.511   .     S
C817   O851    1.308   .     A
C818   O852    1.317   .     A
C818   O853    1.321   .     A
C818   C841    1.490   .     S
C819   O858    1.308   .     A
C819   C837    1.538   .     S
C819   O855    1.351   .     A
C820   O857    1.329   .     A
C820   O856    1.318   .     A
C820   C838    1.507   .     S
C821   S859    1.843   .     S
C821   N850    1.401   .     A
C822   S864    1.854   .     S
C822   N849    1.400   .     A
C822   C211    1.469   1_565 S
C823   S869    1.852   .     S
C823   N850    1.402   .     A
C824   S874    1.815   .     S
C824   N849    1.391   .     A
C824   C209    1.456   1_565 S
C825   C842    1.412   .     A
C825   S899    1.767   .     S
C826   S904    1.778   .     S
C826   C841    1.403   .     A
C826   C624    1.406   1_655 S
C827   S909    1.774   .     S
C827   C841    1.401   .     A
C827   C621    1.400   1_655 S
C828   S914    1.787   .     S
C828   C842    1.435   .     A
C829   H845    1.081   .     S
C829   C839    1.390   .     A
C829   C833    1.397   .     A
C830   C834    1.402   .     A
C830   C840    1.403   .     A
C830   H846    1.080   .     S
C831   C835    1.396   .     A
C831   C840    1.404   .     A
C831   H847    1.078   .     S
C832   C836    1.405   .     A
C832   H848    1.077   .     S
C832   C839    1.395   .     A
C833   C837    1.429   .     A
C833   S879    1.737   .     S
C834   S884    1.785   .     S
C834   C838    1.425   .     A
C835   S889    1.761   .     S
C835   C838    1.418   .     A
C836   C837    1.450   .     A
C836   S894    1.783   .     S
C839   C1758   1.504   1_554 S
C840   C1757   1.504   .     S
Cu843  N849    2.056   .     S
Cu843  O855    1.964   .     S
Cu843  O851    1.999   .     S
Cu843  O857    1.951   .     S
Cu843  O853    2.001   .     S
Cu843  Cu844   2.736   .     S
Cu844  O856    1.964   .     S
Cu844  N850    2.056   .     S
Cu844  O854    2.001   .     S
Cu844  O858    1.951   .     S
Cu844  O852    1.999   .     S
S859   O860    1.496   .     D
S859   O861    1.491   .     D
S859   O862    1.676   .     S
O862   H863    0.992   .     S
S864   O867    1.675   .     S
S864   O866    1.496   .     D
S864   O865    1.497   .     D
O867   H868    0.991   .     S
S869   O870    1.495   .     D
S869   O871    1.499   .     D
S869   O872    1.673   .     S
O872   H873    0.991   .     S
S874   O877    1.674   .     S
S874   O875    1.493   .     D
S874   O876    1.497   .     D
O877   H878    0.991   .     S
S879   O881    1.501   .     D
S879   O882    1.683   .     S
S879   O880    1.501   .     D
O882   H883    0.991   .     S
S884   O885    1.501   .     D
S884   O887    1.681   .     S
S884   O886    1.504   .     D
O887   H888    0.991   .     S
S889   O890    1.500   .     D
S889   O891    1.497   .     D
S889   O892    1.683   .     S
O892   H893    0.991   .     S
S894   O897    1.681   .     S
S894   O896    1.499   .     D
S894   O895    1.497   .     D
O897   H898    0.991   .     S
S899   O900    1.500   .     D
S899   O901    1.503   .     D
S899   O902    1.679   .     S
O902   H903    0.990   .     S
S904   O907    1.676   .     S
S904   O906    1.500   .     D
S904   O905    1.495   .     D
O907   H908    0.991   .     S
S909   O910    1.494   .     D
S909   O911    1.497   .     D
S909   O912    1.679   .     S
O912   H913    0.990   .     S
S914   O916    1.502   .     D
S914   O917    1.681   .     S
S914   O915    1.499   .     D
O917   H918    0.991   .     S
C919   O956    1.340   .     A
C919   C944    1.511   .     S
C919   O953    1.308   .     A
C920   O954    1.317   .     A
C920   O955    1.321   .     A
C920   C943    1.490   .     S
C921   O960    1.308   .     A
C921   C939    1.538   .     S
C921   O957    1.351   .     A
C922   O959    1.329   .     A
C922   O958    1.318   .     A
C922   C940    1.507   .     S
C923   S961    1.843   .     S
C923   N952    1.401   .     A
C923   C1538   1.456   1_545 S
C924   S966    1.854   .     S
C924   N951    1.400   .     A
C924   C1231   1.469   .     S
C925   S971    1.852   .     S
C925   N952    1.402   .     A
C925   C1536   1.469   1_545 S
C926   S976    1.815   .     S
C926   N951    1.391   .     A
C926   C1229   1.456   .     S
C927   C944    1.412   .     A
C927   S1001   1.767   .     S
C927   C1133   1.400   1_455 S
C928   S1006   1.778   .     S
C928   C943    1.403   .     A
C928   C1032   1.406   .     S
C929   S1011   1.774   .     S
C929   C943    1.401   .     A
C929   C1029   1.400   .     S
C930   S1016   1.787   .     S
C930   C944    1.435   .     A
C930   C1132   1.406   1_455 S
C931   H947    1.081   .     S
C931   C941    1.390   .     A
C931   C935    1.397   .     A
C932   C936    1.402   .     A
C932   C942    1.403   .     A
C932   H948    1.080   .     S
C933   C937    1.396   .     A
C933   C942    1.404   .     A
C933   H949    1.078   .     S
C934   C938    1.405   .     A
C934   H950    1.077   .     S
C934   C941    1.395   .     A
C935   C939    1.429   .     A
C935   S981    1.737   .     S
C936   S986    1.785   .     S
C936   C940    1.425   .     A
C937   S991    1.761   .     S
C937   C940    1.418   .     A
C938   C939    1.450   .     A
C938   S996    1.783   .     S
C942   C23     1.504   1_556 S
Cu945  N951    2.056   .     S
Cu945  O957    1.964   .     S
Cu945  O953    1.999   .     S
Cu945  O959    1.951   .     S
Cu945  O955    2.001   .     S
Cu945  Cu946   2.736   .     S
Cu946  O958    1.964   .     S
Cu946  N952    2.056   .     S
Cu946  O956    2.001   .     S
Cu946  O960    1.951   .     S
Cu946  O954    1.999   .     S
S961   O962    1.496   .     D
S961   O963    1.491   .     D
S961   O964    1.676   .     S
O964   H965    0.992   .     S
S966   O969    1.675   .     S
S966   O968    1.496   .     D
S966   O967    1.497   .     D
O969   H970    0.991   .     S
S971   O972    1.495   .     D
S971   O973    1.499   .     D
S971   O974    1.673   .     S
O974   H975    0.991   .     S
S976   O979    1.674   .     S
S976   O977    1.493   .     D
S976   O978    1.497   .     D
O979   H980    0.991   .     S
S981   O983    1.501   .     D
S981   O984    1.683   .     S
S981   O982    1.501   .     D
O984   H985    0.991   .     S
S986   O987    1.501   .     D
S986   O989    1.681   .     S
S986   O988    1.504   .     D
O989   H990    0.991   .     S
S991   O992    1.500   .     D
S991   O993    1.497   .     D
S991   O994    1.683   .     S
O994   H995    0.991   .     S
S996   O999    1.681   .     S
S996   O998    1.499   .     D
S996   O997    1.497   .     D
O999   H1000   0.991   .     S
S1001  O1002   1.500   .     D
S1001  O1003   1.503   .     D
S1001  O1004   1.679   .     S
O1004  H1005   0.990   .     S
S1006  O1009   1.676   .     S
S1006  O1008   1.500   .     D
S1006  O1007   1.495   .     D
O1009  H1010   0.991   .     S
S1011  O1012   1.494   .     D
S1011  O1013   1.497   .     D
S1011  O1014   1.679   .     S
O1014  H1015   0.990   .     S
S1016  O1018   1.502   .     D
S1016  O1019   1.681   .     S
S1016  O1017   1.499   .     D
O1019  H1020   0.991   .     S
C1021  O1058   1.340   .     A
C1021  C1046   1.511   .     S
C1021  O1055   1.308   .     A
C1022  O1056   1.317   .     A
C1022  O1057   1.321   .     A
C1022  C1045   1.490   .     S
C1023  O1062   1.308   .     A
C1023  C1041   1.538   .     S
C1023  O1059   1.351   .     A
C1024  O1061   1.329   .     A
C1024  O1060   1.318   .     A
C1024  C1042   1.507   .     S
C1025  S1063   1.843   .     S
C1025  N1054   1.401   .     A
C1025  C1640   1.456   1_545 S
C1026  S1068   1.854   .     S
C1026  N1053   1.400   .     A
C1026  C1333   1.469   .     S
C1027  S1073   1.852   .     S
C1027  N1054   1.402   .     A
C1027  C1638   1.469   1_545 S
C1028  S1078   1.815   .     S
C1028  N1053   1.391   .     A
C1028  C1331   1.456   .     S
C1029  C1046   1.412   .     A
C1029  S1103   1.767   .     S
C1030  S1108   1.778   .     S
C1030  C1045   1.403   .     A
C1030  C1134   1.406   .     S
C1031  S1113   1.774   .     S
C1031  C1045   1.401   .     A
C1031  C1131   1.400   .     S
C1032  S1118   1.787   .     S
C1032  C1046   1.435   .     A
C1033  H1049   1.081   .     S
C1033  C1043   1.390   .     A
C1033  C1037   1.397   .     A
C1034  C1038   1.402   .     A
C1034  C1044   1.403   .     A
C1034  H1050   1.080   .     S
C1035  C1039   1.396   .     A
C1035  C1044   1.404   .     A
C1035  H1051   1.078   .     S
C1036  C1040   1.405   .     A
C1036  H1052   1.077   .     S
C1036  C1043   1.395   .     A
C1037  C1041   1.429   .     A
C1037  S1083   1.737   .     S
C1038  S1088   1.785   .     S
C1038  C1042   1.425   .     A
C1039  S1093   1.761   .     S
C1039  C1042   1.418   .     A
C1040  C1041   1.450   .     A
C1040  S1098   1.783   .     S
C1044  C125    1.504   1_556 S
Cu1047 N1053   2.056   .     S
Cu1047 O1059   1.964   .     S
Cu1047 O1055   1.999   .     S
Cu1047 O1061   1.951   .     S
Cu1047 O1057   2.001   .     S
Cu1047 Cu1048  2.736   .     S
Cu1048 O1060   1.964   .     S
Cu1048 N1054   2.056   .     S
Cu1048 O1058   2.001   .     S
Cu1048 O1062   1.951   .     S
Cu1048 O1056   1.999   .     S
S1063  O1064   1.496   .     D
S1063  O1065   1.491   .     D
S1063  O1066   1.676   .     S
O1066  H1067   0.992   .     S
S1068  O1071   1.675   .     S
S1068  O1070   1.496   .     D
S1068  O1069   1.497   .     D
O1071  H1072   0.991   .     S
S1073  O1074   1.495   .     D
S1073  O1075   1.499   .     D
S1073  O1076   1.673   .     S
O1076  H1077   0.991   .     S
S1078  O1081   1.674   .     S
S1078  O1079   1.493   .     D
S1078  O1080   1.497   .     D
O1081  H1082   0.991   .     S
S1083  O1085   1.501   .     D
S1083  O1086   1.683   .     S
S1083  O1084   1.501   .     D
O1086  H1087   0.991   .     S
S1088  O1089   1.501   .     D
S1088  O1091   1.681   .     S
S1088  O1090   1.504   .     D
O1091  H1092   0.991   .     S
S1093  O1094   1.500   .     D
S1093  O1095   1.497   .     D
S1093  O1096   1.683   .     S
O1096  H1097   0.991   .     S
S1098  O1101   1.681   .     S
S1098  O1100   1.499   .     D
S1098  O1099   1.497   .     D
O1101  H1102   0.991   .     S
S1103  O1104   1.500   .     D
S1103  O1105   1.503   .     D
S1103  O1106   1.679   .     S
O1106  H1107   0.990   .     S
S1108  O1111   1.676   .     S
S1108  O1110   1.500   .     D
S1108  O1109   1.495   .     D
O1111  H1112   0.991   .     S
S1113  O1114   1.494   .     D
S1113  O1115   1.497   .     D
S1113  O1116   1.679   .     S
O1116  H1117   0.990   .     S
S1118  O1120   1.502   .     D
S1118  O1121   1.681   .     S
S1118  O1119   1.499   .     D
O1121  H1122   0.991   .     S
C1123  O1160   1.340   .     A
C1123  C1148   1.511   .     S
C1123  O1157   1.308   .     A
C1124  O1158   1.317   .     A
C1124  O1159   1.321   .     A
C1124  C1147   1.490   .     S
C1125  O1164   1.308   .     A
C1125  C1143   1.538   .     S
C1125  O1161   1.351   .     A
C1126  O1163   1.329   .     A
C1126  O1162   1.318   .     A
C1126  C1144   1.507   .     S
C1127  S1165   1.843   .     S
C1127  N1156   1.401   .     A
C1127  C1742   1.456   1_545 S
C1128  S1170   1.854   .     S
C1128  N1155   1.400   .     A
C1128  C1435   1.469   .     S
C1129  S1175   1.852   .     S
C1129  N1156   1.402   .     A
C1129  C1740   1.469   1_545 S
C1130  S1180   1.815   .     S
C1130  N1155   1.391   .     A
C1130  C1433   1.456   .     S
C1131  C1148   1.412   .     A
C1131  S1205   1.767   .     S
C1132  S1210   1.778   .     S
C1132  C1147   1.403   .     A
C1132  C930    1.406   1_655 S
C1133  S1215   1.774   .     S
C1133  C1147   1.401   .     A
C1133  C927    1.400   1_655 S
C1134  S1220   1.787   .     S
C1134  C1148   1.435   .     A
C1135  H1151   1.081   .     S
C1135  C1145   1.390   .     A
C1135  C1139   1.397   .     A
C1136  C1140   1.402   .     A
C1136  C1146   1.403   .     A
C1136  H1152   1.080   .     S
C1137  C1141   1.396   .     A
C1137  C1146   1.404   .     A
C1137  H1153   1.078   .     S
C1138  C1142   1.405   .     A
C1138  H1154   1.077   .     S
C1138  C1145   1.395   .     A
C1139  C1143   1.429   .     A
C1139  S1185   1.737   .     S
C1140  S1190   1.785   .     S
C1140  C1144   1.425   .     A
C1141  S1195   1.761   .     S
C1141  C1144   1.418   .     A
C1142  C1143   1.450   .     A
C1142  S1200   1.783   .     S
C1146  C227    1.504   1_556 S
Cu1149 N1155   2.056   .     S
Cu1149 O1161   1.964   .     S
Cu1149 O1157   1.999   .     S
Cu1149 O1163   1.951   .     S
Cu1149 O1159   2.001   .     S
Cu1149 Cu1150  2.736   .     S
Cu1150 O1162   1.964   .     S
Cu1150 N1156   2.056   .     S
Cu1150 O1160   2.001   .     S
Cu1150 O1164   1.951   .     S
Cu1150 O1158   1.999   .     S
S1165  O1166   1.496   .     D
S1165  O1167   1.491   .     D
S1165  O1168   1.676   .     S
O1168  H1169   0.992   .     S
S1170  O1173   1.675   .     S
S1170  O1172   1.496   .     D
S1170  O1171   1.497   .     D
O1173  H1174   0.991   .     S
S1175  O1176   1.495   .     D
S1175  O1177   1.499   .     D
S1175  O1178   1.673   .     S
O1178  H1179   0.991   .     S
S1180  O1183   1.674   .     S
S1180  O1181   1.493   .     D
S1180  O1182   1.497   .     D
O1183  H1184   0.991   .     S
S1185  O1187   1.501   .     D
S1185  O1188   1.683   .     S
S1185  O1186   1.501   .     D
O1188  H1189   0.991   .     S
S1190  O1191   1.501   .     D
S1190  O1193   1.681   .     S
S1190  O1192   1.504   .     D
O1193  H1194   0.991   .     S
S1195  O1196   1.500   .     D
S1195  O1197   1.497   .     D
S1195  O1198   1.683   .     S
O1198  H1199   0.991   .     S
S1200  O1203   1.681   .     S
S1200  O1202   1.499   .     D
S1200  O1201   1.497   .     D
O1203  H1204   0.991   .     S
S1205  O1206   1.500   .     D
S1205  O1207   1.503   .     D
S1205  O1208   1.679   .     S
O1208  H1209   0.990   .     S
S1210  O1213   1.676   .     S
S1210  O1212   1.500   .     D
S1210  O1211   1.495   .     D
O1213  H1214   0.991   .     S
S1215  O1216   1.494   .     D
S1215  O1217   1.497   .     D
S1215  O1218   1.679   .     S
O1218  H1219   0.990   .     S
S1220  O1222   1.502   .     D
S1220  O1223   1.681   .     S
S1220  O1221   1.499   .     D
O1223  H1224   0.991   .     S
C1225  O1262   1.340   .     A
C1225  C1250   1.511   .     S
C1225  O1259   1.308   .     A
C1226  O1260   1.317   .     A
C1226  O1261   1.321   .     A
C1226  C1249   1.490   .     S
C1227  O1266   1.308   .     A
C1227  C1245   1.538   .     S
C1227  O1263   1.351   .     A
C1228  O1265   1.329   .     A
C1228  O1264   1.318   .     A
C1228  C1246   1.507   .     S
C1229  S1267   1.843   .     S
C1229  N1258   1.401   .     A
C1230  S1272   1.854   .     S
C1230  N1257   1.400   .     A
C1230  C1537   1.469   .     S
C1231  S1277   1.852   .     S
C1231  N1258   1.402   .     A
C1232  S1282   1.815   .     S
C1232  N1257   1.391   .     A
C1232  C1535   1.456   .     S
C1233  C1250   1.412   .     A
C1233  S1307   1.767   .     S
C1233  C1439   1.400   1_455 S
C1234  S1312   1.778   .     S
C1234  C1249   1.403   .     A
C1234  C1338   1.406   .     S
C1235  S1317   1.774   .     S
C1235  C1249   1.401   .     A
C1235  C1335   1.400   .     S
C1236  S1322   1.787   .     S
C1236  C1250   1.435   .     A
C1236  C1438   1.406   1_455 S
C1237  H1253   1.081   .     S
C1237  C1247   1.390   .     A
C1237  C1241   1.397   .     A
C1238  C1242   1.402   .     A
C1238  C1248   1.403   .     A
C1238  H1254   1.080   .     S
C1239  C1243   1.396   .     A
C1239  C1248   1.404   .     A
C1239  H1255   1.078   .     S
C1240  C1244   1.405   .     A
C1240  H1256   1.077   .     S
C1240  C1247   1.395   .     A
C1241  C1245   1.429   .     A
C1241  S1287   1.737   .     S
C1242  S1292   1.785   .     S
C1242  C1246   1.425   .     A
C1243  S1297   1.761   .     S
C1243  C1246   1.418   .     A
C1244  C1245   1.450   .     A
C1244  S1302   1.783   .     S
C1248  C329    1.504   1_556 S
Cu1251 N1257   2.056   .     S
Cu1251 O1263   1.964   .     S
Cu1251 O1259   1.999   .     S
Cu1251 O1265   1.951   .     S
Cu1251 O1261   2.001   .     S
Cu1251 Cu1252  2.736   .     S
Cu1252 O1264   1.964   .     S
Cu1252 N1258   2.056   .     S
Cu1252 O1262   2.001   .     S
Cu1252 O1266   1.951   .     S
Cu1252 O1260   1.999   .     S
S1267  O1268   1.496   .     D
S1267  O1269   1.491   .     D
S1267  O1270   1.676   .     S
O1270  H1271   0.992   .     S
S1272  O1275   1.675   .     S
S1272  O1274   1.496   .     D
S1272  O1273   1.497   .     D
O1275  H1276   0.991   .     S
S1277  O1278   1.495   .     D
S1277  O1279   1.499   .     D
S1277  O1280   1.673   .     S
O1280  H1281   0.991   .     S
S1282  O1285   1.674   .     S
S1282  O1283   1.493   .     D
S1282  O1284   1.497   .     D
O1285  H1286   0.991   .     S
S1287  O1289   1.501   .     D
S1287  O1290   1.683   .     S
S1287  O1288   1.501   .     D
O1290  H1291   0.991   .     S
S1292  O1293   1.501   .     D
S1292  O1295   1.681   .     S
S1292  O1294   1.504   .     D
O1295  H1296   0.991   .     S
S1297  O1298   1.500   .     D
S1297  O1299   1.497   .     D
S1297  O1300   1.683   .     S
O1300  H1301   0.991   .     S
S1302  O1305   1.681   .     S
S1302  O1304   1.499   .     D
S1302  O1303   1.497   .     D
O1305  H1306   0.991   .     S
S1307  O1308   1.500   .     D
S1307  O1309   1.503   .     D
S1307  O1310   1.679   .     S
O1310  H1311   0.990   .     S
S1312  O1315   1.676   .     S
S1312  O1314   1.500   .     D
S1312  O1313   1.495   .     D
O1315  H1316   0.991   .     S
S1317  O1318   1.494   .     D
S1317  O1319   1.497   .     D
S1317  O1320   1.679   .     S
O1320  H1321   0.990   .     S
S1322  O1324   1.502   .     D
S1322  O1325   1.681   .     S
S1322  O1323   1.499   .     D
O1325  H1326   0.991   .     S
C1327  O1364   1.340   .     A
C1327  C1352   1.511   .     S
C1327  O1361   1.308   .     A
C1328  O1362   1.317   .     A
C1328  O1363   1.321   .     A
C1328  C1351   1.490   .     S
C1329  O1368   1.308   .     A
C1329  C1347   1.538   .     S
C1329  O1365   1.351   .     A
C1330  O1367   1.329   .     A
C1330  O1366   1.318   .     A
C1330  C1348   1.507   .     S
C1331  S1369   1.843   .     S
C1331  N1360   1.401   .     A
C1332  S1374   1.854   .     S
C1332  N1359   1.400   .     A
C1332  C1639   1.469   .     S
C1333  S1379   1.852   .     S
C1333  N1360   1.402   .     A
C1334  S1384   1.815   .     S
C1334  N1359   1.391   .     A
C1334  C1637   1.456   .     S
C1335  C1352   1.412   .     A
C1335  S1409   1.767   .     S
C1336  S1414   1.778   .     S
C1336  C1351   1.403   .     A
C1336  C1440   1.406   .     S
C1337  S1419   1.774   .     S
C1337  C1351   1.401   .     A
C1337  C1437   1.400   .     S
C1338  S1424   1.787   .     S
C1338  C1352   1.435   .     A
C1339  H1355   1.081   .     S
C1339  C1349   1.390   .     A
C1339  C1343   1.397   .     A
C1340  C1344   1.402   .     A
C1340  C1350   1.403   .     A
C1340  H1356   1.080   .     S
C1341  C1345   1.396   .     A
C1341  C1350   1.404   .     A
C1341  H1357   1.078   .     S
C1342  C1346   1.405   .     A
C1342  H1358   1.077   .     S
C1342  C1349   1.395   .     A
C1343  C1347   1.429   .     A
C1343  S1389   1.737   .     S
C1344  S1394   1.785   .     S
C1344  C1348   1.425   .     A
C1345  S1399   1.761   .     S
C1345  C1348   1.418   .     A
C1346  C1347   1.450   .     A
C1346  S1404   1.783   .     S
C1350  C431    1.504   1_556 S
Cu1353 N1359   2.056   .     S
Cu1353 O1365   1.964   .     S
Cu1353 O1361   1.999   .     S
Cu1353 O1367   1.951   .     S
Cu1353 O1363   2.001   .     S
Cu1353 Cu1354  2.736   .     S
Cu1354 O1366   1.964   .     S
Cu1354 N1360   2.056   .     S
Cu1354 O1364   2.001   .     S
Cu1354 O1368   1.951   .     S
Cu1354 O1362   1.999   .     S
S1369  O1370   1.496   .     D
S1369  O1371   1.491   .     D
S1369  O1372   1.676   .     S
O1372  H1373   0.992   .     S
S1374  O1377   1.675   .     S
S1374  O1376   1.496   .     D
S1374  O1375   1.497   .     D
O1377  H1378   0.991   .     S
S1379  O1380   1.495   .     D
S1379  O1381   1.499   .     D
S1379  O1382   1.673   .     S
O1382  H1383   0.991   .     S
S1384  O1387   1.674   .     S
S1384  O1385   1.493   .     D
S1384  O1386   1.497   .     D
O1387  H1388   0.991   .     S
S1389  O1391   1.501   .     D
S1389  O1392   1.683   .     S
S1389  O1390   1.501   .     D
O1392  H1393   0.991   .     S
S1394  O1395   1.501   .     D
S1394  O1397   1.681   .     S
S1394  O1396   1.504   .     D
O1397  H1398   0.991   .     S
S1399  O1400   1.500   .     D
S1399  O1401   1.497   .     D
S1399  O1402   1.683   .     S
O1402  H1403   0.991   .     S
S1404  O1407   1.681   .     S
S1404  O1406   1.499   .     D
S1404  O1405   1.497   .     D
O1407  H1408   0.991   .     S
S1409  O1410   1.500   .     D
S1409  O1411   1.503   .     D
S1409  O1412   1.679   .     S
O1412  H1413   0.990   .     S
S1414  O1417   1.676   .     S
S1414  O1416   1.500   .     D
S1414  O1415   1.495   .     D
O1417  H1418   0.991   .     S
S1419  O1420   1.494   .     D
S1419  O1421   1.497   .     D
S1419  O1422   1.679   .     S
O1422  H1423   0.990   .     S
S1424  O1426   1.502   .     D
S1424  O1427   1.681   .     S
S1424  O1425   1.499   .     D
O1427  H1428   0.991   .     S
C1429  O1466   1.340   .     A
C1429  C1454   1.511   .     S
C1429  O1463   1.308   .     A
C1430  O1464   1.317   .     A
C1430  O1465   1.321   .     A
C1430  C1453   1.490   .     S
C1431  O1470   1.308   .     A
C1431  C1449   1.538   .     S
C1431  O1467   1.351   .     A
C1432  O1469   1.329   .     A
C1432  O1468   1.318   .     A
C1432  C1450   1.507   .     S
C1433  S1471   1.843   .     S
C1433  N1462   1.401   .     A
C1434  S1476   1.854   .     S
C1434  N1461   1.400   .     A
C1434  C1741   1.469   .     S
C1435  S1481   1.852   .     S
C1435  N1462   1.402   .     A
C1436  S1486   1.815   .     S
C1436  N1461   1.391   .     A
C1436  C1739   1.456   .     S
C1437  C1454   1.412   .     A
C1437  S1511   1.767   .     S
C1438  S1516   1.778   .     S
C1438  C1453   1.403   .     A
C1438  C1236   1.406   1_655 S
C1439  S1521   1.774   .     S
C1439  C1453   1.401   .     A
C1439  C1233   1.400   1_655 S
C1440  S1526   1.787   .     S
C1440  C1454   1.435   .     A
C1441  H1457   1.081   .     S
C1441  C1451   1.390   .     A
C1441  C1445   1.397   .     A
C1442  C1446   1.402   .     A
C1442  C1452   1.403   .     A
C1442  H1458   1.080   .     S
C1443  C1447   1.396   .     A
C1443  C1452   1.404   .     A
C1443  H1459   1.078   .     S
C1444  C1448   1.405   .     A
C1444  H1460   1.077   .     S
C1444  C1451   1.395   .     A
C1445  C1449   1.429   .     A
C1445  S1491   1.737   .     S
C1446  S1496   1.785   .     S
C1446  C1450   1.425   .     A
C1447  S1501   1.761   .     S
C1447  C1450   1.418   .     A
C1448  C1449   1.450   .     A
C1448  S1506   1.783   .     S
C1452  C533    1.504   1_556 S
Cu1455 N1461   2.056   .     S
Cu1455 O1467   1.964   .     S
Cu1455 O1463   1.999   .     S
Cu1455 O1469   1.951   .     S
Cu1455 O1465   2.001   .     S
Cu1455 Cu1456  2.736   .     S
Cu1456 O1468   1.964   .     S
Cu1456 N1462   2.056   .     S
Cu1456 O1466   2.001   .     S
Cu1456 O1470   1.951   .     S
Cu1456 O1464   1.999   .     S
S1471  O1472   1.496   .     D
S1471  O1473   1.491   .     D
S1471  O1474   1.676   .     S
O1474  H1475   0.992   .     S
S1476  O1479   1.675   .     S
S1476  O1478   1.496   .     D
S1476  O1477   1.497   .     D
O1479  H1480   0.991   .     S
S1481  O1482   1.495   .     D
S1481  O1483   1.499   .     D
S1481  O1484   1.673   .     S
O1484  H1485   0.991   .     S
S1486  O1489   1.674   .     S
S1486  O1487   1.493   .     D
S1486  O1488   1.497   .     D
O1489  H1490   0.991   .     S
S1491  O1493   1.501   .     D
S1491  O1494   1.683   .     S
S1491  O1492   1.501   .     D
O1494  H1495   0.991   .     S
S1496  O1497   1.501   .     D
S1496  O1499   1.681   .     S
S1496  O1498   1.504   .     D
O1499  H1500   0.991   .     S
S1501  O1502   1.500   .     D
S1501  O1503   1.497   .     D
S1501  O1504   1.683   .     S
O1504  H1505   0.991   .     S
S1506  O1509   1.681   .     S
S1506  O1508   1.499   .     D
S1506  O1507   1.497   .     D
O1509  H1510   0.991   .     S
S1511  O1512   1.500   .     D
S1511  O1513   1.503   .     D
S1511  O1514   1.679   .     S
O1514  H1515   0.990   .     S
S1516  O1519   1.676   .     S
S1516  O1518   1.500   .     D
S1516  O1517   1.495   .     D
O1519  H1520   0.991   .     S
S1521  O1522   1.494   .     D
S1521  O1523   1.497   .     D
S1521  O1524   1.679   .     S
O1524  H1525   0.990   .     S
S1526  O1528   1.502   .     D
S1526  O1529   1.681   .     S
S1526  O1527   1.499   .     D
O1529  H1530   0.991   .     S
C1531  O1568   1.340   .     A
C1531  C1556   1.511   .     S
C1531  O1565   1.308   .     A
C1532  O1566   1.317   .     A
C1532  O1567   1.321   .     A
C1532  C1555   1.490   .     S
C1533  O1572   1.308   .     A
C1533  C1551   1.538   .     S
C1533  O1569   1.351   .     A
C1534  O1571   1.329   .     A
C1534  O1570   1.318   .     A
C1534  C1552   1.507   .     S
C1535  S1573   1.843   .     S
C1535  N1564   1.401   .     A
C1536  S1578   1.854   .     S
C1536  N1563   1.400   .     A
C1536  C925    1.469   1_565 S
C1537  S1583   1.852   .     S
C1537  N1564   1.402   .     A
C1538  S1588   1.815   .     S
C1538  N1563   1.391   .     A
C1538  C923    1.456   1_565 S
C1539  C1556   1.412   .     A
C1539  S1613   1.767   .     S
C1539  C1745   1.400   1_455 S
C1540  S1618   1.778   .     S
C1540  C1555   1.403   .     A
C1540  C1644   1.406   .     S
C1541  S1623   1.774   .     S
C1541  C1555   1.401   .     A
C1541  C1641   1.400   .     S
C1542  S1628   1.787   .     S
C1542  C1556   1.435   .     A
C1542  C1744   1.406   1_455 S
C1543  H1559   1.081   .     S
C1543  C1553   1.390   .     A
C1543  C1547   1.397   .     A
C1544  C1548   1.402   .     A
C1544  C1554   1.403   .     A
C1544  H1560   1.080   .     S
C1545  C1549   1.396   .     A
C1545  C1554   1.404   .     A
C1545  H1561   1.078   .     S
C1546  C1550   1.405   .     A
C1546  H1562   1.077   .     S
C1546  C1553   1.395   .     A
C1547  C1551   1.429   .     A
C1547  S1593   1.737   .     S
C1548  S1598   1.785   .     S
C1548  C1552   1.425   .     A
C1549  S1603   1.761   .     S
C1549  C1552   1.418   .     A
C1550  C1551   1.450   .     A
C1550  S1608   1.783   .     S
C1554  C635    1.504   1_556 S
Cu1557 N1563   2.056   .     S
Cu1557 O1569   1.964   .     S
Cu1557 O1565   1.999   .     S
Cu1557 O1571   1.951   .     S
Cu1557 O1567   2.001   .     S
Cu1557 Cu1558  2.736   .     S
Cu1558 O1570   1.964   .     S
Cu1558 N1564   2.056   .     S
Cu1558 O1568   2.001   .     S
Cu1558 O1572   1.951   .     S
Cu1558 O1566   1.999   .     S
S1573  O1574   1.496   .     D
S1573  O1575   1.491   .     D
S1573  O1576   1.676   .     S
O1576  H1577   0.992   .     S
S1578  O1581   1.675   .     S
S1578  O1580   1.496   .     D
S1578  O1579   1.497   .     D
O1581  H1582   0.991   .     S
S1583  O1584   1.495   .     D
S1583  O1585   1.499   .     D
S1583  O1586   1.673   .     S
O1586  H1587   0.991   .     S
S1588  O1591   1.674   .     S
S1588  O1589   1.493   .     D
S1588  O1590   1.497   .     D
O1591  H1592   0.991   .     S
S1593  O1595   1.501   .     D
S1593  O1596   1.683   .     S
S1593  O1594   1.501   .     D
O1596  H1597   0.991   .     S
S1598  O1599   1.501   .     D
S1598  O1601   1.681   .     S
S1598  O1600   1.504   .     D
O1601  H1602   0.991   .     S
S1603  O1604   1.500   .     D
S1603  O1605   1.497   .     D
S1603  O1606   1.683   .     S
O1606  H1607   0.991   .     S
S1608  O1611   1.681   .     S
S1608  O1610   1.499   .     D
S1608  O1609   1.497   .     D
O1611  H1612   0.991   .     S
S1613  O1614   1.500   .     D
S1613  O1615   1.503   .     D
S1613  O1616   1.679   .     S
O1616  H1617   0.990   .     S
S1618  O1621   1.676   .     S
S1618  O1620   1.500   .     D
S1618  O1619   1.495   .     D
O1621  H1622   0.991   .     S
S1623  O1624   1.494   .     D
S1623  O1625   1.497   .     D
S1623  O1626   1.679   .     S
O1626  H1627   0.990   .     S
S1628  O1630   1.502   .     D
S1628  O1631   1.681   .     S
S1628  O1629   1.499   .     D
O1631  H1632   0.991   .     S
C1633  O1670   1.340   .     A
C1633  C1658   1.511   .     S
C1633  O1667   1.308   .     A
C1634  O1668   1.317   .     A
C1634  O1669   1.321   .     A
C1634  C1657   1.490   .     S
C1635  O1674   1.308   .     A
C1635  C1653   1.538   .     S
C1635  O1671   1.351   .     A
C1636  O1673   1.329   .     A
C1636  O1672   1.318   .     A
C1636  C1654   1.507   .     S
C1637  S1675   1.843   .     S
C1637  N1666   1.401   .     A
C1638  S1680   1.854   .     S
C1638  N1665   1.400   .     A
C1638  C1027   1.469   1_565 S
C1639  S1685   1.852   .     S
C1639  N1666   1.402   .     A
C1640  S1690   1.815   .     S
C1640  N1665   1.391   .     A
C1640  C1025   1.456   1_565 S
C1641  C1658   1.412   .     A
C1641  S1715   1.767   .     S
C1642  S1720   1.778   .     S
C1642  C1657   1.403   .     A
C1642  C1746   1.406   .     S
C1643  S1725   1.774   .     S
C1643  C1657   1.401   .     A
C1643  C1743   1.400   .     S
C1644  S1730   1.787   .     S
C1644  C1658   1.435   .     A
C1645  H1661   1.081   .     S
C1645  C1655   1.390   .     A
C1645  C1649   1.397   .     A
C1646  C1650   1.402   .     A
C1646  C1656   1.403   .     A
C1646  H1662   1.080   .     S
C1647  C1651   1.396   .     A
C1647  C1656   1.404   .     A
C1647  H1663   1.078   .     S
C1648  C1652   1.405   .     A
C1648  H1664   1.077   .     S
C1648  C1655   1.395   .     A
C1649  C1653   1.429   .     A
C1649  S1695   1.737   .     S
C1650  S1700   1.785   .     S
C1650  C1654   1.425   .     A
C1651  S1705   1.761   .     S
C1651  C1654   1.418   .     A
C1652  C1653   1.450   .     A
C1652  S1710   1.783   .     S
C1656  C737    1.504   1_556 S
Cu1659 N1665   2.056   .     S
Cu1659 O1671   1.964   .     S
Cu1659 O1667   1.999   .     S
Cu1659 O1673   1.951   .     S
Cu1659 O1669   2.001   .     S
Cu1659 Cu1660  2.736   .     S
Cu1660 O1672   1.964   .     S
Cu1660 N1666   2.056   .     S
Cu1660 O1670   2.001   .     S
Cu1660 O1674   1.951   .     S
Cu1660 O1668   1.999   .     S
S1675  O1676   1.496   .     D
S1675  O1677   1.491   .     D
S1675  O1678   1.676   .     S
O1678  H1679   0.992   .     S
S1680  O1683   1.675   .     S
S1680  O1682   1.496   .     D
S1680  O1681   1.497   .     D
O1683  H1684   0.991   .     S
S1685  O1686   1.495   .     D
S1685  O1687   1.499   .     D
S1685  O1688   1.673   .     S
O1688  H1689   0.991   .     S
S1690  O1693   1.674   .     S
S1690  O1691   1.493   .     D
S1690  O1692   1.497   .     D
O1693  H1694   0.991   .     S
S1695  O1697   1.501   .     D
S1695  O1698   1.683   .     S
S1695  O1696   1.501   .     D
O1698  H1699   0.991   .     S
S1700  O1701   1.501   .     D
S1700  O1703   1.681   .     S
S1700  O1702   1.504   .     D
O1703  H1704   0.991   .     S
S1705  O1706   1.500   .     D
S1705  O1707   1.497   .     D
S1705  O1708   1.683   .     S
O1708  H1709   0.991   .     S
S1710  O1713   1.681   .     S
S1710  O1712   1.499   .     D
S1710  O1711   1.497   .     D
O1713  H1714   0.991   .     S
S1715  O1716   1.500   .     D
S1715  O1717   1.503   .     D
S1715  O1718   1.679   .     S
O1718  H1719   0.990   .     S
S1720  O1723   1.676   .     S
S1720  O1722   1.500   .     D
S1720  O1721   1.495   .     D
O1723  H1724   0.991   .     S
S1725  O1726   1.494   .     D
S1725  O1727   1.497   .     D
S1725  O1728   1.679   .     S
O1728  H1729   0.990   .     S
S1730  O1732   1.502   .     D
S1730  O1733   1.681   .     S
S1730  O1731   1.499   .     D
O1733  H1734   0.991   .     S
C1735  O1772   1.340   .     A
C1735  C1760   1.511   .     S
C1735  O1769   1.308   .     A
C1736  O1770   1.317   .     A
C1736  O1771   1.321   .     A
C1736  C1759   1.490   .     S
C1737  O1776   1.308   .     A
C1737  C1755   1.538   .     S
C1737  O1773   1.351   .     A
C1738  O1775   1.329   .     A
C1738  O1774   1.318   .     A
C1738  C1756   1.507   .     S
C1739  S1777   1.843   .     S
C1739  N1768   1.401   .     A
C1740  S1782   1.854   .     S
C1740  N1767   1.400   .     A
C1740  C1129   1.469   1_565 S
C1741  S1787   1.852   .     S
C1741  N1768   1.402   .     A
C1742  S1792   1.815   .     S
C1742  N1767   1.391   .     A
C1742  C1127   1.456   1_565 S
C1743  C1760   1.412   .     A
C1743  S1817   1.767   .     S
C1744  S1822   1.778   .     S
C1744  C1759   1.403   .     A
C1744  C1542   1.406   1_655 S
C1745  S1827   1.774   .     S
C1745  C1759   1.401   .     A
C1745  C1539   1.400   1_655 S
C1746  S1832   1.787   .     S
C1746  C1760   1.435   .     A
C1747  H1763   1.081   .     S
C1747  C1757   1.390   .     A
C1747  C1751   1.397   .     A
C1748  C1752   1.402   .     A
C1748  C1758   1.403   .     A
C1748  H1764   1.080   .     S
C1749  C1753   1.396   .     A
C1749  C1758   1.404   .     A
C1749  H1765   1.078   .     S
C1750  C1754   1.405   .     A
C1750  H1766   1.077   .     S
C1750  C1757   1.395   .     A
C1751  C1755   1.429   .     A
C1751  S1797   1.737   .     S
C1752  S1802   1.785   .     S
C1752  C1756   1.425   .     A
C1753  S1807   1.761   .     S
C1753  C1756   1.418   .     A
C1754  C1755   1.450   .     A
C1754  S1812   1.783   .     S
C1758  C839    1.504   1_556 S
Cu1761 N1767   2.056   .     S
Cu1761 O1773   1.964   .     S
Cu1761 O1769   1.999   .     S
Cu1761 O1775   1.951   .     S
Cu1761 O1771   2.001   .     S
Cu1761 Cu1762  2.736   .     S
Cu1762 O1774   1.964   .     S
Cu1762 N1768   2.056   .     S
Cu1762 O1772   2.001   .     S
Cu1762 O1776   1.951   .     S
Cu1762 O1770   1.999   .     S
S1777  O1778   1.496   .     D
S1777  O1779   1.491   .     D
S1777  O1780   1.676   .     S
O1780  H1781   0.992   .     S
S1782  O1785   1.675   .     S
S1782  O1784   1.496   .     D
S1782  O1783   1.497   .     D
O1785  H1786   0.991   .     S
S1787  O1788   1.495   .     D
S1787  O1789   1.499   .     D
S1787  O1790   1.673   .     S
O1790  H1791   0.991   .     S
S1792  O1795   1.674   .     S
S1792  O1793   1.493   .     D
S1792  O1794   1.497   .     D
O1795  H1796   0.991   .     S
S1797  O1799   1.501   .     D
S1797  O1800   1.683   .     S
S1797  O1798   1.501   .     D
O1800  H1801   0.991   .     S
S1802  O1803   1.501   .     D
S1802  O1805   1.681   .     S
S1802  O1804   1.504   .     D
O1805  H1806   0.991   .     S
S1807  O1808   1.500   .     D
S1807  O1809   1.497   .     D
S1807  O1810   1.683   .     S
O1810  H1811   0.991   .     S
S1812  O1815   1.681   .     S
S1812  O1814   1.499   .     D
S1812  O1813   1.497   .     D
O1815  H1816   0.991   .     S
S1817  O1818   1.500   .     D
S1817  O1819   1.503   .     D
S1817  O1820   1.679   .     S
O1820  H1821   0.990   .     S
S1822  O1825   1.676   .     S
S1822  O1824   1.500   .     D
S1822  O1823   1.495   .     D
O1825  H1826   0.991   .     S
S1827  O1828   1.494   .     D
S1827  O1829   1.497   .     D
S1827  O1830   1.679   .     S
O1830  H1831   0.990   .     S
S1832  O1834   1.502   .     D
S1832  O1835   1.681   .     S
S1832  O1833   1.499   .     D
O1835  H1836   0.991   .     S
