data_str_m2_o10_o17_pcu_sym.38
_audit_creation_date              2020-01-03
_audit_creation_method            'Materials Studio'
_symmetry_space_group_name_H-M    'P1'
_symmetry_Int_Tables_number       1
_symmetry_cell_setting            triclinic
loop_
_symmetry_equiv_pos_as_xyz
  x,y,z
_cell_length_a                    29.9803
_cell_length_b                    26.2737
_cell_length_c                    22.2925
_cell_angle_alpha                 102.7445
_cell_angle_beta                  94.1695
_cell_angle_gamma                 93.4940
loop_
_atom_site_label
_atom_site_type_symbol
_atom_site_fract_x
_atom_site_fract_y
_atom_site_fract_z
_atom_site_U_iso_or_equiv
_atom_site_adp_type
_atom_site_occupancy
C1     C     0.24851   0.06670   0.15138   0.00000  Uiso   1.00
C2     C     0.09004   0.11655   0.15746   0.00000  Uiso   1.00
C3     C     0.38365   0.16896   0.16439   0.00000  Uiso   1.00
C4     C     0.11635   0.16438   0.16894   0.00000  Uiso   1.00
C5     C     0.40286   0.12150   0.15103   0.00000  Uiso   1.00
C6     C     0.09714   0.21184   0.18231   0.00000  Uiso   1.00
C7     C     0.44894   0.12064   0.14909   0.00000  Uiso   1.00
C8     C     0.05106   0.21269   0.18425   0.00000  Uiso   1.00
C9     C     0.47658   0.16773   0.16652   0.00000  Uiso   1.00
C10    C     0.02342   0.16560   0.16681   0.00000  Uiso   1.00
C11    C     0.45736   0.21671   0.18345   0.00000  Uiso   1.00
C12    C     0.25149   0.26663   0.18195   0.00000  Uiso   1.00
C13    C     0.04264   0.11662   0.14988   0.00000  Uiso   1.00
C14    C     0.46727   0.07313   0.12841   0.00000  Uiso   1.00
C15    C     0.03273   0.26021   0.20492   0.00000  Uiso   1.00
C16    C     0.02878   0.01992   0.09021   0.00000  Uiso   1.00
C17    C     0.47122   0.31341   0.24312   0.00000  Uiso   1.00
C18    C     0.01351   0.07055   0.12605   0.00000  Uiso   1.00
C19    C     0.48649   0.26279   0.20728   0.00000  Uiso   1.00
C20    C     0.24274   0.01121   0.14361   0.00000  Uiso   1.00
C21    C     0.25726   0.32213   0.18973   0.00000  Uiso   1.00
C22    C     0.16450   0.16571   0.16738   0.00000  Uiso   1.00
C23    C     0.33550   0.16762   0.16595   0.00000  Uiso   1.00
C24    C     0.40996   0.21678   0.17587   0.00000  Uiso   1.00
Cu25   Cu    0.25500   0.17246   0.22813   0.00000  Uiso   1.00
Cu26   Cu    0.24499   0.16087   0.10521   0.00000  Uiso   1.00
H27    H     0.38153   0.08518   0.14018   0.00000  Uiso   1.00
H28    H     0.49843   0.00216   0.27711   0.00000  Uiso   1.00
H29    H     0.46200   0.00556   0.21146   0.00000  Uiso   1.00
H30    H     0.44293   0.30579   0.27022   0.00000  Uiso   1.00
H31    H     0.11846   0.24816   0.19316   0.00000  Uiso   1.00
H32    H     0.44510   0.03781   0.11175   0.00000  Uiso   1.00
H33    H     0.05490   0.29553   0.22158   0.00000  Uiso   1.00
H34    H     0.21487   0.12576   0.31612   0.00000  Uiso   1.00
H35    H     0.28513   0.20757   0.01721   0.00000  Uiso   1.00
H36    H     0.00157   0.33118   0.05621   0.00000  Uiso   1.00
H37    H     0.05708   0.02755   0.06311   0.00000  Uiso   1.00
H38    H     0.03799   0.32777   0.12186   0.00000  Uiso   1.00
I39    I     0.37612   0.28341   0.16183   0.00000  Uiso   1.00
I40    I     0.12388   0.04992   0.17150   0.00000  Uiso   1.00
I41    I     0.20425   0.30580   0.05799   0.00000  Uiso   1.00
I42    I     0.29575   0.02754   0.27534   0.00000  Uiso   1.00
N43    N     0.23744   0.15214   0.01284   0.00000  Uiso   1.00
N44    N     0.26255   0.18119   0.32049   0.00000  Uiso   1.00
O45    O     0.25325   0.09538   0.20659   0.00000  Uiso   1.00
O46    O     0.24674   0.23796   0.12674   0.00000  Uiso   1.00
O47    O     0.24480   0.08559   0.10279   0.00000  Uiso   1.00
O48    O     0.25520   0.24774   0.23055   0.00000  Uiso   1.00
O49    O     0.18935   0.17155   0.21857   0.00000  Uiso   1.00
O50    O     0.31064   0.16179   0.11476   0.00000  Uiso   1.00
O51    O     0.18090   0.16176   0.11477   0.00000  Uiso   1.00
O52    O     0.31910   0.17157   0.21857   0.00000  Uiso   1.00
C53    C     0.74851   0.06670   0.15138   0.00000  Uiso   1.00
C54    C     0.59004   0.11655   0.15746   0.00000  Uiso   1.00
C55    C     0.88365   0.16896   0.16439   0.00000  Uiso   1.00
C56    C     0.61635   0.16438   0.16894   0.00000  Uiso   1.00
C57    C     0.90286   0.12150   0.15103   0.00000  Uiso   1.00
C58    C     0.59714   0.21184   0.18231   0.00000  Uiso   1.00
C59    C     0.94894   0.12064   0.14909   0.00000  Uiso   1.00
C60    C     0.55106   0.21269   0.18425   0.00000  Uiso   1.00
C61    C     0.97658   0.16773   0.16652   0.00000  Uiso   1.00
C62    C     0.52342   0.16560   0.16681   0.00000  Uiso   1.00
C63    C     0.95736   0.21671   0.18345   0.00000  Uiso   1.00
C64    C     0.75149   0.26663   0.18195   0.00000  Uiso   1.00
C65    C     0.54264   0.11662   0.14988   0.00000  Uiso   1.00
C66    C     0.96727   0.07313   0.12841   0.00000  Uiso   1.00
C67    C     0.53273   0.26021   0.20492   0.00000  Uiso   1.00
C68    C     0.52878   0.01992   0.09021   0.00000  Uiso   1.00
C69    C     0.97122   0.31341   0.24312   0.00000  Uiso   1.00
C70    C     0.51351   0.07055   0.12605   0.00000  Uiso   1.00
C71    C     0.98649   0.26279   0.20728   0.00000  Uiso   1.00
C72    C     0.74274   0.01121   0.14361   0.00000  Uiso   1.00
C73    C     0.75726   0.32213   0.18973   0.00000  Uiso   1.00
C74    C     0.66450   0.16571   0.16738   0.00000  Uiso   1.00
C75    C     0.83550   0.16762   0.16595   0.00000  Uiso   1.00
C76    C     0.90996   0.21678   0.17587   0.00000  Uiso   1.00
Cu77   Cu    0.75500   0.17246   0.22813   0.00000  Uiso   1.00
Cu78   Cu    0.74499   0.16087   0.10521   0.00000  Uiso   1.00
H79    H     0.88153   0.08518   0.14018   0.00000  Uiso   1.00
H80    H     0.99843   0.00216   0.27711   0.00000  Uiso   1.00
H81    H     0.96200   0.00556   0.21146   0.00000  Uiso   1.00
H82    H     0.94293   0.30579   0.27022   0.00000  Uiso   1.00
H83    H     0.61846   0.24816   0.19316   0.00000  Uiso   1.00
H84    H     0.94510   0.03781   0.11175   0.00000  Uiso   1.00
H85    H     0.55490   0.29553   0.22158   0.00000  Uiso   1.00
H86    H     0.71487   0.12576   0.31612   0.00000  Uiso   1.00
H87    H     0.78513   0.20757   0.01721   0.00000  Uiso   1.00
H88    H     0.50157   0.33118   0.05621   0.00000  Uiso   1.00
H89    H     0.55708   0.02755   0.06311   0.00000  Uiso   1.00
H90    H     0.53799   0.32777   0.12186   0.00000  Uiso   1.00
I91    I     0.87612   0.28341   0.16183   0.00000  Uiso   1.00
I92    I     0.62388   0.04992   0.17150   0.00000  Uiso   1.00
I93    I     0.70425   0.30580   0.05799   0.00000  Uiso   1.00
I94    I     0.79575   0.02754   0.27534   0.00000  Uiso   1.00
N95    N     0.73744   0.15214   0.01284   0.00000  Uiso   1.00
N96    N     0.76255   0.18119   0.32049   0.00000  Uiso   1.00
O97    O     0.75325   0.09538   0.20659   0.00000  Uiso   1.00
O98    O     0.74674   0.23796   0.12674   0.00000  Uiso   1.00
O99    O     0.74480   0.08559   0.10279   0.00000  Uiso   1.00
O100   O     0.75520   0.24774   0.23055   0.00000  Uiso   1.00
O101   O     0.68935   0.17155   0.21857   0.00000  Uiso   1.00
O102   O     0.81064   0.16179   0.11476   0.00000  Uiso   1.00
O103   O     0.68090   0.16176   0.11477   0.00000  Uiso   1.00
O104   O     0.81910   0.17157   0.21857   0.00000  Uiso   1.00
C105   C     0.24851   0.40003   0.15138   0.00000  Uiso   1.00
C106   C     0.09004   0.44989   0.15746   0.00000  Uiso   1.00
C107   C     0.38365   0.50229   0.16439   0.00000  Uiso   1.00
C108   C     0.11635   0.49771   0.16894   0.00000  Uiso   1.00
C109   C     0.40286   0.45483   0.15103   0.00000  Uiso   1.00
C110   C     0.09714   0.54517   0.18231   0.00000  Uiso   1.00
C111   C     0.44894   0.45397   0.14909   0.00000  Uiso   1.00
C112   C     0.05106   0.54603   0.18425   0.00000  Uiso   1.00
C113   C     0.47658   0.50106   0.16652   0.00000  Uiso   1.00
C114   C     0.02342   0.49894   0.16681   0.00000  Uiso   1.00
C115   C     0.45736   0.55005   0.18345   0.00000  Uiso   1.00
C116   C     0.25149   0.59997   0.18195   0.00000  Uiso   1.00
C117   C     0.04264   0.44995   0.14988   0.00000  Uiso   1.00
C118   C     0.46727   0.40646   0.12841   0.00000  Uiso   1.00
C119   C     0.03273   0.59354   0.20492   0.00000  Uiso   1.00
C120   C     0.02878   0.35325   0.09021   0.00000  Uiso   1.00
C121   C     0.47122   0.64675   0.24312   0.00000  Uiso   1.00
C122   C     0.01351   0.40388   0.12605   0.00000  Uiso   1.00
C123   C     0.48649   0.59612   0.20728   0.00000  Uiso   1.00
C124   C     0.24274   0.34454   0.14361   0.00000  Uiso   1.00
C125   C     0.25726   0.65546   0.18973   0.00000  Uiso   1.00
C126   C     0.16450   0.49904   0.16738   0.00000  Uiso   1.00
C127   C     0.33550   0.50096   0.16595   0.00000  Uiso   1.00
C128   C     0.40996   0.55011   0.17587   0.00000  Uiso   1.00
Cu129  Cu    0.25500   0.50579   0.22813   0.00000  Uiso   1.00
Cu130  Cu    0.24499   0.49421   0.10521   0.00000  Uiso   1.00
H131   H     0.38153   0.41851   0.14018   0.00000  Uiso   1.00
H132   H     0.49843   0.33549   0.27711   0.00000  Uiso   1.00
H133   H     0.46200   0.33890   0.21146   0.00000  Uiso   1.00
H134   H     0.44293   0.63912   0.27022   0.00000  Uiso   1.00
H135   H     0.11846   0.58149   0.19316   0.00000  Uiso   1.00
H136   H     0.44510   0.37114   0.11175   0.00000  Uiso   1.00
H137   H     0.05490   0.62886   0.22158   0.00000  Uiso   1.00
H138   H     0.21487   0.45910   0.31612   0.00000  Uiso   1.00
H139   H     0.28513   0.54090   0.01721   0.00000  Uiso   1.00
H140   H     0.00157   0.66452   0.05621   0.00000  Uiso   1.00
H141   H     0.05708   0.36088   0.06311   0.00000  Uiso   1.00
H142   H     0.03799   0.66110   0.12186   0.00000  Uiso   1.00
I143   I     0.37612   0.61674   0.16183   0.00000  Uiso   1.00
I144   I     0.12388   0.38325   0.17150   0.00000  Uiso   1.00
I145   I     0.20425   0.63913   0.05799   0.00000  Uiso   1.00
I146   I     0.29575   0.36087   0.27534   0.00000  Uiso   1.00
N147   N     0.23744   0.48547   0.01284   0.00000  Uiso   1.00
N148   N     0.26255   0.51453   0.32049   0.00000  Uiso   1.00
O149   O     0.25325   0.42871   0.20659   0.00000  Uiso   1.00
O150   O     0.24674   0.57129   0.12674   0.00000  Uiso   1.00
O151   O     0.24480   0.41892   0.10279   0.00000  Uiso   1.00
O152   O     0.25520   0.58108   0.23055   0.00000  Uiso   1.00
O153   O     0.18935   0.50488   0.21857   0.00000  Uiso   1.00
O154   O     0.31064   0.49512   0.11476   0.00000  Uiso   1.00
O155   O     0.18090   0.49510   0.11477   0.00000  Uiso   1.00
O156   O     0.31910   0.50490   0.21857   0.00000  Uiso   1.00
C157   C     0.74851   0.40003   0.15138   0.00000  Uiso   1.00
C158   C     0.59004   0.44989   0.15746   0.00000  Uiso   1.00
C159   C     0.88365   0.50229   0.16439   0.00000  Uiso   1.00
C160   C     0.61635   0.49771   0.16894   0.00000  Uiso   1.00
C161   C     0.90286   0.45483   0.15103   0.00000  Uiso   1.00
C162   C     0.59714   0.54517   0.18231   0.00000  Uiso   1.00
C163   C     0.94894   0.45397   0.14909   0.00000  Uiso   1.00
C164   C     0.55106   0.54603   0.18425   0.00000  Uiso   1.00
C165   C     0.97658   0.50106   0.16652   0.00000  Uiso   1.00
C166   C     0.52342   0.49894   0.16681   0.00000  Uiso   1.00
C167   C     0.95736   0.55005   0.18345   0.00000  Uiso   1.00
C168   C     0.75149   0.59997   0.18195   0.00000  Uiso   1.00
C169   C     0.54264   0.44995   0.14988   0.00000  Uiso   1.00
C170   C     0.96727   0.40646   0.12841   0.00000  Uiso   1.00
C171   C     0.53273   0.59354   0.20492   0.00000  Uiso   1.00
C172   C     0.52878   0.35325   0.09021   0.00000  Uiso   1.00
C173   C     0.97122   0.64675   0.24312   0.00000  Uiso   1.00
C174   C     0.51351   0.40388   0.12605   0.00000  Uiso   1.00
C175   C     0.98649   0.59612   0.20728   0.00000  Uiso   1.00
C176   C     0.74274   0.34454   0.14361   0.00000  Uiso   1.00
C177   C     0.75726   0.65546   0.18973   0.00000  Uiso   1.00
C178   C     0.66450   0.49904   0.16738   0.00000  Uiso   1.00
C179   C     0.83550   0.50096   0.16595   0.00000  Uiso   1.00
C180   C     0.90996   0.55011   0.17587   0.00000  Uiso   1.00
Cu181  Cu    0.75500   0.50579   0.22813   0.00000  Uiso   1.00
Cu182  Cu    0.74499   0.49421   0.10521   0.00000  Uiso   1.00
H183   H     0.88153   0.41851   0.14018   0.00000  Uiso   1.00
H184   H     0.99843   0.33549   0.27711   0.00000  Uiso   1.00
H185   H     0.96200   0.33890   0.21146   0.00000  Uiso   1.00
H186   H     0.94293   0.63912   0.27022   0.00000  Uiso   1.00
H187   H     0.61846   0.58149   0.19316   0.00000  Uiso   1.00
H188   H     0.94510   0.37114   0.11175   0.00000  Uiso   1.00
H189   H     0.55490   0.62886   0.22158   0.00000  Uiso   1.00
H190   H     0.71487   0.45910   0.31612   0.00000  Uiso   1.00
H191   H     0.78513   0.54090   0.01721   0.00000  Uiso   1.00
H192   H     0.50157   0.66452   0.05621   0.00000  Uiso   1.00
H193   H     0.55708   0.36088   0.06311   0.00000  Uiso   1.00
H194   H     0.53799   0.66110   0.12186   0.00000  Uiso   1.00
I195   I     0.87612   0.61674   0.16183   0.00000  Uiso   1.00
I196   I     0.62388   0.38325   0.17150   0.00000  Uiso   1.00
I197   I     0.70425   0.63913   0.05799   0.00000  Uiso   1.00
I198   I     0.79575   0.36087   0.27534   0.00000  Uiso   1.00
N199   N     0.73744   0.48547   0.01284   0.00000  Uiso   1.00
N200   N     0.76255   0.51453   0.32049   0.00000  Uiso   1.00
O201   O     0.75325   0.42871   0.20659   0.00000  Uiso   1.00
O202   O     0.74674   0.57129   0.12674   0.00000  Uiso   1.00
O203   O     0.74480   0.41892   0.10279   0.00000  Uiso   1.00
O204   O     0.75520   0.58108   0.23055   0.00000  Uiso   1.00
O205   O     0.68935   0.50488   0.21857   0.00000  Uiso   1.00
O206   O     0.81064   0.49512   0.11476   0.00000  Uiso   1.00
O207   O     0.68090   0.49510   0.11477   0.00000  Uiso   1.00
O208   O     0.81910   0.50490   0.21857   0.00000  Uiso   1.00
C209   C     0.24851   0.73337   0.15138   0.00000  Uiso   1.00
C210   C     0.09004   0.78322   0.15746   0.00000  Uiso   1.00
C211   C     0.38365   0.83562   0.16439   0.00000  Uiso   1.00
C212   C     0.11635   0.83104   0.16894   0.00000  Uiso   1.00
C213   C     0.40286   0.78817   0.15103   0.00000  Uiso   1.00
C214   C     0.09714   0.87850   0.18231   0.00000  Uiso   1.00
C215   C     0.44894   0.78731   0.14909   0.00000  Uiso   1.00
C216   C     0.05106   0.87936   0.18425   0.00000  Uiso   1.00
C217   C     0.47658   0.83440   0.16652   0.00000  Uiso   1.00
C218   C     0.02342   0.83227   0.16681   0.00000  Uiso   1.00
C219   C     0.45736   0.88338   0.18345   0.00000  Uiso   1.00
C220   C     0.25149   0.93330   0.18195   0.00000  Uiso   1.00
C221   C     0.04264   0.78329   0.14988   0.00000  Uiso   1.00
C222   C     0.46727   0.73980   0.12841   0.00000  Uiso   1.00
C223   C     0.03273   0.92687   0.20492   0.00000  Uiso   1.00
C224   C     0.02878   0.68659   0.09021   0.00000  Uiso   1.00
C225   C     0.47122   0.98008   0.24312   0.00000  Uiso   1.00
C226   C     0.01351   0.73721   0.12605   0.00000  Uiso   1.00
C227   C     0.48649   0.92945   0.20728   0.00000  Uiso   1.00
C228   C     0.24274   0.67787   0.14361   0.00000  Uiso   1.00
C229   C     0.25726   0.98879   0.18973   0.00000  Uiso   1.00
C230   C     0.16450   0.83238   0.16738   0.00000  Uiso   1.00
C231   C     0.33550   0.83429   0.16595   0.00000  Uiso   1.00
C232   C     0.40996   0.88345   0.17587   0.00000  Uiso   1.00
Cu233  Cu    0.25500   0.83913   0.22813   0.00000  Uiso   1.00
Cu234  Cu    0.24499   0.82754   0.10521   0.00000  Uiso   1.00
H235   H     0.38153   0.75184   0.14018   0.00000  Uiso   1.00
H236   H     0.49843   0.66882   0.27711   0.00000  Uiso   1.00
H237   H     0.46200   0.67223   0.21146   0.00000  Uiso   1.00
H238   H     0.44293   0.97245   0.27022   0.00000  Uiso   1.00
H239   H     0.11846   0.91483   0.19316   0.00000  Uiso   1.00
H240   H     0.44510   0.70447   0.11175   0.00000  Uiso   1.00
H241   H     0.05490   0.96219   0.22158   0.00000  Uiso   1.00
H242   H     0.21487   0.79243   0.31612   0.00000  Uiso   1.00
H243   H     0.28513   0.87424   0.01721   0.00000  Uiso   1.00
H244   H     0.00157   0.99785   0.05621   0.00000  Uiso   1.00
H245   H     0.05708   0.69422   0.06311   0.00000  Uiso   1.00
H246   H     0.03799   0.99443   0.12186   0.00000  Uiso   1.00
I247   I     0.37612   0.95008   0.16183   0.00000  Uiso   1.00
I248   I     0.12388   0.71659   0.17150   0.00000  Uiso   1.00
I249   I     0.20425   0.97246   0.05799   0.00000  Uiso   1.00
I250   I     0.29575   0.69420   0.27534   0.00000  Uiso   1.00
N251   N     0.23744   0.81881   0.01284   0.00000  Uiso   1.00
N252   N     0.26255   0.84786   0.32049   0.00000  Uiso   1.00
O253   O     0.25325   0.76204   0.20659   0.00000  Uiso   1.00
O254   O     0.24674   0.90462   0.12674   0.00000  Uiso   1.00
O255   O     0.24480   0.75226   0.10279   0.00000  Uiso   1.00
O256   O     0.25520   0.91441   0.23055   0.00000  Uiso   1.00
O257   O     0.18935   0.83821   0.21857   0.00000  Uiso   1.00
O258   O     0.31064   0.82845   0.11476   0.00000  Uiso   1.00
O259   O     0.18090   0.82843   0.11477   0.00000  Uiso   1.00
O260   O     0.31910   0.83824   0.21857   0.00000  Uiso   1.00
C261   C     0.74851   0.73337   0.15138   0.00000  Uiso   1.00
C262   C     0.59004   0.78322   0.15746   0.00000  Uiso   1.00
C263   C     0.88365   0.83562   0.16439   0.00000  Uiso   1.00
C264   C     0.61635   0.83104   0.16894   0.00000  Uiso   1.00
C265   C     0.90286   0.78817   0.15103   0.00000  Uiso   1.00
C266   C     0.59714   0.87850   0.18231   0.00000  Uiso   1.00
C267   C     0.94894   0.78731   0.14909   0.00000  Uiso   1.00
C268   C     0.55106   0.87936   0.18425   0.00000  Uiso   1.00
C269   C     0.97658   0.83440   0.16652   0.00000  Uiso   1.00
C270   C     0.52342   0.83227   0.16681   0.00000  Uiso   1.00
C271   C     0.95736   0.88338   0.18345   0.00000  Uiso   1.00
C272   C     0.75149   0.93330   0.18195   0.00000  Uiso   1.00
C273   C     0.54264   0.78329   0.14988   0.00000  Uiso   1.00
C274   C     0.96727   0.73980   0.12841   0.00000  Uiso   1.00
C275   C     0.53273   0.92687   0.20492   0.00000  Uiso   1.00
C276   C     0.52878   0.68659   0.09021   0.00000  Uiso   1.00
C277   C     0.97122   0.98008   0.24312   0.00000  Uiso   1.00
C278   C     0.51351   0.73721   0.12605   0.00000  Uiso   1.00
C279   C     0.98649   0.92945   0.20728   0.00000  Uiso   1.00
C280   C     0.74274   0.67787   0.14361   0.00000  Uiso   1.00
C281   C     0.75726   0.98879   0.18973   0.00000  Uiso   1.00
C282   C     0.66450   0.83238   0.16738   0.00000  Uiso   1.00
C283   C     0.83550   0.83429   0.16595   0.00000  Uiso   1.00
C284   C     0.90996   0.88345   0.17587   0.00000  Uiso   1.00
Cu285  Cu    0.75500   0.83913   0.22813   0.00000  Uiso   1.00
Cu286  Cu    0.74499   0.82754   0.10521   0.00000  Uiso   1.00
H287   H     0.88153   0.75184   0.14018   0.00000  Uiso   1.00
H288   H     0.99843   0.66882   0.27711   0.00000  Uiso   1.00
H289   H     0.96200   0.67223   0.21146   0.00000  Uiso   1.00
H290   H     0.94293   0.97245   0.27022   0.00000  Uiso   1.00
H291   H     0.61846   0.91483   0.19316   0.00000  Uiso   1.00
H292   H     0.94510   0.70447   0.11175   0.00000  Uiso   1.00
H293   H     0.55490   0.96219   0.22158   0.00000  Uiso   1.00
H294   H     0.71487   0.79243   0.31612   0.00000  Uiso   1.00
H295   H     0.78513   0.87424   0.01721   0.00000  Uiso   1.00
H296   H     0.50157   0.99785   0.05621   0.00000  Uiso   1.00
H297   H     0.55708   0.69422   0.06311   0.00000  Uiso   1.00
H298   H     0.53799   0.99443   0.12186   0.00000  Uiso   1.00
I299   I     0.87612   0.95008   0.16183   0.00000  Uiso   1.00
I300   I     0.62388   0.71659   0.17150   0.00000  Uiso   1.00
I301   I     0.70425   0.97246   0.05799   0.00000  Uiso   1.00
I302   I     0.79575   0.69420   0.27534   0.00000  Uiso   1.00
N303   N     0.73744   0.81881   0.01284   0.00000  Uiso   1.00
N304   N     0.76255   0.84786   0.32049   0.00000  Uiso   1.00
O305   O     0.75325   0.76204   0.20659   0.00000  Uiso   1.00
O306   O     0.74674   0.90462   0.12674   0.00000  Uiso   1.00
O307   O     0.74480   0.75226   0.10279   0.00000  Uiso   1.00
O308   O     0.75520   0.91441   0.23055   0.00000  Uiso   1.00
O309   O     0.68935   0.83821   0.21857   0.00000  Uiso   1.00
O310   O     0.81064   0.82845   0.11476   0.00000  Uiso   1.00
O311   O     0.68090   0.82843   0.11477   0.00000  Uiso   1.00
O312   O     0.81910   0.83824   0.21857   0.00000  Uiso   1.00
C313   C     0.24851   0.06670   0.48472   0.00000  Uiso   1.00
C314   C     0.09004   0.11655   0.49079   0.00000  Uiso   1.00
C315   C     0.38365   0.16896   0.49773   0.00000  Uiso   1.00
C316   C     0.11635   0.16438   0.50227   0.00000  Uiso   1.00
C317   C     0.40286   0.12150   0.48436   0.00000  Uiso   1.00
C318   C     0.09714   0.21184   0.51564   0.00000  Uiso   1.00
C319   C     0.44894   0.12064   0.48242   0.00000  Uiso   1.00
C320   C     0.05106   0.21269   0.51758   0.00000  Uiso   1.00
C321   C     0.47658   0.16773   0.49985   0.00000  Uiso   1.00
C322   C     0.02342   0.16560   0.50014   0.00000  Uiso   1.00
C323   C     0.45736   0.21671   0.51678   0.00000  Uiso   1.00
C324   C     0.25149   0.26663   0.51528   0.00000  Uiso   1.00
C325   C     0.04264   0.11662   0.48322   0.00000  Uiso   1.00
C326   C     0.46727   0.07313   0.46174   0.00000  Uiso   1.00
C327   C     0.03273   0.26021   0.53826   0.00000  Uiso   1.00
C328   C     0.02878   0.01992   0.42354   0.00000  Uiso   1.00
C329   C     0.47122   0.31341   0.57645   0.00000  Uiso   1.00
C330   C     0.01351   0.07055   0.45938   0.00000  Uiso   1.00
C331   C     0.48649   0.26279   0.54062   0.00000  Uiso   1.00
C332   C     0.24274   0.01121   0.47694   0.00000  Uiso   1.00
C333   C     0.25726   0.32213   0.52306   0.00000  Uiso   1.00
C334   C     0.16450   0.16571   0.50071   0.00000  Uiso   1.00
C335   C     0.33550   0.16762   0.49929   0.00000  Uiso   1.00
C336   C     0.40996   0.21678   0.50921   0.00000  Uiso   1.00
Cu337  Cu    0.25500   0.17246   0.56146   0.00000  Uiso   1.00
Cu338  Cu    0.24499   0.16087   0.43854   0.00000  Uiso   1.00
H339   H     0.38153   0.08518   0.47351   0.00000  Uiso   1.00
H340   H     0.49843   0.00216   0.61044   0.00000  Uiso   1.00
H341   H     0.46200   0.00556   0.54480   0.00000  Uiso   1.00
H342   H     0.44293   0.30579   0.60356   0.00000  Uiso   1.00
H343   H     0.11846   0.24816   0.52649   0.00000  Uiso   1.00
H344   H     0.44510   0.03781   0.44508   0.00000  Uiso   1.00
H345   H     0.05490   0.29553   0.55492   0.00000  Uiso   1.00
H346   H     0.21487   0.12576   0.64945   0.00000  Uiso   1.00
H347   H     0.28513   0.20757   0.35055   0.00000  Uiso   1.00
H348   H     0.00157   0.33118   0.38954   0.00000  Uiso   1.00
H349   H     0.05708   0.02755   0.39644   0.00000  Uiso   1.00
H350   H     0.03799   0.32777   0.45519   0.00000  Uiso   1.00
I351   I     0.37612   0.28341   0.49516   0.00000  Uiso   1.00
I352   I     0.12388   0.04992   0.50484   0.00000  Uiso   1.00
I353   I     0.20425   0.30580   0.39133   0.00000  Uiso   1.00
I354   I     0.29575   0.02754   0.60867   0.00000  Uiso   1.00
N355   N     0.23744   0.15214   0.34617   0.00000  Uiso   1.00
N356   N     0.26255   0.18119   0.65383   0.00000  Uiso   1.00
O357   O     0.25325   0.09538   0.53992   0.00000  Uiso   1.00
O358   O     0.24674   0.23796   0.46008   0.00000  Uiso   1.00
O359   O     0.24480   0.08559   0.43612   0.00000  Uiso   1.00
O360   O     0.25520   0.24774   0.56388   0.00000  Uiso   1.00
O361   O     0.18935   0.17155   0.55191   0.00000  Uiso   1.00
O362   O     0.31064   0.16179   0.44809   0.00000  Uiso   1.00
O363   O     0.18090   0.16176   0.44810   0.00000  Uiso   1.00
O364   O     0.31910   0.17157   0.55190   0.00000  Uiso   1.00
C365   C     0.74851   0.06670   0.48472   0.00000  Uiso   1.00
C366   C     0.59004   0.11655   0.49079   0.00000  Uiso   1.00
C367   C     0.88365   0.16896   0.49773   0.00000  Uiso   1.00
C368   C     0.61635   0.16438   0.50227   0.00000  Uiso   1.00
C369   C     0.90286   0.12150   0.48436   0.00000  Uiso   1.00
C370   C     0.59714   0.21184   0.51564   0.00000  Uiso   1.00
C371   C     0.94894   0.12064   0.48242   0.00000  Uiso   1.00
C372   C     0.55106   0.21269   0.51758   0.00000  Uiso   1.00
C373   C     0.97658   0.16773   0.49985   0.00000  Uiso   1.00
C374   C     0.52342   0.16560   0.50014   0.00000  Uiso   1.00
C375   C     0.95736   0.21671   0.51678   0.00000  Uiso   1.00
C376   C     0.75149   0.26663   0.51528   0.00000  Uiso   1.00
C377   C     0.54264   0.11662   0.48322   0.00000  Uiso   1.00
C378   C     0.96727   0.07313   0.46174   0.00000  Uiso   1.00
C379   C     0.53273   0.26021   0.53826   0.00000  Uiso   1.00
C380   C     0.52878   0.01992   0.42354   0.00000  Uiso   1.00
C381   C     0.97122   0.31341   0.57645   0.00000  Uiso   1.00
C382   C     0.51351   0.07055   0.45938   0.00000  Uiso   1.00
C383   C     0.98649   0.26279   0.54062   0.00000  Uiso   1.00
C384   C     0.74274   0.01121   0.47694   0.00000  Uiso   1.00
C385   C     0.75726   0.32213   0.52306   0.00000  Uiso   1.00
C386   C     0.66450   0.16571   0.50071   0.00000  Uiso   1.00
C387   C     0.83550   0.16762   0.49929   0.00000  Uiso   1.00
C388   C     0.90996   0.21678   0.50921   0.00000  Uiso   1.00
Cu389  Cu    0.75500   0.17246   0.56146   0.00000  Uiso   1.00
Cu390  Cu    0.74499   0.16087   0.43854   0.00000  Uiso   1.00
H391   H     0.88153   0.08518   0.47351   0.00000  Uiso   1.00
H392   H     0.99843   0.00216   0.61044   0.00000  Uiso   1.00
H393   H     0.96200   0.00556   0.54480   0.00000  Uiso   1.00
H394   H     0.94293   0.30579   0.60356   0.00000  Uiso   1.00
H395   H     0.61846   0.24816   0.52649   0.00000  Uiso   1.00
H396   H     0.94510   0.03781   0.44508   0.00000  Uiso   1.00
H397   H     0.55490   0.29553   0.55492   0.00000  Uiso   1.00
H398   H     0.71487   0.12576   0.64945   0.00000  Uiso   1.00
H399   H     0.78513   0.20757   0.35055   0.00000  Uiso   1.00
H400   H     0.50157   0.33118   0.38954   0.00000  Uiso   1.00
H401   H     0.55708   0.02755   0.39644   0.00000  Uiso   1.00
H402   H     0.53799   0.32777   0.45519   0.00000  Uiso   1.00
I403   I     0.87612   0.28341   0.49516   0.00000  Uiso   1.00
I404   I     0.62388   0.04992   0.50484   0.00000  Uiso   1.00
I405   I     0.70425   0.30580   0.39133   0.00000  Uiso   1.00
I406   I     0.79575   0.02754   0.60867   0.00000  Uiso   1.00
N407   N     0.73744   0.15214   0.34617   0.00000  Uiso   1.00
N408   N     0.76255   0.18119   0.65383   0.00000  Uiso   1.00
O409   O     0.75325   0.09538   0.53992   0.00000  Uiso   1.00
O410   O     0.74674   0.23796   0.46008   0.00000  Uiso   1.00
O411   O     0.74480   0.08559   0.43612   0.00000  Uiso   1.00
O412   O     0.75520   0.24774   0.56388   0.00000  Uiso   1.00
O413   O     0.68935   0.17155   0.55191   0.00000  Uiso   1.00
O414   O     0.81064   0.16179   0.44809   0.00000  Uiso   1.00
O415   O     0.68090   0.16176   0.44810   0.00000  Uiso   1.00
O416   O     0.81910   0.17157   0.55190   0.00000  Uiso   1.00
C417   C     0.24851   0.40003   0.48472   0.00000  Uiso   1.00
C418   C     0.09004   0.44989   0.49079   0.00000  Uiso   1.00
C419   C     0.38365   0.50229   0.49773   0.00000  Uiso   1.00
C420   C     0.11635   0.49771   0.50227   0.00000  Uiso   1.00
C421   C     0.40286   0.45483   0.48436   0.00000  Uiso   1.00
C422   C     0.09714   0.54517   0.51564   0.00000  Uiso   1.00
C423   C     0.44894   0.45397   0.48242   0.00000  Uiso   1.00
C424   C     0.05106   0.54603   0.51758   0.00000  Uiso   1.00
C425   C     0.47658   0.50106   0.49985   0.00000  Uiso   1.00
C426   C     0.02342   0.49894   0.50014   0.00000  Uiso   1.00
C427   C     0.45736   0.55005   0.51678   0.00000  Uiso   1.00
C428   C     0.25149   0.59997   0.51528   0.00000  Uiso   1.00
C429   C     0.04264   0.44995   0.48322   0.00000  Uiso   1.00
C430   C     0.46727   0.40646   0.46174   0.00000  Uiso   1.00
C431   C     0.03273   0.59354   0.53826   0.00000  Uiso   1.00
C432   C     0.02878   0.35325   0.42354   0.00000  Uiso   1.00
C433   C     0.47122   0.64675   0.57645   0.00000  Uiso   1.00
C434   C     0.01351   0.40388   0.45938   0.00000  Uiso   1.00
C435   C     0.48649   0.59612   0.54062   0.00000  Uiso   1.00
C436   C     0.24274   0.34454   0.47694   0.00000  Uiso   1.00
C437   C     0.25726   0.65546   0.52306   0.00000  Uiso   1.00
C438   C     0.16450   0.49904   0.50071   0.00000  Uiso   1.00
C439   C     0.33550   0.50096   0.49929   0.00000  Uiso   1.00
C440   C     0.40996   0.55011   0.50921   0.00000  Uiso   1.00
Cu441  Cu    0.25500   0.50579   0.56146   0.00000  Uiso   1.00
Cu442  Cu    0.24499   0.49421   0.43854   0.00000  Uiso   1.00
H443   H     0.38153   0.41851   0.47351   0.00000  Uiso   1.00
H444   H     0.49843   0.33549   0.61044   0.00000  Uiso   1.00
H445   H     0.46200   0.33890   0.54480   0.00000  Uiso   1.00
H446   H     0.44293   0.63912   0.60356   0.00000  Uiso   1.00
H447   H     0.11846   0.58149   0.52649   0.00000  Uiso   1.00
H448   H     0.44510   0.37114   0.44508   0.00000  Uiso   1.00
H449   H     0.05490   0.62886   0.55492   0.00000  Uiso   1.00
H450   H     0.21487   0.45910   0.64945   0.00000  Uiso   1.00
H451   H     0.28513   0.54090   0.35055   0.00000  Uiso   1.00
H452   H     0.00157   0.66452   0.38954   0.00000  Uiso   1.00
H453   H     0.05708   0.36088   0.39644   0.00000  Uiso   1.00
H454   H     0.03799   0.66110   0.45519   0.00000  Uiso   1.00
I455   I     0.37612   0.61674   0.49516   0.00000  Uiso   1.00
I456   I     0.12388   0.38325   0.50484   0.00000  Uiso   1.00
I457   I     0.20425   0.63913   0.39133   0.00000  Uiso   1.00
I458   I     0.29575   0.36087   0.60867   0.00000  Uiso   1.00
N459   N     0.23744   0.48547   0.34617   0.00000  Uiso   1.00
N460   N     0.26255   0.51453   0.65383   0.00000  Uiso   1.00
O461   O     0.25325   0.42871   0.53992   0.00000  Uiso   1.00
O462   O     0.24674   0.57129   0.46008   0.00000  Uiso   1.00
O463   O     0.24480   0.41892   0.43612   0.00000  Uiso   1.00
O464   O     0.25520   0.58108   0.56388   0.00000  Uiso   1.00
O465   O     0.18935   0.50488   0.55191   0.00000  Uiso   1.00
O466   O     0.31064   0.49512   0.44809   0.00000  Uiso   1.00
O467   O     0.18090   0.49510   0.44810   0.00000  Uiso   1.00
O468   O     0.31910   0.50490   0.55190   0.00000  Uiso   1.00
C469   C     0.74851   0.40003   0.48472   0.00000  Uiso   1.00
C470   C     0.59004   0.44989   0.49079   0.00000  Uiso   1.00
C471   C     0.88365   0.50229   0.49773   0.00000  Uiso   1.00
C472   C     0.61635   0.49771   0.50227   0.00000  Uiso   1.00
C473   C     0.90286   0.45483   0.48436   0.00000  Uiso   1.00
C474   C     0.59714   0.54517   0.51564   0.00000  Uiso   1.00
C475   C     0.94894   0.45397   0.48242   0.00000  Uiso   1.00
C476   C     0.55106   0.54603   0.51758   0.00000  Uiso   1.00
C477   C     0.97658   0.50106   0.49985   0.00000  Uiso   1.00
C478   C     0.52342   0.49894   0.50014   0.00000  Uiso   1.00
C479   C     0.95736   0.55005   0.51678   0.00000  Uiso   1.00
C480   C     0.75149   0.59997   0.51528   0.00000  Uiso   1.00
C481   C     0.54264   0.44995   0.48322   0.00000  Uiso   1.00
C482   C     0.96727   0.40646   0.46174   0.00000  Uiso   1.00
C483   C     0.53273   0.59354   0.53826   0.00000  Uiso   1.00
C484   C     0.52878   0.35325   0.42354   0.00000  Uiso   1.00
C485   C     0.97122   0.64675   0.57645   0.00000  Uiso   1.00
C486   C     0.51351   0.40388   0.45938   0.00000  Uiso   1.00
C487   C     0.98649   0.59612   0.54062   0.00000  Uiso   1.00
C488   C     0.74274   0.34454   0.47694   0.00000  Uiso   1.00
C489   C     0.75726   0.65546   0.52306   0.00000  Uiso   1.00
C490   C     0.66450   0.49904   0.50071   0.00000  Uiso   1.00
C491   C     0.83550   0.50096   0.49929   0.00000  Uiso   1.00
C492   C     0.90996   0.55011   0.50921   0.00000  Uiso   1.00
Cu493  Cu    0.75500   0.50579   0.56146   0.00000  Uiso   1.00
Cu494  Cu    0.74499   0.49421   0.43854   0.00000  Uiso   1.00
H495   H     0.88153   0.41851   0.47351   0.00000  Uiso   1.00
H496   H     0.99843   0.33549   0.61044   0.00000  Uiso   1.00
H497   H     0.96200   0.33890   0.54480   0.00000  Uiso   1.00
H498   H     0.94293   0.63912   0.60356   0.00000  Uiso   1.00
H499   H     0.61846   0.58149   0.52649   0.00000  Uiso   1.00
H500   H     0.94510   0.37114   0.44508   0.00000  Uiso   1.00
H501   H     0.55490   0.62886   0.55492   0.00000  Uiso   1.00
H502   H     0.71487   0.45910   0.64945   0.00000  Uiso   1.00
H503   H     0.78513   0.54090   0.35055   0.00000  Uiso   1.00
H504   H     0.50157   0.66452   0.38954   0.00000  Uiso   1.00
H505   H     0.55708   0.36088   0.39644   0.00000  Uiso   1.00
H506   H     0.53799   0.66110   0.45519   0.00000  Uiso   1.00
I507   I     0.87612   0.61674   0.49516   0.00000  Uiso   1.00
I508   I     0.62388   0.38325   0.50484   0.00000  Uiso   1.00
I509   I     0.70425   0.63913   0.39133   0.00000  Uiso   1.00
I510   I     0.79575   0.36087   0.60867   0.00000  Uiso   1.00
N511   N     0.73744   0.48547   0.34617   0.00000  Uiso   1.00
N512   N     0.76255   0.51453   0.65383   0.00000  Uiso   1.00
O513   O     0.75325   0.42871   0.53992   0.00000  Uiso   1.00
O514   O     0.74674   0.57129   0.46008   0.00000  Uiso   1.00
O515   O     0.74480   0.41892   0.43612   0.00000  Uiso   1.00
O516   O     0.75520   0.58108   0.56388   0.00000  Uiso   1.00
O517   O     0.68935   0.50488   0.55191   0.00000  Uiso   1.00
O518   O     0.81064   0.49512   0.44809   0.00000  Uiso   1.00
O519   O     0.68090   0.49510   0.44810   0.00000  Uiso   1.00
O520   O     0.81910   0.50490   0.55190   0.00000  Uiso   1.00
C521   C     0.24851   0.73337   0.48472   0.00000  Uiso   1.00
C522   C     0.09004   0.78322   0.49079   0.00000  Uiso   1.00
C523   C     0.38365   0.83562   0.49773   0.00000  Uiso   1.00
C524   C     0.11635   0.83104   0.50227   0.00000  Uiso   1.00
C525   C     0.40286   0.78817   0.48436   0.00000  Uiso   1.00
C526   C     0.09714   0.87850   0.51564   0.00000  Uiso   1.00
C527   C     0.44894   0.78731   0.48242   0.00000  Uiso   1.00
C528   C     0.05106   0.87936   0.51758   0.00000  Uiso   1.00
C529   C     0.47658   0.83440   0.49985   0.00000  Uiso   1.00
C530   C     0.02342   0.83227   0.50014   0.00000  Uiso   1.00
C531   C     0.45736   0.88338   0.51678   0.00000  Uiso   1.00
C532   C     0.25149   0.93330   0.51528   0.00000  Uiso   1.00
C533   C     0.04264   0.78329   0.48322   0.00000  Uiso   1.00
C534   C     0.46727   0.73980   0.46174   0.00000  Uiso   1.00
C535   C     0.03273   0.92687   0.53826   0.00000  Uiso   1.00
C536   C     0.02878   0.68659   0.42354   0.00000  Uiso   1.00
C537   C     0.47122   0.98008   0.57645   0.00000  Uiso   1.00
C538   C     0.01351   0.73721   0.45938   0.00000  Uiso   1.00
C539   C     0.48649   0.92945   0.54062   0.00000  Uiso   1.00
C540   C     0.24274   0.67787   0.47694   0.00000  Uiso   1.00
C541   C     0.25726   0.98879   0.52306   0.00000  Uiso   1.00
C542   C     0.16450   0.83238   0.50071   0.00000  Uiso   1.00
C543   C     0.33550   0.83429   0.49929   0.00000  Uiso   1.00
C544   C     0.40996   0.88345   0.50921   0.00000  Uiso   1.00
Cu545  Cu    0.25500   0.83913   0.56146   0.00000  Uiso   1.00
Cu546  Cu    0.24499   0.82754   0.43854   0.00000  Uiso   1.00
H547   H     0.38153   0.75184   0.47351   0.00000  Uiso   1.00
H548   H     0.49843   0.66882   0.61044   0.00000  Uiso   1.00
H549   H     0.46200   0.67223   0.54480   0.00000  Uiso   1.00
H550   H     0.44293   0.97245   0.60356   0.00000  Uiso   1.00
H551   H     0.11846   0.91483   0.52649   0.00000  Uiso   1.00
H552   H     0.44510   0.70447   0.44508   0.00000  Uiso   1.00
H553   H     0.05490   0.96219   0.55492   0.00000  Uiso   1.00
H554   H     0.21487   0.79243   0.64945   0.00000  Uiso   1.00
H555   H     0.28513   0.87424   0.35055   0.00000  Uiso   1.00
H556   H     0.00157   0.99785   0.38954   0.00000  Uiso   1.00
H557   H     0.05708   0.69422   0.39644   0.00000  Uiso   1.00
H558   H     0.03799   0.99443   0.45519   0.00000  Uiso   1.00
I559   I     0.37612   0.95008   0.49516   0.00000  Uiso   1.00
I560   I     0.12388   0.71659   0.50484   0.00000  Uiso   1.00
I561   I     0.20425   0.97246   0.39133   0.00000  Uiso   1.00
I562   I     0.29575   0.69420   0.60867   0.00000  Uiso   1.00
N563   N     0.23744   0.81881   0.34617   0.00000  Uiso   1.00
N564   N     0.26255   0.84786   0.65383   0.00000  Uiso   1.00
O565   O     0.25325   0.76204   0.53992   0.00000  Uiso   1.00
O566   O     0.24674   0.90462   0.46008   0.00000  Uiso   1.00
O567   O     0.24480   0.75226   0.43612   0.00000  Uiso   1.00
O568   O     0.25520   0.91441   0.56388   0.00000  Uiso   1.00
O569   O     0.18935   0.83821   0.55191   0.00000  Uiso   1.00
O570   O     0.31064   0.82845   0.44809   0.00000  Uiso   1.00
O571   O     0.18090   0.82843   0.44810   0.00000  Uiso   1.00
O572   O     0.31910   0.83824   0.55190   0.00000  Uiso   1.00
C573   C     0.74851   0.73337   0.48472   0.00000  Uiso   1.00
C574   C     0.59004   0.78322   0.49079   0.00000  Uiso   1.00
C575   C     0.88365   0.83562   0.49773   0.00000  Uiso   1.00
C576   C     0.61635   0.83104   0.50227   0.00000  Uiso   1.00
C577   C     0.90286   0.78817   0.48436   0.00000  Uiso   1.00
C578   C     0.59714   0.87850   0.51564   0.00000  Uiso   1.00
C579   C     0.94894   0.78731   0.48242   0.00000  Uiso   1.00
C580   C     0.55106   0.87936   0.51758   0.00000  Uiso   1.00
C581   C     0.97658   0.83440   0.49985   0.00000  Uiso   1.00
C582   C     0.52342   0.83227   0.50014   0.00000  Uiso   1.00
C583   C     0.95736   0.88338   0.51678   0.00000  Uiso   1.00
C584   C     0.75149   0.93330   0.51528   0.00000  Uiso   1.00
C585   C     0.54264   0.78329   0.48322   0.00000  Uiso   1.00
C586   C     0.96727   0.73980   0.46174   0.00000  Uiso   1.00
C587   C     0.53273   0.92687   0.53826   0.00000  Uiso   1.00
C588   C     0.52878   0.68659   0.42354   0.00000  Uiso   1.00
C589   C     0.97122   0.98008   0.57645   0.00000  Uiso   1.00
C590   C     0.51351   0.73721   0.45938   0.00000  Uiso   1.00
C591   C     0.98649   0.92945   0.54062   0.00000  Uiso   1.00
C592   C     0.74274   0.67787   0.47694   0.00000  Uiso   1.00
C593   C     0.75726   0.98879   0.52306   0.00000  Uiso   1.00
C594   C     0.66450   0.83238   0.50071   0.00000  Uiso   1.00
C595   C     0.83550   0.83429   0.49929   0.00000  Uiso   1.00
C596   C     0.90996   0.88345   0.50921   0.00000  Uiso   1.00
Cu597  Cu    0.75500   0.83913   0.56146   0.00000  Uiso   1.00
Cu598  Cu    0.74499   0.82754   0.43854   0.00000  Uiso   1.00
H599   H     0.88153   0.75184   0.47351   0.00000  Uiso   1.00
H600   H     0.99843   0.66882   0.61044   0.00000  Uiso   1.00
H601   H     0.96200   0.67223   0.54480   0.00000  Uiso   1.00
H602   H     0.94293   0.97245   0.60356   0.00000  Uiso   1.00
H603   H     0.61846   0.91483   0.52649   0.00000  Uiso   1.00
H604   H     0.94510   0.70447   0.44508   0.00000  Uiso   1.00
H605   H     0.55490   0.96219   0.55492   0.00000  Uiso   1.00
H606   H     0.71487   0.79243   0.64945   0.00000  Uiso   1.00
H607   H     0.78513   0.87424   0.35055   0.00000  Uiso   1.00
H608   H     0.50157   0.99785   0.38954   0.00000  Uiso   1.00
H609   H     0.55708   0.69422   0.39644   0.00000  Uiso   1.00
H610   H     0.53799   0.99443   0.45519   0.00000  Uiso   1.00
I611   I     0.87612   0.95008   0.49516   0.00000  Uiso   1.00
I612   I     0.62388   0.71659   0.50484   0.00000  Uiso   1.00
I613   I     0.70425   0.97246   0.39133   0.00000  Uiso   1.00
I614   I     0.79575   0.69420   0.60867   0.00000  Uiso   1.00
N615   N     0.73744   0.81881   0.34617   0.00000  Uiso   1.00
N616   N     0.76255   0.84786   0.65383   0.00000  Uiso   1.00
O617   O     0.75325   0.76204   0.53992   0.00000  Uiso   1.00
O618   O     0.74674   0.90462   0.46008   0.00000  Uiso   1.00
O619   O     0.74480   0.75226   0.43612   0.00000  Uiso   1.00
O620   O     0.75520   0.91441   0.56388   0.00000  Uiso   1.00
O621   O     0.68935   0.83821   0.55191   0.00000  Uiso   1.00
O622   O     0.81064   0.82845   0.44809   0.00000  Uiso   1.00
O623   O     0.68090   0.82843   0.44810   0.00000  Uiso   1.00
O624   O     0.81910   0.83824   0.55190   0.00000  Uiso   1.00
C625   C     0.24851   0.06670   0.81805   0.00000  Uiso   1.00
C626   C     0.09004   0.11655   0.82412   0.00000  Uiso   1.00
C627   C     0.38365   0.16896   0.83106   0.00000  Uiso   1.00
C628   C     0.11635   0.16438   0.83561   0.00000  Uiso   1.00
C629   C     0.40286   0.12150   0.81769   0.00000  Uiso   1.00
C630   C     0.09714   0.21184   0.84897   0.00000  Uiso   1.00
C631   C     0.44894   0.12064   0.81575   0.00000  Uiso   1.00
C632   C     0.05106   0.21269   0.85091   0.00000  Uiso   1.00
C633   C     0.47658   0.16773   0.83319   0.00000  Uiso   1.00
C634   C     0.02342   0.16560   0.83348   0.00000  Uiso   1.00
C635   C     0.45736   0.21671   0.85011   0.00000  Uiso   1.00
C636   C     0.25149   0.26663   0.84862   0.00000  Uiso   1.00
C637   C     0.04264   0.11662   0.81655   0.00000  Uiso   1.00
C638   C     0.46727   0.07313   0.79507   0.00000  Uiso   1.00
C639   C     0.03273   0.26021   0.87159   0.00000  Uiso   1.00
C640   C     0.02878   0.01992   0.75688   0.00000  Uiso   1.00
C641   C     0.47122   0.31341   0.90978   0.00000  Uiso   1.00
C642   C     0.01351   0.07055   0.79271   0.00000  Uiso   1.00
C643   C     0.48649   0.26279   0.87395   0.00000  Uiso   1.00
C644   C     0.24274   0.01121   0.81027   0.00000  Uiso   1.00
C645   C     0.25726   0.32213   0.85639   0.00000  Uiso   1.00
C646   C     0.16450   0.16571   0.83404   0.00000  Uiso   1.00
C647   C     0.33550   0.16762   0.83262   0.00000  Uiso   1.00
C648   C     0.40996   0.21678   0.84254   0.00000  Uiso   1.00
Cu649  Cu    0.25500   0.17246   0.89479   0.00000  Uiso   1.00
Cu650  Cu    0.24499   0.16087   0.77187   0.00000  Uiso   1.00
H651   H     0.38153   0.08518   0.80684   0.00000  Uiso   1.00
H652   H     0.49843   0.00216   0.94378   0.00000  Uiso   1.00
H653   H     0.46200   0.00556   0.87813   0.00000  Uiso   1.00
H654   H     0.44293   0.30579   0.93689   0.00000  Uiso   1.00
H655   H     0.11846   0.24816   0.85982   0.00000  Uiso   1.00
H656   H     0.44510   0.03781   0.77841   0.00000  Uiso   1.00
H657   H     0.05490   0.29553   0.88825   0.00000  Uiso   1.00
H658   H     0.21487   0.12576   0.98278   0.00000  Uiso   1.00
H659   H     0.28513   0.20757   0.68388   0.00000  Uiso   1.00
H660   H     0.00157   0.33118   0.72287   0.00000  Uiso   1.00
H661   H     0.05708   0.02755   0.72978   0.00000  Uiso   1.00
H662   H     0.03799   0.32777   0.78852   0.00000  Uiso   1.00
I663   I     0.37612   0.28341   0.82850   0.00000  Uiso   1.00
I664   I     0.12388   0.04992   0.83817   0.00000  Uiso   1.00
I665   I     0.20425   0.30580   0.72466   0.00000  Uiso   1.00
I666   I     0.29575   0.02754   0.94201   0.00000  Uiso   1.00
N667   N     0.23744   0.15214   0.67951   0.00000  Uiso   1.00
N668   N     0.26255   0.18119   0.98716   0.00000  Uiso   1.00
O669   O     0.25325   0.09538   0.87326   0.00000  Uiso   1.00
O670   O     0.24674   0.23796   0.79341   0.00000  Uiso   1.00
O671   O     0.24480   0.08559   0.76945   0.00000  Uiso   1.00
O672   O     0.25520   0.24774   0.89721   0.00000  Uiso   1.00
O673   O     0.18935   0.17155   0.88524   0.00000  Uiso   1.00
O674   O     0.31064   0.16179   0.78143   0.00000  Uiso   1.00
O675   O     0.18090   0.16176   0.78143   0.00000  Uiso   1.00
O676   O     0.31910   0.17157   0.88523   0.00000  Uiso   1.00
C677   C     0.74851   0.06670   0.81805   0.00000  Uiso   1.00
C678   C     0.59004   0.11655   0.82412   0.00000  Uiso   1.00
C679   C     0.88365   0.16896   0.83106   0.00000  Uiso   1.00
C680   C     0.61635   0.16438   0.83561   0.00000  Uiso   1.00
C681   C     0.90286   0.12150   0.81769   0.00000  Uiso   1.00
C682   C     0.59714   0.21184   0.84897   0.00000  Uiso   1.00
C683   C     0.94894   0.12064   0.81575   0.00000  Uiso   1.00
C684   C     0.55106   0.21269   0.85091   0.00000  Uiso   1.00
C685   C     0.97658   0.16773   0.83319   0.00000  Uiso   1.00
C686   C     0.52342   0.16560   0.83348   0.00000  Uiso   1.00
C687   C     0.95736   0.21671   0.85011   0.00000  Uiso   1.00
C688   C     0.75149   0.26663   0.84862   0.00000  Uiso   1.00
C689   C     0.54264   0.11662   0.81655   0.00000  Uiso   1.00
C690   C     0.96727   0.07313   0.79507   0.00000  Uiso   1.00
C691   C     0.53273   0.26021   0.87159   0.00000  Uiso   1.00
C692   C     0.52878   0.01992   0.75688   0.00000  Uiso   1.00
C693   C     0.97122   0.31341   0.90978   0.00000  Uiso   1.00
C694   C     0.51351   0.07055   0.79271   0.00000  Uiso   1.00
C695   C     0.98649   0.26279   0.87395   0.00000  Uiso   1.00
C696   C     0.74274   0.01121   0.81027   0.00000  Uiso   1.00
C697   C     0.75726   0.32213   0.85639   0.00000  Uiso   1.00
C698   C     0.66450   0.16571   0.83404   0.00000  Uiso   1.00
C699   C     0.83550   0.16762   0.83262   0.00000  Uiso   1.00
C700   C     0.90996   0.21678   0.84254   0.00000  Uiso   1.00
Cu701  Cu    0.75500   0.17246   0.89479   0.00000  Uiso   1.00
Cu702  Cu    0.74499   0.16087   0.77187   0.00000  Uiso   1.00
H703   H     0.88153   0.08518   0.80684   0.00000  Uiso   1.00
H704   H     0.99843   0.00216   0.94378   0.00000  Uiso   1.00
H705   H     0.96200   0.00556   0.87813   0.00000  Uiso   1.00
H706   H     0.94293   0.30579   0.93689   0.00000  Uiso   1.00
H707   H     0.61846   0.24816   0.85982   0.00000  Uiso   1.00
H708   H     0.94510   0.03781   0.77841   0.00000  Uiso   1.00
H709   H     0.55490   0.29553   0.88825   0.00000  Uiso   1.00
H710   H     0.71487   0.12576   0.98278   0.00000  Uiso   1.00
H711   H     0.78513   0.20757   0.68388   0.00000  Uiso   1.00
H712   H     0.50157   0.33118   0.72287   0.00000  Uiso   1.00
H713   H     0.55708   0.02755   0.72978   0.00000  Uiso   1.00
H714   H     0.53799   0.32777   0.78852   0.00000  Uiso   1.00
I715   I     0.87612   0.28341   0.82850   0.00000  Uiso   1.00
I716   I     0.62388   0.04992   0.83817   0.00000  Uiso   1.00
I717   I     0.70425   0.30580   0.72466   0.00000  Uiso   1.00
I718   I     0.79575   0.02754   0.94201   0.00000  Uiso   1.00
N719   N     0.73744   0.15214   0.67951   0.00000  Uiso   1.00
N720   N     0.76255   0.18119   0.98716   0.00000  Uiso   1.00
O721   O     0.75325   0.09538   0.87326   0.00000  Uiso   1.00
O722   O     0.74674   0.23796   0.79341   0.00000  Uiso   1.00
O723   O     0.74480   0.08559   0.76945   0.00000  Uiso   1.00
O724   O     0.75520   0.24774   0.89721   0.00000  Uiso   1.00
O725   O     0.68935   0.17155   0.88524   0.00000  Uiso   1.00
O726   O     0.81064   0.16179   0.78143   0.00000  Uiso   1.00
O727   O     0.68090   0.16176   0.78143   0.00000  Uiso   1.00
O728   O     0.81910   0.17157   0.88523   0.00000  Uiso   1.00
C729   C     0.24851   0.40003   0.81805   0.00000  Uiso   1.00
C730   C     0.09004   0.44989   0.82412   0.00000  Uiso   1.00
C731   C     0.38365   0.50229   0.83106   0.00000  Uiso   1.00
C732   C     0.11635   0.49771   0.83561   0.00000  Uiso   1.00
C733   C     0.40286   0.45483   0.81769   0.00000  Uiso   1.00
C734   C     0.09714   0.54517   0.84897   0.00000  Uiso   1.00
C735   C     0.44894   0.45397   0.81575   0.00000  Uiso   1.00
C736   C     0.05106   0.54603   0.85091   0.00000  Uiso   1.00
C737   C     0.47658   0.50106   0.83319   0.00000  Uiso   1.00
C738   C     0.02342   0.49894   0.83348   0.00000  Uiso   1.00
C739   C     0.45736   0.55005   0.85011   0.00000  Uiso   1.00
C740   C     0.25149   0.59997   0.84862   0.00000  Uiso   1.00
C741   C     0.04264   0.44995   0.81655   0.00000  Uiso   1.00
C742   C     0.46727   0.40646   0.79507   0.00000  Uiso   1.00
C743   C     0.03273   0.59354   0.87159   0.00000  Uiso   1.00
C744   C     0.02878   0.35325   0.75688   0.00000  Uiso   1.00
C745   C     0.47122   0.64675   0.90978   0.00000  Uiso   1.00
C746   C     0.01351   0.40388   0.79271   0.00000  Uiso   1.00
C747   C     0.48649   0.59612   0.87395   0.00000  Uiso   1.00
C748   C     0.24274   0.34454   0.81027   0.00000  Uiso   1.00
C749   C     0.25726   0.65546   0.85639   0.00000  Uiso   1.00
C750   C     0.16450   0.49904   0.83404   0.00000  Uiso   1.00
C751   C     0.33550   0.50096   0.83262   0.00000  Uiso   1.00
C752   C     0.40996   0.55011   0.84254   0.00000  Uiso   1.00
Cu753  Cu    0.25500   0.50579   0.89479   0.00000  Uiso   1.00
Cu754  Cu    0.24499   0.49421   0.77187   0.00000  Uiso   1.00
H755   H     0.38153   0.41851   0.80684   0.00000  Uiso   1.00
H756   H     0.49843   0.33549   0.94378   0.00000  Uiso   1.00
H757   H     0.46200   0.33890   0.87813   0.00000  Uiso   1.00
H758   H     0.44293   0.63912   0.93689   0.00000  Uiso   1.00
H759   H     0.11846   0.58149   0.85982   0.00000  Uiso   1.00
H760   H     0.44510   0.37114   0.77841   0.00000  Uiso   1.00
H761   H     0.05490   0.62886   0.88825   0.00000  Uiso   1.00
H762   H     0.21487   0.45910   0.98278   0.00000  Uiso   1.00
H763   H     0.28513   0.54090   0.68388   0.00000  Uiso   1.00
H764   H     0.00157   0.66452   0.72287   0.00000  Uiso   1.00
H765   H     0.05708   0.36088   0.72978   0.00000  Uiso   1.00
H766   H     0.03799   0.66110   0.78852   0.00000  Uiso   1.00
I767   I     0.37612   0.61674   0.82850   0.00000  Uiso   1.00
I768   I     0.12388   0.38325   0.83817   0.00000  Uiso   1.00
I769   I     0.20425   0.63913   0.72466   0.00000  Uiso   1.00
I770   I     0.29575   0.36087   0.94201   0.00000  Uiso   1.00
N771   N     0.23744   0.48547   0.67951   0.00000  Uiso   1.00
N772   N     0.26255   0.51453   0.98716   0.00000  Uiso   1.00
O773   O     0.25325   0.42871   0.87326   0.00000  Uiso   1.00
O774   O     0.24674   0.57129   0.79341   0.00000  Uiso   1.00
O775   O     0.24480   0.41892   0.76945   0.00000  Uiso   1.00
O776   O     0.25520   0.58108   0.89721   0.00000  Uiso   1.00
O777   O     0.18935   0.50488   0.88524   0.00000  Uiso   1.00
O778   O     0.31064   0.49512   0.78143   0.00000  Uiso   1.00
O779   O     0.18090   0.49510   0.78143   0.00000  Uiso   1.00
O780   O     0.31910   0.50490   0.88523   0.00000  Uiso   1.00
C781   C     0.74851   0.40003   0.81805   0.00000  Uiso   1.00
C782   C     0.59004   0.44989   0.82412   0.00000  Uiso   1.00
C783   C     0.88365   0.50229   0.83106   0.00000  Uiso   1.00
C784   C     0.61635   0.49771   0.83561   0.00000  Uiso   1.00
C785   C     0.90286   0.45483   0.81769   0.00000  Uiso   1.00
C786   C     0.59714   0.54517   0.84897   0.00000  Uiso   1.00
C787   C     0.94894   0.45397   0.81575   0.00000  Uiso   1.00
C788   C     0.55106   0.54603   0.85091   0.00000  Uiso   1.00
C789   C     0.97658   0.50106   0.83319   0.00000  Uiso   1.00
C790   C     0.52342   0.49894   0.83348   0.00000  Uiso   1.00
C791   C     0.95736   0.55005   0.85011   0.00000  Uiso   1.00
C792   C     0.75149   0.59997   0.84862   0.00000  Uiso   1.00
C793   C     0.54264   0.44995   0.81655   0.00000  Uiso   1.00
C794   C     0.96727   0.40646   0.79507   0.00000  Uiso   1.00
C795   C     0.53273   0.59354   0.87159   0.00000  Uiso   1.00
C796   C     0.52878   0.35325   0.75688   0.00000  Uiso   1.00
C797   C     0.97122   0.64675   0.90978   0.00000  Uiso   1.00
C798   C     0.51351   0.40388   0.79271   0.00000  Uiso   1.00
C799   C     0.98649   0.59612   0.87395   0.00000  Uiso   1.00
C800   C     0.74274   0.34454   0.81027   0.00000  Uiso   1.00
C801   C     0.75726   0.65546   0.85639   0.00000  Uiso   1.00
C802   C     0.66450   0.49904   0.83404   0.00000  Uiso   1.00
C803   C     0.83550   0.50096   0.83262   0.00000  Uiso   1.00
C804   C     0.90996   0.55011   0.84254   0.00000  Uiso   1.00
Cu805  Cu    0.75500   0.50579   0.89479   0.00000  Uiso   1.00
Cu806  Cu    0.74499   0.49421   0.77187   0.00000  Uiso   1.00
H807   H     0.88153   0.41851   0.80684   0.00000  Uiso   1.00
H808   H     0.99843   0.33549   0.94378   0.00000  Uiso   1.00
H809   H     0.96200   0.33890   0.87813   0.00000  Uiso   1.00
H810   H     0.94293   0.63912   0.93689   0.00000  Uiso   1.00
H811   H     0.61846   0.58149   0.85982   0.00000  Uiso   1.00
H812   H     0.94510   0.37114   0.77841   0.00000  Uiso   1.00
H813   H     0.55490   0.62886   0.88825   0.00000  Uiso   1.00
H814   H     0.71487   0.45910   0.98278   0.00000  Uiso   1.00
H815   H     0.78513   0.54090   0.68388   0.00000  Uiso   1.00
H816   H     0.50157   0.66452   0.72287   0.00000  Uiso   1.00
H817   H     0.55708   0.36088   0.72978   0.00000  Uiso   1.00
H818   H     0.53799   0.66110   0.78852   0.00000  Uiso   1.00
I819   I     0.87612   0.61674   0.82850   0.00000  Uiso   1.00
I820   I     0.62388   0.38325   0.83817   0.00000  Uiso   1.00
I821   I     0.70425   0.63913   0.72466   0.00000  Uiso   1.00
I822   I     0.79575   0.36087   0.94201   0.00000  Uiso   1.00
N823   N     0.73744   0.48547   0.67951   0.00000  Uiso   1.00
N824   N     0.76255   0.51453   0.98716   0.00000  Uiso   1.00
O825   O     0.75325   0.42871   0.87326   0.00000  Uiso   1.00
O826   O     0.74674   0.57129   0.79341   0.00000  Uiso   1.00
O827   O     0.74480   0.41892   0.76945   0.00000  Uiso   1.00
O828   O     0.75520   0.58108   0.89721   0.00000  Uiso   1.00
O829   O     0.68935   0.50488   0.88524   0.00000  Uiso   1.00
O830   O     0.81064   0.49512   0.78143   0.00000  Uiso   1.00
O831   O     0.68090   0.49510   0.78143   0.00000  Uiso   1.00
O832   O     0.81910   0.50490   0.88523   0.00000  Uiso   1.00
C833   C     0.24851   0.73337   0.81805   0.00000  Uiso   1.00
C834   C     0.09004   0.78322   0.82412   0.00000  Uiso   1.00
C835   C     0.38365   0.83562   0.83106   0.00000  Uiso   1.00
C836   C     0.11635   0.83104   0.83561   0.00000  Uiso   1.00
C837   C     0.40286   0.78817   0.81769   0.00000  Uiso   1.00
C838   C     0.09714   0.87850   0.84897   0.00000  Uiso   1.00
C839   C     0.44894   0.78731   0.81575   0.00000  Uiso   1.00
C840   C     0.05106   0.87936   0.85091   0.00000  Uiso   1.00
C841   C     0.47658   0.83440   0.83319   0.00000  Uiso   1.00
C842   C     0.02342   0.83227   0.83348   0.00000  Uiso   1.00
C843   C     0.45736   0.88338   0.85011   0.00000  Uiso   1.00
C844   C     0.25149   0.93330   0.84862   0.00000  Uiso   1.00
C845   C     0.04264   0.78329   0.81655   0.00000  Uiso   1.00
C846   C     0.46727   0.73980   0.79507   0.00000  Uiso   1.00
C847   C     0.03273   0.92687   0.87159   0.00000  Uiso   1.00
C848   C     0.02878   0.68659   0.75688   0.00000  Uiso   1.00
C849   C     0.47122   0.98008   0.90978   0.00000  Uiso   1.00
C850   C     0.01351   0.73721   0.79271   0.00000  Uiso   1.00
C851   C     0.48649   0.92945   0.87395   0.00000  Uiso   1.00
C852   C     0.24274   0.67787   0.81027   0.00000  Uiso   1.00
C853   C     0.25726   0.98879   0.85639   0.00000  Uiso   1.00
C854   C     0.16450   0.83238   0.83404   0.00000  Uiso   1.00
C855   C     0.33550   0.83429   0.83262   0.00000  Uiso   1.00
C856   C     0.40996   0.88345   0.84254   0.00000  Uiso   1.00
Cu857  Cu    0.25500   0.83913   0.89479   0.00000  Uiso   1.00
Cu858  Cu    0.24499   0.82754   0.77187   0.00000  Uiso   1.00
H859   H     0.38153   0.75184   0.80684   0.00000  Uiso   1.00
H860   H     0.49843   0.66882   0.94378   0.00000  Uiso   1.00
H861   H     0.46200   0.67223   0.87813   0.00000  Uiso   1.00
H862   H     0.44293   0.97245   0.93689   0.00000  Uiso   1.00
H863   H     0.11846   0.91483   0.85982   0.00000  Uiso   1.00
H864   H     0.44510   0.70447   0.77841   0.00000  Uiso   1.00
H865   H     0.05490   0.96219   0.88825   0.00000  Uiso   1.00
H866   H     0.21487   0.79243   0.98278   0.00000  Uiso   1.00
H867   H     0.28513   0.87424   0.68388   0.00000  Uiso   1.00
H868   H     0.00157   0.99785   0.72287   0.00000  Uiso   1.00
H869   H     0.05708   0.69422   0.72978   0.00000  Uiso   1.00
H870   H     0.03799   0.99443   0.78852   0.00000  Uiso   1.00
I871   I     0.37612   0.95008   0.82850   0.00000  Uiso   1.00
I872   I     0.12388   0.71659   0.83817   0.00000  Uiso   1.00
I873   I     0.20425   0.97246   0.72466   0.00000  Uiso   1.00
I874   I     0.29575   0.69420   0.94201   0.00000  Uiso   1.00
N875   N     0.23744   0.81881   0.67951   0.00000  Uiso   1.00
N876   N     0.26255   0.84786   0.98716   0.00000  Uiso   1.00
O877   O     0.25325   0.76204   0.87326   0.00000  Uiso   1.00
O878   O     0.24674   0.90462   0.79341   0.00000  Uiso   1.00
O879   O     0.24480   0.75226   0.76945   0.00000  Uiso   1.00
O880   O     0.25520   0.91441   0.89721   0.00000  Uiso   1.00
O881   O     0.18935   0.83821   0.88524   0.00000  Uiso   1.00
O882   O     0.31064   0.82845   0.78143   0.00000  Uiso   1.00
O883   O     0.18090   0.82843   0.78143   0.00000  Uiso   1.00
O884   O     0.31910   0.83824   0.88523   0.00000  Uiso   1.00
C885   C     0.74851   0.73337   0.81805   0.00000  Uiso   1.00
C886   C     0.59004   0.78322   0.82412   0.00000  Uiso   1.00
C887   C     0.88365   0.83562   0.83106   0.00000  Uiso   1.00
C888   C     0.61635   0.83104   0.83561   0.00000  Uiso   1.00
C889   C     0.90286   0.78817   0.81769   0.00000  Uiso   1.00
C890   C     0.59714   0.87850   0.84897   0.00000  Uiso   1.00
C891   C     0.94894   0.78731   0.81575   0.00000  Uiso   1.00
C892   C     0.55106   0.87936   0.85091   0.00000  Uiso   1.00
C893   C     0.97658   0.83440   0.83319   0.00000  Uiso   1.00
C894   C     0.52342   0.83227   0.83348   0.00000  Uiso   1.00
C895   C     0.95736   0.88338   0.85011   0.00000  Uiso   1.00
C896   C     0.75149   0.93330   0.84862   0.00000  Uiso   1.00
C897   C     0.54264   0.78329   0.81655   0.00000  Uiso   1.00
C898   C     0.96727   0.73980   0.79507   0.00000  Uiso   1.00
C899   C     0.53273   0.92687   0.87159   0.00000  Uiso   1.00
C900   C     0.52878   0.68659   0.75688   0.00000  Uiso   1.00
C901   C     0.97122   0.98008   0.90978   0.00000  Uiso   1.00
C902   C     0.51351   0.73721   0.79271   0.00000  Uiso   1.00
C903   C     0.98649   0.92945   0.87395   0.00000  Uiso   1.00
C904   C     0.74274   0.67787   0.81027   0.00000  Uiso   1.00
C905   C     0.75726   0.98879   0.85639   0.00000  Uiso   1.00
C906   C     0.66450   0.83238   0.83404   0.00000  Uiso   1.00
C907   C     0.83550   0.83429   0.83262   0.00000  Uiso   1.00
C908   C     0.90996   0.88345   0.84254   0.00000  Uiso   1.00
Cu909  Cu    0.75500   0.83913   0.89479   0.00000  Uiso   1.00
Cu910  Cu    0.74499   0.82754   0.77187   0.00000  Uiso   1.00
H911   H     0.88153   0.75184   0.80684   0.00000  Uiso   1.00
H912   H     0.99843   0.66882   0.94378   0.00000  Uiso   1.00
H913   H     0.96200   0.67223   0.87813   0.00000  Uiso   1.00
H914   H     0.94293   0.97245   0.93689   0.00000  Uiso   1.00
H915   H     0.61846   0.91483   0.85982   0.00000  Uiso   1.00
H916   H     0.94510   0.70447   0.77841   0.00000  Uiso   1.00
H917   H     0.55490   0.96219   0.88825   0.00000  Uiso   1.00
H918   H     0.71487   0.79243   0.98278   0.00000  Uiso   1.00
H919   H     0.78513   0.87424   0.68388   0.00000  Uiso   1.00
H920   H     0.50157   0.99785   0.72287   0.00000  Uiso   1.00
H921   H     0.55708   0.69422   0.72978   0.00000  Uiso   1.00
H922   H     0.53799   0.99443   0.78852   0.00000  Uiso   1.00
I923   I     0.87612   0.95008   0.82850   0.00000  Uiso   1.00
I924   I     0.62388   0.71659   0.83817   0.00000  Uiso   1.00
I925   I     0.70425   0.97246   0.72466   0.00000  Uiso   1.00
I926   I     0.79575   0.69420   0.94201   0.00000  Uiso   1.00
N927   N     0.73744   0.81881   0.67951   0.00000  Uiso   1.00
N928   N     0.76255   0.84786   0.98716   0.00000  Uiso   1.00
O929   O     0.75325   0.76204   0.87326   0.00000  Uiso   1.00
O930   O     0.74674   0.90462   0.79341   0.00000  Uiso   1.00
O931   O     0.74480   0.75226   0.76945   0.00000  Uiso   1.00
O932   O     0.75520   0.91441   0.89721   0.00000  Uiso   1.00
O933   O     0.68935   0.83821   0.88524   0.00000  Uiso   1.00
O934   O     0.81064   0.82845   0.78143   0.00000  Uiso   1.00
O935   O     0.68090   0.82843   0.78143   0.00000  Uiso   1.00
O936   O     0.81910   0.83824   0.88523   0.00000  Uiso   1.00
loop_
_geom_bond_atom_site_label_1
_geom_bond_atom_site_label_2
_geom_bond_distance
_geom_bond_site_symmetry_2
_ccdc_geom_bond_type
C1     O45     1.286   .     A
C1     O47     1.288   .     A
C1     C20     1.428   .     S
C2     C4      1.405   .     A
C2     I40     2.146   .     S
C2     C13     1.419   .     A
C3     C23     1.445   .     S
C3     C24     1.405   .     A
C3     C5      1.387   .     A
C4     C6      1.387   .     A
C4     C22     1.445   .     S
C5     C7      1.387   .     A
C5     H27     1.086   .     S
C6     H31     1.086   .     S
C6     C8      1.387   .     A
C7     C14     1.393   .     A
C7     C9      1.409   .     A
C8     C15     1.393   .     A
C8     C10     1.409   .     A
C9     C11     1.428   .     A
C9     C62     1.408   .     S
C10    C13     1.428   .     A
C10    C61     1.408   1_455 S
C11    C19     1.425   .     A
C11    C24     1.419   .     A
C12    O48     1.288   .     A
C12    O46     1.286   .     A
C12    C21     1.428   .     S
C13    C18     1.425   .     A
C14    H32     1.085   .     S
C14    C70     1.396   .     S
C15    H33     1.085   .     S
C15    C71     1.396   1_455 S
C16    H37     1.110   .     S
C16    C18     1.509   .     S
C16    H244    1.111   1_545 S
C16    H246    1.107   1_545 S
C17    H30     1.110   .     S
C17    C19     1.509   .     S
C17    H132    1.111   .     S
C17    H133    1.107   .     S
C18    C66     1.396   1_455 S
C19    C67     1.396   .     S
C20    C229    1.351   1_545 S
C20    I249    2.166   1_545 S
C21    C124    1.351   .     S
C21    I146    2.166   .     S
C22    O49     1.291   .     A
C22    O51     1.290   .     A
C23    O52     1.290   .     A
C23    O50     1.291   .     A
C24    I39     2.146   .     S
Cu25   O45     1.972   .     S
Cu25   O52     1.950   .     S
Cu25   O48     1.966   .     S
Cu25   N44     2.015   .     S
Cu25   O49     1.962   .     S
Cu25   Cu26    2.682   .     S
Cu26   O51     1.950   .     S
Cu26   O47     1.966   .     S
Cu26   N43     2.015   .     S
Cu26   O50     1.962   .     S
Cu26   O46     1.972   .     S
H28    C225    1.111   1_545 S
H29    C225    1.107   1_545 S
H34    N355    1.029   .     S
H35    N668    1.029   1_554 S
H36    C120    1.111   .     S
H38    C120    1.107   .     S
I41    C124    2.166   .     S
I42    C229    2.166   1_545 S
N43    H658    1.029   1_554 S
N43    N668    1.289   1_554 S
N44    H347    1.029   .     S
N44    N355    1.289   .     S
C53    O97     1.286   .     A
C53    O99     1.288   .     A
C53    C72     1.428   .     S
C54    C56     1.405   .     A
C54    I92     2.146   .     S
C54    C65     1.419   .     A
C55    C75     1.445   .     S
C55    C76     1.405   .     A
C55    C57     1.387   .     A
C56    C58     1.387   .     A
C56    C74     1.445   .     S
C57    C59     1.387   .     A
C57    H79     1.086   .     S
C58    H83     1.086   .     S
C58    C60     1.387   .     A
C59    C66     1.393   .     A
C59    C61     1.409   .     A
C60    C67     1.393   .     A
C60    C62     1.409   .     A
C61    C63     1.428   .     A
C61    C10     1.408   1_655 S
C62    C65     1.428   .     A
C63    C71     1.425   .     A
C63    C76     1.419   .     A
C64    O100    1.288   .     A
C64    O98     1.286   .     A
C64    C73     1.428   .     S
C65    C70     1.425   .     A
C66    H84     1.085   .     S
C66    C18     1.396   1_655 S
C67    H85     1.085   .     S
C68    H89     1.110   .     S
C68    C70     1.509   .     S
C68    H296    1.111   1_545 S
C68    H298    1.107   1_545 S
C69    H82     1.110   .     S
C69    C71     1.509   .     S
C69    H184    1.111   .     S
C69    H185    1.107   .     S
C71    C15     1.396   1_655 S
C72    C281    1.351   1_545 S
C72    I301    2.166   1_545 S
C73    C176    1.351   .     S
C73    I198    2.166   .     S
C74    O101    1.291   .     A
C74    O103    1.290   .     A
C75    O104    1.290   .     A
C75    O102    1.291   .     A
C76    I91     2.146   .     S
Cu77   O97     1.972   .     S
Cu77   O104    1.950   .     S
Cu77   O100    1.966   .     S
Cu77   N96     2.015   .     S
Cu77   O101    1.962   .     S
Cu77   Cu78    2.682   .     S
Cu78   O103    1.950   .     S
Cu78   O99     1.966   .     S
Cu78   N95     2.015   .     S
Cu78   O102    1.962   .     S
Cu78   O98     1.972   .     S
H80    C277    1.111   1_545 S
H81    C277    1.107   1_545 S
H86    N407    1.029   .     S
H87    N720    1.029   1_554 S
H88    C172    1.111   .     S
H90    C172    1.107   .     S
I93    C176    2.166   .     S
I94    C281    2.166   1_545 S
N95    H710    1.029   1_554 S
N95    N720    1.289   1_554 S
N96    H399    1.029   .     S
N96    N407    1.289   .     S
C105   O149    1.286   .     A
C105   O151    1.288   .     A
C105   C124    1.428   .     S
C106   C108    1.405   .     A
C106   I144    2.146   .     S
C106   C117    1.419   .     A
C107   C127    1.445   .     S
C107   C128    1.405   .     A
C107   C109    1.387   .     A
C108   C110    1.387   .     A
C108   C126    1.445   .     S
C109   C111    1.387   .     A
C109   H131    1.086   .     S
C110   H135    1.086   .     S
C110   C112    1.387   .     A
C111   C118    1.393   .     A
C111   C113    1.409   .     A
C112   C119    1.393   .     A
C112   C114    1.409   .     A
C113   C115    1.428   .     A
C113   C166    1.408   .     S
C114   C117    1.428   .     A
C114   C165    1.408   1_455 S
C115   C123    1.425   .     A
C115   C128    1.419   .     A
C116   O152    1.288   .     A
C116   O150    1.286   .     A
C116   C125    1.428   .     S
C117   C122    1.425   .     A
C118   H136    1.085   .     S
C118   C174    1.396   .     S
C119   H137    1.085   .     S
C119   C175    1.396   1_455 S
C120   H141    1.110   .     S
C120   C122    1.509   .     S
C121   H134    1.110   .     S
C121   C123    1.509   .     S
C121   H236    1.111   .     S
C121   H237    1.107   .     S
C122   C170    1.396   1_455 S
C123   C171    1.396   .     S
C125   C228    1.351   .     S
C125   I250    2.166   .     S
C126   O153    1.291   .     A
C126   O155    1.290   .     A
C127   O156    1.290   .     A
C127   O154    1.291   .     A
C128   I143    2.146   .     S
Cu129  O149    1.972   .     S
Cu129  O156    1.950   .     S
Cu129  O152    1.966   .     S
Cu129  N148    2.015   .     S
Cu129  O153    1.962   .     S
Cu129  Cu130   2.682   .     S
Cu130  O155    1.950   .     S
Cu130  O151    1.966   .     S
Cu130  N147    2.015   .     S
Cu130  O154    1.962   .     S
Cu130  O150    1.972   .     S
H138   N459    1.029   .     S
H139   N772    1.029   1_554 S
H140   C224    1.111   .     S
H142   C224    1.107   .     S
I145   C228    2.166   .     S
N147   H762    1.029   1_554 S
N147   N772    1.289   1_554 S
N148   H451    1.029   .     S
N148   N459    1.289   .     S
C157   O201    1.286   .     A
C157   O203    1.288   .     A
C157   C176    1.428   .     S
C158   C160    1.405   .     A
C158   I196    2.146   .     S
C158   C169    1.419   .     A
C159   C179    1.445   .     S
C159   C180    1.405   .     A
C159   C161    1.387   .     A
C160   C162    1.387   .     A
C160   C178    1.445   .     S
C161   C163    1.387   .     A
C161   H183    1.086   .     S
C162   H187    1.086   .     S
C162   C164    1.387   .     A
C163   C170    1.393   .     A
C163   C165    1.409   .     A
C164   C171    1.393   .     A
C164   C166    1.409   .     A
C165   C167    1.428   .     A
C165   C114    1.408   1_655 S
C166   C169    1.428   .     A
C167   C175    1.425   .     A
C167   C180    1.419   .     A
C168   O204    1.288   .     A
C168   O202    1.286   .     A
C168   C177    1.428   .     S
C169   C174    1.425   .     A
C170   H188    1.085   .     S
C170   C122    1.396   1_655 S
C171   H189    1.085   .     S
C172   H193    1.110   .     S
C172   C174    1.509   .     S
C173   H186    1.110   .     S
C173   C175    1.509   .     S
C173   H288    1.111   .     S
C173   H289    1.107   .     S
C175   C119    1.396   1_655 S
C177   C280    1.351   .     S
C177   I302    2.166   .     S
C178   O205    1.291   .     A
C178   O207    1.290   .     A
C179   O208    1.290   .     A
C179   O206    1.291   .     A
C180   I195    2.146   .     S
Cu181  O201    1.972   .     S
Cu181  O208    1.950   .     S
Cu181  O204    1.966   .     S
Cu181  N200    2.015   .     S
Cu181  O205    1.962   .     S
Cu181  Cu182   2.682   .     S
Cu182  O207    1.950   .     S
Cu182  O203    1.966   .     S
Cu182  N199    2.015   .     S
Cu182  O206    1.962   .     S
Cu182  O202    1.972   .     S
H190   N511    1.029   .     S
H191   N824    1.029   1_554 S
H192   C276    1.111   .     S
H194   C276    1.107   .     S
I197   C280    2.166   .     S
N199   H814    1.029   1_554 S
N199   N824    1.289   1_554 S
N200   H503    1.029   .     S
N200   N511    1.289   .     S
C209   O253    1.286   .     A
C209   O255    1.288   .     A
C209   C228    1.428   .     S
C210   C212    1.405   .     A
C210   I248    2.146   .     S
C210   C221    1.419   .     A
C211   C231    1.445   .     S
C211   C232    1.405   .     A
C211   C213    1.387   .     A
C212   C214    1.387   .     A
C212   C230    1.445   .     S
C213   C215    1.387   .     A
C213   H235    1.086   .     S
C214   H239    1.086   .     S
C214   C216    1.387   .     A
C215   C222    1.393   .     A
C215   C217    1.409   .     A
C216   C223    1.393   .     A
C216   C218    1.409   .     A
C217   C219    1.428   .     A
C217   C270    1.408   .     S
C218   C221    1.428   .     A
C218   C269    1.408   1_455 S
C219   C227    1.425   .     A
C219   C232    1.419   .     A
C220   O256    1.288   .     A
C220   O254    1.286   .     A
C220   C229    1.428   .     S
C221   C226    1.425   .     A
C222   H240    1.085   .     S
C222   C278    1.396   .     S
C223   H241    1.085   .     S
C223   C279    1.396   1_455 S
C224   H245    1.110   .     S
C224   C226    1.509   .     S
C225   H238    1.110   .     S
C225   C227    1.509   .     S
C225   H28     1.111   1_565 S
C225   H29     1.107   1_565 S
C226   C274    1.396   1_455 S
C227   C275    1.396   .     S
C229   C20     1.351   1_565 S
C229   I42     2.166   1_565 S
C230   O257    1.291   .     A
C230   O259    1.290   .     A
C231   O260    1.290   .     A
C231   O258    1.291   .     A
C232   I247    2.146   .     S
Cu233  O253    1.972   .     S
Cu233  O260    1.950   .     S
Cu233  O256    1.966   .     S
Cu233  N252    2.015   .     S
Cu233  O257    1.962   .     S
Cu233  Cu234   2.682   .     S
Cu234  O259    1.950   .     S
Cu234  O255    1.966   .     S
Cu234  N251    2.015   .     S
Cu234  O258    1.962   .     S
Cu234  O254    1.972   .     S
H242   N563    1.029   .     S
H243   N876    1.029   1_554 S
H244   C16     1.111   1_565 S
H246   C16     1.107   1_565 S
I249   C20     2.166   1_565 S
N251   H866    1.029   1_554 S
N251   N876    1.289   1_554 S
N252   H555    1.029   .     S
N252   N563    1.289   .     S
C261   O305    1.286   .     A
C261   O307    1.288   .     A
C261   C280    1.428   .     S
C262   C264    1.405   .     A
C262   I300    2.146   .     S
C262   C273    1.419   .     A
C263   C283    1.445   .     S
C263   C284    1.405   .     A
C263   C265    1.387   .     A
C264   C266    1.387   .     A
C264   C282    1.445   .     S
C265   C267    1.387   .     A
C265   H287    1.086   .     S
C266   H291    1.086   .     S
C266   C268    1.387   .     A
C267   C274    1.393   .     A
C267   C269    1.409   .     A
C268   C275    1.393   .     A
C268   C270    1.409   .     A
C269   C271    1.428   .     A
C269   C218    1.408   1_655 S
C270   C273    1.428   .     A
C271   C279    1.425   .     A
C271   C284    1.419   .     A
C272   O308    1.288   .     A
C272   O306    1.286   .     A
C272   C281    1.428   .     S
C273   C278    1.425   .     A
C274   H292    1.085   .     S
C274   C226    1.396   1_655 S
C275   H293    1.085   .     S
C276   H297    1.110   .     S
C276   C278    1.509   .     S
C277   H290    1.110   .     S
C277   C279    1.509   .     S
C277   H80     1.111   1_565 S
C277   H81     1.107   1_565 S
C279   C223    1.396   1_655 S
C281   C72     1.351   1_565 S
C281   I94     2.166   1_565 S
C282   O309    1.291   .     A
C282   O311    1.290   .     A
C283   O312    1.290   .     A
C283   O310    1.291   .     A
C284   I299    2.146   .     S
Cu285  O305    1.972   .     S
Cu285  O312    1.950   .     S
Cu285  O308    1.966   .     S
Cu285  N304    2.015   .     S
Cu285  O309    1.962   .     S
Cu285  Cu286   2.682   .     S
Cu286  O311    1.950   .     S
Cu286  O307    1.966   .     S
Cu286  N303    2.015   .     S
Cu286  O310    1.962   .     S
Cu286  O306    1.972   .     S
H294   N615    1.029   .     S
H295   N928    1.029   1_554 S
H296   C68     1.111   1_565 S
H298   C68     1.107   1_565 S
I301   C72     2.166   1_565 S
N303   H918    1.029   1_554 S
N303   N928    1.289   1_554 S
N304   H607    1.029   .     S
N304   N615    1.289   .     S
C313   O357    1.286   .     A
C313   O359    1.288   .     A
C313   C332    1.428   .     S
C314   C316    1.405   .     A
C314   I352    2.146   .     S
C314   C325    1.419   .     A
C315   C335    1.445   .     S
C315   C336    1.405   .     A
C315   C317    1.387   .     A
C316   C318    1.387   .     A
C316   C334    1.445   .     S
C317   C319    1.387   .     A
C317   H339    1.086   .     S
C318   H343    1.086   .     S
C318   C320    1.387   .     A
C319   C326    1.393   .     A
C319   C321    1.409   .     A
C320   C327    1.393   .     A
C320   C322    1.409   .     A
C321   C323    1.428   .     A
C321   C374    1.408   .     S
C322   C325    1.428   .     A
C322   C373    1.408   1_455 S
C323   C331    1.425   .     A
C323   C336    1.419   .     A
C324   O360    1.288   .     A
C324   O358    1.286   .     A
C324   C333    1.428   .     S
C325   C330    1.425   .     A
C326   H344    1.085   .     S
C326   C382    1.396   .     S
C327   H345    1.085   .     S
C327   C383    1.396   1_455 S
C328   H349    1.110   .     S
C328   C330    1.509   .     S
C328   H556    1.111   1_545 S
C328   H558    1.107   1_545 S
C329   H342    1.110   .     S
C329   C331    1.509   .     S
C329   H444    1.111   .     S
C329   H445    1.107   .     S
C330   C378    1.396   1_455 S
C331   C379    1.396   .     S
C332   C541    1.351   1_545 S
C332   I561    2.166   1_545 S
C333   C436    1.351   .     S
C333   I458    2.166   .     S
C334   O361    1.291   .     A
C334   O363    1.290   .     A
C335   O364    1.290   .     A
C335   O362    1.291   .     A
C336   I351    2.146   .     S
Cu337  O357    1.972   .     S
Cu337  O364    1.950   .     S
Cu337  O360    1.966   .     S
Cu337  N356    2.015   .     S
Cu337  O361    1.962   .     S
Cu337  Cu338   2.682   .     S
Cu338  O363    1.950   .     S
Cu338  O359    1.966   .     S
Cu338  N355    2.015   .     S
Cu338  O362    1.962   .     S
Cu338  O358    1.972   .     S
H340   C537    1.111   1_545 S
H341   C537    1.107   1_545 S
H346   N667    1.029   .     S
H348   C432    1.111   .     S
H350   C432    1.107   .     S
I353   C436    2.166   .     S
I354   C541    2.166   1_545 S
N356   H659    1.029   .     S
N356   N667    1.289   .     S
C365   O409    1.286   .     A
C365   O411    1.288   .     A
C365   C384    1.428   .     S
C366   C368    1.405   .     A
C366   I404    2.146   .     S
C366   C377    1.419   .     A
C367   C387    1.445   .     S
C367   C388    1.405   .     A
C367   C369    1.387   .     A
C368   C370    1.387   .     A
C368   C386    1.445   .     S
C369   C371    1.387   .     A
C369   H391    1.086   .     S
C370   H395    1.086   .     S
C370   C372    1.387   .     A
C371   C378    1.393   .     A
C371   C373    1.409   .     A
C372   C379    1.393   .     A
C372   C374    1.409   .     A
C373   C375    1.428   .     A
C373   C322    1.408   1_655 S
C374   C377    1.428   .     A
C375   C383    1.425   .     A
C375   C388    1.419   .     A
C376   O412    1.288   .     A
C376   O410    1.286   .     A
C376   C385    1.428   .     S
C377   C382    1.425   .     A
C378   H396    1.085   .     S
C378   C330    1.396   1_655 S
C379   H397    1.085   .     S
C380   H401    1.110   .     S
C380   C382    1.509   .     S
C380   H608    1.111   1_545 S
C380   H610    1.107   1_545 S
C381   H394    1.110   .     S
C381   C383    1.509   .     S
C381   H496    1.111   .     S
C381   H497    1.107   .     S
C383   C327    1.396   1_655 S
C384   C593    1.351   1_545 S
C384   I613    2.166   1_545 S
C385   C488    1.351   .     S
C385   I510    2.166   .     S
C386   O413    1.291   .     A
C386   O415    1.290   .     A
C387   O416    1.290   .     A
C387   O414    1.291   .     A
C388   I403    2.146   .     S
Cu389  O409    1.972   .     S
Cu389  O416    1.950   .     S
Cu389  O412    1.966   .     S
Cu389  N408    2.015   .     S
Cu389  O413    1.962   .     S
Cu389  Cu390   2.682   .     S
Cu390  O415    1.950   .     S
Cu390  O411    1.966   .     S
Cu390  N407    2.015   .     S
Cu390  O414    1.962   .     S
Cu390  O410    1.972   .     S
H392   C589    1.111   1_545 S
H393   C589    1.107   1_545 S
H398   N719    1.029   .     S
H400   C484    1.111   .     S
H402   C484    1.107   .     S
I405   C488    2.166   .     S
I406   C593    2.166   1_545 S
N408   H711    1.029   .     S
N408   N719    1.289   .     S
C417   O461    1.286   .     A
C417   O463    1.288   .     A
C417   C436    1.428   .     S
C418   C420    1.405   .     A
C418   I456    2.146   .     S
C418   C429    1.419   .     A
C419   C439    1.445   .     S
C419   C440    1.405   .     A
C419   C421    1.387   .     A
C420   C422    1.387   .     A
C420   C438    1.445   .     S
C421   C423    1.387   .     A
C421   H443    1.086   .     S
C422   H447    1.086   .     S
C422   C424    1.387   .     A
C423   C430    1.393   .     A
C423   C425    1.409   .     A
C424   C431    1.393   .     A
C424   C426    1.409   .     A
C425   C427    1.428   .     A
C425   C478    1.408   .     S
C426   C429    1.428   .     A
C426   C477    1.408   1_455 S
C427   C435    1.425   .     A
C427   C440    1.419   .     A
C428   O464    1.288   .     A
C428   O462    1.286   .     A
C428   C437    1.428   .     S
C429   C434    1.425   .     A
C430   H448    1.085   .     S
C430   C486    1.396   .     S
C431   H449    1.085   .     S
C431   C487    1.396   1_455 S
C432   H453    1.110   .     S
C432   C434    1.509   .     S
C433   H446    1.110   .     S
C433   C435    1.509   .     S
C433   H548    1.111   .     S
C433   H549    1.107   .     S
C434   C482    1.396   1_455 S
C435   C483    1.396   .     S
C437   C540    1.351   .     S
C437   I562    2.166   .     S
C438   O465    1.291   .     A
C438   O467    1.290   .     A
C439   O468    1.290   .     A
C439   O466    1.291   .     A
C440   I455    2.146   .     S
Cu441  O461    1.972   .     S
Cu441  O468    1.950   .     S
Cu441  O464    1.966   .     S
Cu441  N460    2.015   .     S
Cu441  O465    1.962   .     S
Cu441  Cu442   2.682   .     S
Cu442  O467    1.950   .     S
Cu442  O463    1.966   .     S
Cu442  N459    2.015   .     S
Cu442  O466    1.962   .     S
Cu442  O462    1.972   .     S
H450   N771    1.029   .     S
H452   C536    1.111   .     S
H454   C536    1.107   .     S
I457   C540    2.166   .     S
N460   H763    1.029   .     S
N460   N771    1.289   .     S
C469   O513    1.286   .     A
C469   O515    1.288   .     A
C469   C488    1.428   .     S
C470   C472    1.405   .     A
C470   I508    2.146   .     S
C470   C481    1.419   .     A
C471   C491    1.445   .     S
C471   C492    1.405   .     A
C471   C473    1.387   .     A
C472   C474    1.387   .     A
C472   C490    1.445   .     S
C473   C475    1.387   .     A
C473   H495    1.086   .     S
C474   H499    1.086   .     S
C474   C476    1.387   .     A
C475   C482    1.393   .     A
C475   C477    1.409   .     A
C476   C483    1.393   .     A
C476   C478    1.409   .     A
C477   C479    1.428   .     A
C477   C426    1.408   1_655 S
C478   C481    1.428   .     A
C479   C487    1.425   .     A
C479   C492    1.419   .     A
C480   O516    1.288   .     A
C480   O514    1.286   .     A
C480   C489    1.428   .     S
C481   C486    1.425   .     A
C482   H500    1.085   .     S
C482   C434    1.396   1_655 S
C483   H501    1.085   .     S
C484   H505    1.110   .     S
C484   C486    1.509   .     S
C485   H498    1.110   .     S
C485   C487    1.509   .     S
C485   H600    1.111   .     S
C485   H601    1.107   .     S
C487   C431    1.396   1_655 S
C489   C592    1.351   .     S
C489   I614    2.166   .     S
C490   O517    1.291   .     A
C490   O519    1.290   .     A
C491   O520    1.290   .     A
C491   O518    1.291   .     A
C492   I507    2.146   .     S
Cu493  O513    1.972   .     S
Cu493  O520    1.950   .     S
Cu493  O516    1.966   .     S
Cu493  N512    2.015   .     S
Cu493  O517    1.962   .     S
Cu493  Cu494   2.682   .     S
Cu494  O519    1.950   .     S
Cu494  O515    1.966   .     S
Cu494  N511    2.015   .     S
Cu494  O518    1.962   .     S
Cu494  O514    1.972   .     S
H502   N823    1.029   .     S
H504   C588    1.111   .     S
H506   C588    1.107   .     S
I509   C592    2.166   .     S
N512   H815    1.029   .     S
N512   N823    1.289   .     S
C521   O565    1.286   .     A
C521   O567    1.288   .     A
C521   C540    1.428   .     S
C522   C524    1.405   .     A
C522   I560    2.146   .     S
C522   C533    1.419   .     A
C523   C543    1.445   .     S
C523   C544    1.405   .     A
C523   C525    1.387   .     A
C524   C526    1.387   .     A
C524   C542    1.445   .     S
C525   C527    1.387   .     A
C525   H547    1.086   .     S
C526   H551    1.086   .     S
C526   C528    1.387   .     A
C527   C534    1.393   .     A
C527   C529    1.409   .     A
C528   C535    1.393   .     A
C528   C530    1.409   .     A
C529   C531    1.428   .     A
C529   C582    1.408   .     S
C530   C533    1.428   .     A
C530   C581    1.408   1_455 S
C531   C539    1.425   .     A
C531   C544    1.419   .     A
C532   O568    1.288   .     A
C532   O566    1.286   .     A
C532   C541    1.428   .     S
C533   C538    1.425   .     A
C534   H552    1.085   .     S
C534   C590    1.396   .     S
C535   H553    1.085   .     S
C535   C591    1.396   1_455 S
C536   H557    1.110   .     S
C536   C538    1.509   .     S
C537   H550    1.110   .     S
C537   C539    1.509   .     S
C537   H340    1.111   1_565 S
C537   H341    1.107   1_565 S
C538   C586    1.396   1_455 S
C539   C587    1.396   .     S
C541   C332    1.351   1_565 S
C541   I354    2.166   1_565 S
C542   O569    1.291   .     A
C542   O571    1.290   .     A
C543   O572    1.290   .     A
C543   O570    1.291   .     A
C544   I559    2.146   .     S
Cu545  O565    1.972   .     S
Cu545  O572    1.950   .     S
Cu545  O568    1.966   .     S
Cu545  N564    2.015   .     S
Cu545  O569    1.962   .     S
Cu545  Cu546   2.682   .     S
Cu546  O571    1.950   .     S
Cu546  O567    1.966   .     S
Cu546  N563    2.015   .     S
Cu546  O570    1.962   .     S
Cu546  O566    1.972   .     S
H554   N875    1.029   .     S
H556   C328    1.111   1_565 S
H558   C328    1.107   1_565 S
I561   C332    2.166   1_565 S
N564   H867    1.029   .     S
N564   N875    1.289   .     S
C573   O617    1.286   .     A
C573   O619    1.288   .     A
C573   C592    1.428   .     S
C574   C576    1.405   .     A
C574   I612    2.146   .     S
C574   C585    1.419   .     A
C575   C595    1.445   .     S
C575   C596    1.405   .     A
C575   C577    1.387   .     A
C576   C578    1.387   .     A
C576   C594    1.445   .     S
C577   C579    1.387   .     A
C577   H599    1.086   .     S
C578   H603    1.086   .     S
C578   C580    1.387   .     A
C579   C586    1.393   .     A
C579   C581    1.409   .     A
C580   C587    1.393   .     A
C580   C582    1.409   .     A
C581   C583    1.428   .     A
C581   C530    1.408   1_655 S
C582   C585    1.428   .     A
C583   C591    1.425   .     A
C583   C596    1.419   .     A
C584   O620    1.288   .     A
C584   O618    1.286   .     A
C584   C593    1.428   .     S
C585   C590    1.425   .     A
C586   H604    1.085   .     S
C586   C538    1.396   1_655 S
C587   H605    1.085   .     S
C588   H609    1.110   .     S
C588   C590    1.509   .     S
C589   H602    1.110   .     S
C589   C591    1.509   .     S
C589   H392    1.111   1_565 S
C589   H393    1.107   1_565 S
C591   C535    1.396   1_655 S
C593   C384    1.351   1_565 S
C593   I406    2.166   1_565 S
C594   O621    1.291   .     A
C594   O623    1.290   .     A
C595   O624    1.290   .     A
C595   O622    1.291   .     A
C596   I611    2.146   .     S
Cu597  O617    1.972   .     S
Cu597  O624    1.950   .     S
Cu597  O620    1.966   .     S
Cu597  N616    2.015   .     S
Cu597  O621    1.962   .     S
Cu597  Cu598   2.682   .     S
Cu598  O623    1.950   .     S
Cu598  O619    1.966   .     S
Cu598  N615    2.015   .     S
Cu598  O622    1.962   .     S
Cu598  O618    1.972   .     S
H606   N927    1.029   .     S
H608   C380    1.111   1_565 S
H610   C380    1.107   1_565 S
I613   C384    2.166   1_565 S
N616   H919    1.029   .     S
N616   N927    1.289   .     S
C625   O669    1.286   .     A
C625   O671    1.288   .     A
C625   C644    1.428   .     S
C626   C628    1.405   .     A
C626   I664    2.146   .     S
C626   C637    1.419   .     A
C627   C647    1.445   .     S
C627   C648    1.405   .     A
C627   C629    1.387   .     A
C628   C630    1.387   .     A
C628   C646    1.445   .     S
C629   C631    1.387   .     A
C629   H651    1.086   .     S
C630   H655    1.086   .     S
C630   C632    1.387   .     A
C631   C638    1.393   .     A
C631   C633    1.409   .     A
C632   C639    1.393   .     A
C632   C634    1.409   .     A
C633   C635    1.428   .     A
C633   C686    1.408   .     S
C634   C637    1.428   .     A
C634   C685    1.408   1_455 S
C635   C643    1.425   .     A
C635   C648    1.419   .     A
C636   O672    1.288   .     A
C636   O670    1.286   .     A
C636   C645    1.428   .     S
C637   C642    1.425   .     A
C638   H656    1.085   .     S
C638   C694    1.396   .     S
C639   H657    1.085   .     S
C639   C695    1.396   1_455 S
C640   H661    1.110   .     S
C640   C642    1.509   .     S
C640   H868    1.111   1_545 S
C640   H870    1.107   1_545 S
C641   H654    1.110   .     S
C641   C643    1.509   .     S
C641   H756    1.111   .     S
C641   H757    1.107   .     S
C642   C690    1.396   1_455 S
C643   C691    1.396   .     S
C644   C853    1.351   1_545 S
C644   I873    2.166   1_545 S
C645   C748    1.351   .     S
C645   I770    2.166   .     S
C646   O673    1.291   .     A
C646   O675    1.290   .     A
C647   O676    1.290   .     A
C647   O674    1.291   .     A
C648   I663    2.146   .     S
Cu649  O669    1.972   .     S
Cu649  O676    1.950   .     S
Cu649  O672    1.966   .     S
Cu649  N668    2.015   .     S
Cu649  O673    1.962   .     S
Cu649  Cu650   2.682   .     S
Cu650  O675    1.950   .     S
Cu650  O671    1.966   .     S
Cu650  N667    2.015   .     S
Cu650  O674    1.962   .     S
Cu650  O670    1.972   .     S
H652   C849    1.111   1_545 S
H653   C849    1.107   1_545 S
H658   N43     1.029   1_556 S
H660   C744    1.111   .     S
H662   C744    1.107   .     S
I665   C748    2.166   .     S
I666   C853    2.166   1_545 S
N668   H35     1.029   1_556 S
N668   N43     1.289   1_556 S
C677   O721    1.286   .     A
C677   O723    1.288   .     A
C677   C696    1.428   .     S
C678   C680    1.405   .     A
C678   I716    2.146   .     S
C678   C689    1.419   .     A
C679   C699    1.445   .     S
C679   C700    1.405   .     A
C679   C681    1.387   .     A
C680   C682    1.387   .     A
C680   C698    1.445   .     S
C681   C683    1.387   .     A
C681   H703    1.086   .     S
C682   H707    1.086   .     S
C682   C684    1.387   .     A
C683   C690    1.393   .     A
C683   C685    1.409   .     A
C684   C691    1.393   .     A
C684   C686    1.409   .     A
C685   C687    1.428   .     A
C685   C634    1.408   1_655 S
C686   C689    1.428   .     A
C687   C695    1.425   .     A
C687   C700    1.419   .     A
C688   O724    1.288   .     A
C688   O722    1.286   .     A
C688   C697    1.428   .     S
C689   C694    1.425   .     A
C690   H708    1.085   .     S
C690   C642    1.396   1_655 S
C691   H709    1.085   .     S
C692   H713    1.110   .     S
C692   C694    1.509   .     S
C692   H920    1.111   1_545 S
C692   H922    1.107   1_545 S
C693   H706    1.110   .     S
C693   C695    1.509   .     S
C693   H808    1.111   .     S
C693   H809    1.107   .     S
C695   C639    1.396   1_655 S
C696   C905    1.351   1_545 S
C696   I925    2.166   1_545 S
C697   C800    1.351   .     S
C697   I822    2.166   .     S
C698   O725    1.291   .     A
C698   O727    1.290   .     A
C699   O728    1.290   .     A
C699   O726    1.291   .     A
C700   I715    2.146   .     S
Cu701  O721    1.972   .     S
Cu701  O728    1.950   .     S
Cu701  O724    1.966   .     S
Cu701  N720    2.015   .     S
Cu701  O725    1.962   .     S
Cu701  Cu702   2.682   .     S
Cu702  O727    1.950   .     S
Cu702  O723    1.966   .     S
Cu702  N719    2.015   .     S
Cu702  O726    1.962   .     S
Cu702  O722    1.972   .     S
H704   C901    1.111   1_545 S
H705   C901    1.107   1_545 S
H710   N95     1.029   1_556 S
H712   C796    1.111   .     S
H714   C796    1.107   .     S
I717   C800    2.166   .     S
I718   C905    2.166   1_545 S
N720   H87     1.029   1_556 S
N720   N95     1.289   1_556 S
C729   O773    1.286   .     A
C729   O775    1.288   .     A
C729   C748    1.428   .     S
C730   C732    1.405   .     A
C730   I768    2.146   .     S
C730   C741    1.419   .     A
C731   C751    1.445   .     S
C731   C752    1.405   .     A
C731   C733    1.387   .     A
C732   C734    1.387   .     A
C732   C750    1.445   .     S
C733   C735    1.387   .     A
C733   H755    1.086   .     S
C734   H759    1.086   .     S
C734   C736    1.387   .     A
C735   C742    1.393   .     A
C735   C737    1.409   .     A
C736   C743    1.393   .     A
C736   C738    1.409   .     A
C737   C739    1.428   .     A
C737   C790    1.408   .     S
C738   C741    1.428   .     A
C738   C789    1.408   1_455 S
C739   C747    1.425   .     A
C739   C752    1.419   .     A
C740   O776    1.288   .     A
C740   O774    1.286   .     A
C740   C749    1.428   .     S
C741   C746    1.425   .     A
C742   H760    1.085   .     S
C742   C798    1.396   .     S
C743   H761    1.085   .     S
C743   C799    1.396   1_455 S
C744   H765    1.110   .     S
C744   C746    1.509   .     S
C745   H758    1.110   .     S
C745   C747    1.509   .     S
C745   H860    1.111   .     S
C745   H861    1.107   .     S
C746   C794    1.396   1_455 S
C747   C795    1.396   .     S
C749   C852    1.351   .     S
C749   I874    2.166   .     S
C750   O777    1.291   .     A
C750   O779    1.290   .     A
C751   O780    1.290   .     A
C751   O778    1.291   .     A
C752   I767    2.146   .     S
Cu753  O773    1.972   .     S
Cu753  O780    1.950   .     S
Cu753  O776    1.966   .     S
Cu753  N772    2.015   .     S
Cu753  O777    1.962   .     S
Cu753  Cu754   2.682   .     S
Cu754  O779    1.950   .     S
Cu754  O775    1.966   .     S
Cu754  N771    2.015   .     S
Cu754  O778    1.962   .     S
Cu754  O774    1.972   .     S
H762   N147    1.029   1_556 S
H764   C848    1.111   .     S
H766   C848    1.107   .     S
I769   C852    2.166   .     S
N772   H139    1.029   1_556 S
N772   N147    1.289   1_556 S
C781   O825    1.286   .     A
C781   O827    1.288   .     A
C781   C800    1.428   .     S
C782   C784    1.405   .     A
C782   I820    2.146   .     S
C782   C793    1.419   .     A
C783   C803    1.445   .     S
C783   C804    1.405   .     A
C783   C785    1.387   .     A
C784   C786    1.387   .     A
C784   C802    1.445   .     S
C785   C787    1.387   .     A
C785   H807    1.086   .     S
C786   H811    1.086   .     S
C786   C788    1.387   .     A
C787   C794    1.393   .     A
C787   C789    1.409   .     A
C788   C795    1.393   .     A
C788   C790    1.409   .     A
C789   C791    1.428   .     A
C789   C738    1.408   1_655 S
C790   C793    1.428   .     A
C791   C799    1.425   .     A
C791   C804    1.419   .     A
C792   O828    1.288   .     A
C792   O826    1.286   .     A
C792   C801    1.428   .     S
C793   C798    1.425   .     A
C794   H812    1.085   .     S
C794   C746    1.396   1_655 S
C795   H813    1.085   .     S
C796   H817    1.110   .     S
C796   C798    1.509   .     S
C797   H810    1.110   .     S
C797   C799    1.509   .     S
C797   H912    1.111   .     S
C797   H913    1.107   .     S
C799   C743    1.396   1_655 S
C801   C904    1.351   .     S
C801   I926    2.166   .     S
C802   O829    1.291   .     A
C802   O831    1.290   .     A
C803   O832    1.290   .     A
C803   O830    1.291   .     A
C804   I819    2.146   .     S
Cu805  O825    1.972   .     S
Cu805  O832    1.950   .     S
Cu805  O828    1.966   .     S
Cu805  N824    2.015   .     S
Cu805  O829    1.962   .     S
Cu805  Cu806   2.682   .     S
Cu806  O831    1.950   .     S
Cu806  O827    1.966   .     S
Cu806  N823    2.015   .     S
Cu806  O830    1.962   .     S
Cu806  O826    1.972   .     S
H814   N199    1.029   1_556 S
H816   C900    1.111   .     S
H818   C900    1.107   .     S
I821   C904    2.166   .     S
N824   H191    1.029   1_556 S
N824   N199    1.289   1_556 S
C833   O877    1.286   .     A
C833   O879    1.288   .     A
C833   C852    1.428   .     S
C834   C836    1.405   .     A
C834   I872    2.146   .     S
C834   C845    1.419   .     A
C835   C855    1.445   .     S
C835   C856    1.405   .     A
C835   C837    1.387   .     A
C836   C838    1.387   .     A
C836   C854    1.445   .     S
C837   C839    1.387   .     A
C837   H859    1.086   .     S
C838   H863    1.086   .     S
C838   C840    1.387   .     A
C839   C846    1.393   .     A
C839   C841    1.409   .     A
C840   C847    1.393   .     A
C840   C842    1.409   .     A
C841   C843    1.428   .     A
C841   C894    1.408   .     S
C842   C845    1.428   .     A
C842   C893    1.408   1_455 S
C843   C851    1.425   .     A
C843   C856    1.419   .     A
C844   O880    1.288   .     A
C844   O878    1.286   .     A
C844   C853    1.428   .     S
C845   C850    1.425   .     A
C846   H864    1.085   .     S
C846   C902    1.396   .     S
C847   H865    1.085   .     S
C847   C903    1.396   1_455 S
C848   H869    1.110   .     S
C848   C850    1.509   .     S
C849   H862    1.110   .     S
C849   C851    1.509   .     S
C849   H652    1.111   1_565 S
C849   H653    1.107   1_565 S
C850   C898    1.396   1_455 S
C851   C899    1.396   .     S
C853   C644    1.351   1_565 S
C853   I666    2.166   1_565 S
C854   O881    1.291   .     A
C854   O883    1.290   .     A
C855   O884    1.290   .     A
C855   O882    1.291   .     A
C856   I871    2.146   .     S
Cu857  O877    1.972   .     S
Cu857  O884    1.950   .     S
Cu857  O880    1.966   .     S
Cu857  N876    2.015   .     S
Cu857  O881    1.962   .     S
Cu857  Cu858   2.682   .     S
Cu858  O883    1.950   .     S
Cu858  O879    1.966   .     S
Cu858  N875    2.015   .     S
Cu858  O882    1.962   .     S
Cu858  O878    1.972   .     S
H866   N251    1.029   1_556 S
H868   C640    1.111   1_565 S
H870   C640    1.107   1_565 S
I873   C644    2.166   1_565 S
N876   H243    1.029   1_556 S
N876   N251    1.289   1_556 S
C885   O929    1.286   .     A
C885   O931    1.288   .     A
C885   C904    1.428   .     S
C886   C888    1.405   .     A
C886   I924    2.146   .     S
C886   C897    1.419   .     A
C887   C907    1.445   .     S
C887   C908    1.405   .     A
C887   C889    1.387   .     A
C888   C890    1.387   .     A
C888   C906    1.445   .     S
C889   C891    1.387   .     A
C889   H911    1.086   .     S
C890   H915    1.086   .     S
C890   C892    1.387   .     A
C891   C898    1.393   .     A
C891   C893    1.409   .     A
C892   C899    1.393   .     A
C892   C894    1.409   .     A
C893   C895    1.428   .     A
C893   C842    1.408   1_655 S
C894   C897    1.428   .     A
C895   C903    1.425   .     A
C895   C908    1.419   .     A
C896   O932    1.288   .     A
C896   O930    1.286   .     A
C896   C905    1.428   .     S
C897   C902    1.425   .     A
C898   H916    1.085   .     S
C898   C850    1.396   1_655 S
C899   H917    1.085   .     S
C900   H921    1.110   .     S
C900   C902    1.509   .     S
C901   H914    1.110   .     S
C901   C903    1.509   .     S
C901   H704    1.111   1_565 S
C901   H705    1.107   1_565 S
C903   C847    1.396   1_655 S
C905   C696    1.351   1_565 S
C905   I718    2.166   1_565 S
C906   O933    1.291   .     A
C906   O935    1.290   .     A
C907   O936    1.290   .     A
C907   O934    1.291   .     A
C908   I923    2.146   .     S
Cu909  O929    1.972   .     S
Cu909  O936    1.950   .     S
Cu909  O932    1.966   .     S
Cu909  N928    2.015   .     S
Cu909  O933    1.962   .     S
Cu909  Cu910   2.682   .     S
Cu910  O935    1.950   .     S
Cu910  O931    1.966   .     S
Cu910  N927    2.015   .     S
Cu910  O934    1.962   .     S
Cu910  O930    1.972   .     S
H918   N303    1.029   1_556 S
H920   C692    1.111   1_565 S
H922   C692    1.107   1_565 S
I925   C696    2.166   1_565 S
N928   H295    1.029   1_556 S
N928   N303    1.289   1_556 S
