data_str_m2_o2_o10_pcu_sym.3
_audit_creation_date              2020-01-03
_audit_creation_method            'Materials Studio'
_symmetry_space_group_name_H-M    'P1'
_symmetry_Int_Tables_number       1
_symmetry_cell_setting            triclinic
loop_
_symmetry_equiv_pos_as_xyz
  x,y,z
_cell_length_a                    26.2643
_cell_length_b                    30.2346
_cell_length_c                    27.9944
_cell_angle_alpha                 90.3186
_cell_angle_beta                  96.7687
_cell_angle_gamma                 92.1641
loop_
_atom_site_label
_atom_site_type_symbol
_atom_site_fract_x
_atom_site_fract_y
_atom_site_fract_z
_atom_site_U_iso_or_equiv
_atom_site_adp_type
_atom_site_occupancy
C1     C     0.16747   0.16498   0.24984   0.00000  Uiso   1.00
C2     C     0.21403   0.26231   0.45074   0.00000  Uiso   1.00
C3     C     0.17153   0.24517   0.02769   0.00000  Uiso   1.00
C4     C     0.17201   0.24557   0.47338   0.00000  Uiso   1.00
C5     C     0.06832   0.24895   0.23829   0.00000  Uiso   1.00
C6     C     0.26505   0.25198   0.26165   0.00000  Uiso   1.00
C7     C     0.01391   0.24044   0.23442   0.00000  Uiso   1.00
C8     C     0.31946   0.26144   0.26503   0.00000  Uiso   1.00
C9     C     0.13815   0.04766   0.28340   0.00000  Uiso   1.00
C10    C     0.12602   0.44900   0.21823   0.00000  Uiso   1.00
C11    C     0.14246   0.09360   0.28367   0.00000  Uiso   1.00
C12    C     0.16682   0.33483   0.25017   0.00000  Uiso   1.00
C13    C     0.12972   0.40334   0.21822   0.00000  Uiso   1.00
C14    C     0.16727   0.11642   0.24913   0.00000  Uiso   1.00
C15    C     0.16579   0.38293   0.25051   0.00000  Uiso   1.00
C16    C     0.18903   0.09242   0.21339   0.00000  Uiso   1.00
C17    C     0.19992   0.40801   0.28331   0.00000  Uiso   1.00
C18    C     0.18516   0.04627   0.21251   0.00000  Uiso   1.00
C19    C     0.19833   0.45456   0.28296   0.00000  Uiso   1.00
C20    C     0.16028   0.02358   0.24804   0.00000  Uiso   1.00
C21    C     0.16095   0.47506   0.25028   0.00000  Uiso   1.00
C22    C     0.32616   0.20183   0.20230   0.00000  Uiso   1.00
C23    C     0.18812   0.28305   0.05488   0.00000  Uiso   1.00
C24    C     0.00680   0.30161   0.29509   0.00000  Uiso   1.00
C25    C     0.21798   0.32296   0.13100   0.00000  Uiso   1.00
C26    C     0.08375   0.20311   0.36540   0.00000  Uiso   1.00
C27    C     0.14006   0.16411   0.02903   0.00000  Uiso   1.00
C28    C     0.26559   0.27393   0.47884   0.00000  Uiso   1.00
C29    C     0.12842   0.23067   0.44315   0.00000  Uiso   1.00
C30    C     0.18951   0.28395   0.10542   0.00000  Uiso   1.00
C31    C     0.12774   0.22939   0.39267   0.00000  Uiso   1.00
C32    C     0.14669   0.21340   0.10247   0.00000  Uiso   1.00
C33    C     0.20855   0.26798   0.40007   0.00000  Uiso   1.00
C34    C     0.15296   0.20872   0.05297   0.00000  Uiso   1.00
Cu35   Cu    0.16667   0.24999   0.29822   0.00000  Uiso   1.00
Cu36   Cu    0.16667   0.25000   0.20179   0.00000  Uiso   1.00
H37    H     0.12516   0.11161   0.31077   0.00000  Uiso   1.00
H38    H     0.02753   0.32502   0.27301   0.00000  Uiso   1.00
H39    H     0.10732   0.49584   0.31227   0.00000  Uiso   1.00
H40    H     0.08607   0.49855   0.19184   0.00000  Uiso   1.00
H41    H     0.23271   0.13998   0.19296   0.00000  Uiso   1.00
H42    H     0.25660   0.40722   0.33560   0.00000  Uiso   1.00
H43    H     0.20444   0.49251   0.18010   0.00000  Uiso   1.00
H44    H     0.23208   0.01053   0.30853   0.00000  Uiso   1.00
H45    H     0.24118   0.31281   0.16436   0.00000  Uiso   1.00
H46    H     0.24579   0.33852   0.10856   0.00000  Uiso   1.00
H47    H     0.19072   0.34873   0.13792   0.00000  Uiso   1.00
H48    H     0.10330   0.38344   0.19341   0.00000  Uiso   1.00
H49    H     0.09482   0.18642   0.33341   0.00000  Uiso   1.00
H50    H     0.07016   0.17605   0.38804   0.00000  Uiso   1.00
H51    H     0.05092   0.22443   0.35568   0.00000  Uiso   1.00
H52    H     0.09910   0.19315   0.14484   0.00000  Uiso   1.00
H53    H     0.23098   0.30910   0.35481   0.00000  Uiso   1.00
H54    H     0.09778   0.15844   0.02283   0.00000  Uiso   1.00
H55    H     0.15647   0.16083   0.49453   0.00000  Uiso   1.00
H56    H     0.15674   0.13757   0.05256   0.00000  Uiso   1.00
H57    H     0.27160   0.31044   0.48148   0.00000  Uiso   1.00
H58    H     0.26963   0.25961   0.01539   0.00000  Uiso   1.00
H59    H     0.20190   0.31190   0.03675   0.00000  Uiso   1.00
H60    H     0.29663   0.26007   0.46026   0.00000  Uiso   1.00
H61    H     0.09516   0.21805   0.45902   0.00000  Uiso   1.00
H62    H     0.02394   0.18394   0.18787   0.00000  Uiso   1.00
H63    H     0.30576   0.17762   0.22360   0.00000  Uiso   1.00
H64    H     0.30026   0.21341   0.17107   0.00000  Uiso   1.00
H65    H     0.30857   0.31986   0.30827   0.00000  Uiso   1.00
H66    H     0.03287   0.29205   0.32698   0.00000  Uiso   1.00
N67    N     0.16667   0.25001   0.12935   0.00000  Uiso   1.00
N68    N     0.16667   0.24999   0.37066   0.00000  Uiso   1.00
O69    O     0.16667   0.18572   0.29072   0.00000  Uiso   1.00
O70    O     0.08827   0.46646   0.18593   0.00000  Uiso   1.00
O71    O     0.21540   0.11254   0.17905   0.00000  Uiso   1.00
O72    O     0.23558   0.38599   0.31382   0.00000  Uiso   1.00
O73    O     0.20810   0.02496   0.17716   0.00000  Uiso   1.00
O74    O     0.23406   0.47843   0.31436   0.00000  Uiso   1.00
O75    O     0.12052   0.17953   0.12268   0.00000  Uiso   1.00
O76    O     0.24721   0.29159   0.38151   0.00000  Uiso   1.00
O77    O     0.16666   0.31427   0.20929   0.00000  Uiso   1.00
O78    O     0.16667   0.18573   0.20928   0.00000  Uiso   1.00
O79    O     0.16666   0.31427   0.29072   0.00000  Uiso   1.00
O80    O     0.09161   0.24999   0.28132   0.00000  Uiso   1.00
O81    O     0.24172   0.25000   0.21868   0.00000  Uiso   1.00
O82    O     0.09161   0.25000   0.19989   0.00000  Uiso   1.00
O83    O     0.24172   0.25000   0.30012   0.00000  Uiso   1.00
O84    O     0.11249   0.02799   0.31861   0.00000  Uiso   1.00
C85    C     0.50080   0.16498   0.24984   0.00000  Uiso   1.00
C86    C     0.54737   0.26231   0.45074   0.00000  Uiso   1.00
C87    C     0.50486   0.24517   0.02769   0.00000  Uiso   1.00
C88    C     0.50534   0.24557   0.47338   0.00000  Uiso   1.00
C89    C     0.40165   0.24895   0.23829   0.00000  Uiso   1.00
C90    C     0.59839   0.25198   0.26165   0.00000  Uiso   1.00
C91    C     0.34724   0.24044   0.23442   0.00000  Uiso   1.00
C92    C     0.65280   0.26144   0.26503   0.00000  Uiso   1.00
C93    C     0.47149   0.04766   0.28340   0.00000  Uiso   1.00
C94    C     0.45935   0.44900   0.21823   0.00000  Uiso   1.00
C95    C     0.47580   0.09360   0.28367   0.00000  Uiso   1.00
C96    C     0.50015   0.33483   0.25017   0.00000  Uiso   1.00
C97    C     0.46305   0.40334   0.21822   0.00000  Uiso   1.00
C98    C     0.50060   0.11642   0.24913   0.00000  Uiso   1.00
C99    C     0.49913   0.38293   0.25051   0.00000  Uiso   1.00
C100   C     0.52236   0.09242   0.21339   0.00000  Uiso   1.00
C101   C     0.53326   0.40801   0.28331   0.00000  Uiso   1.00
C102   C     0.51849   0.04627   0.21251   0.00000  Uiso   1.00
C103   C     0.53166   0.45456   0.28296   0.00000  Uiso   1.00
C104   C     0.49361   0.02358   0.24804   0.00000  Uiso   1.00
C105   C     0.49428   0.47506   0.25028   0.00000  Uiso   1.00
C106   C     0.65949   0.20183   0.20230   0.00000  Uiso   1.00
C107   C     0.52145   0.28305   0.05488   0.00000  Uiso   1.00
C108   C     0.34013   0.30161   0.29509   0.00000  Uiso   1.00
C109   C     0.55131   0.32296   0.13100   0.00000  Uiso   1.00
C110   C     0.41708   0.20311   0.36540   0.00000  Uiso   1.00
C111   C     0.47340   0.16411   0.02903   0.00000  Uiso   1.00
C112   C     0.59892   0.27393   0.47884   0.00000  Uiso   1.00
C113   C     0.46175   0.23067   0.44315   0.00000  Uiso   1.00
C114   C     0.52284   0.28395   0.10542   0.00000  Uiso   1.00
C115   C     0.46107   0.22939   0.39267   0.00000  Uiso   1.00
C116   C     0.48002   0.21340   0.10247   0.00000  Uiso   1.00
C117   C     0.54188   0.26798   0.40007   0.00000  Uiso   1.00
C118   C     0.48630   0.20872   0.05297   0.00000  Uiso   1.00
Cu119  Cu    0.50000   0.24999   0.29822   0.00000  Uiso   1.00
Cu120  Cu    0.50000   0.25000   0.20179   0.00000  Uiso   1.00
H121   H     0.45849   0.11161   0.31077   0.00000  Uiso   1.00
H122   H     0.36087   0.32502   0.27301   0.00000  Uiso   1.00
H123   H     0.44065   0.49584   0.31227   0.00000  Uiso   1.00
H124   H     0.41941   0.49855   0.19184   0.00000  Uiso   1.00
H125   H     0.56604   0.13998   0.19296   0.00000  Uiso   1.00
H126   H     0.58993   0.40722   0.33560   0.00000  Uiso   1.00
H127   H     0.53777   0.49251   0.18010   0.00000  Uiso   1.00
H128   H     0.56541   0.01053   0.30853   0.00000  Uiso   1.00
H129   H     0.57451   0.31281   0.16436   0.00000  Uiso   1.00
H130   H     0.57913   0.33852   0.10856   0.00000  Uiso   1.00
H131   H     0.52405   0.34873   0.13792   0.00000  Uiso   1.00
H132   H     0.43663   0.38344   0.19341   0.00000  Uiso   1.00
H133   H     0.42815   0.18642   0.33341   0.00000  Uiso   1.00
H134   H     0.40349   0.17605   0.38804   0.00000  Uiso   1.00
H135   H     0.38425   0.22443   0.35568   0.00000  Uiso   1.00
H136   H     0.43243   0.19315   0.14484   0.00000  Uiso   1.00
H137   H     0.56431   0.30910   0.35481   0.00000  Uiso   1.00
H138   H     0.43112   0.15844   0.02283   0.00000  Uiso   1.00
H139   H     0.48980   0.16083   0.49453   0.00000  Uiso   1.00
H140   H     0.49007   0.13757   0.05256   0.00000  Uiso   1.00
H141   H     0.60493   0.31044   0.48148   0.00000  Uiso   1.00
H142   H     0.60297   0.25961   0.01539   0.00000  Uiso   1.00
H143   H     0.53523   0.31190   0.03675   0.00000  Uiso   1.00
H144   H     0.62996   0.26007   0.46026   0.00000  Uiso   1.00
H145   H     0.42849   0.21805   0.45902   0.00000  Uiso   1.00
H146   H     0.35728   0.18394   0.18787   0.00000  Uiso   1.00
H147   H     0.63910   0.17762   0.22360   0.00000  Uiso   1.00
H148   H     0.63360   0.21341   0.17107   0.00000  Uiso   1.00
H149   H     0.64191   0.31986   0.30827   0.00000  Uiso   1.00
H150   H     0.36620   0.29205   0.32698   0.00000  Uiso   1.00
N151   N     0.50000   0.25001   0.12935   0.00000  Uiso   1.00
N152   N     0.50000   0.24999   0.37066   0.00000  Uiso   1.00
O153   O     0.50000   0.18572   0.29072   0.00000  Uiso   1.00
O154   O     0.42161   0.46646   0.18593   0.00000  Uiso   1.00
O155   O     0.54873   0.11254   0.17905   0.00000  Uiso   1.00
O156   O     0.56891   0.38599   0.31382   0.00000  Uiso   1.00
O157   O     0.54143   0.02496   0.17716   0.00000  Uiso   1.00
O158   O     0.56739   0.47843   0.31436   0.00000  Uiso   1.00
O159   O     0.45386   0.17953   0.12268   0.00000  Uiso   1.00
O160   O     0.58054   0.29159   0.38151   0.00000  Uiso   1.00
O161   O     0.50000   0.31427   0.20929   0.00000  Uiso   1.00
O162   O     0.50000   0.18573   0.20928   0.00000  Uiso   1.00
O163   O     0.50000   0.31427   0.29072   0.00000  Uiso   1.00
O164   O     0.42495   0.24999   0.28132   0.00000  Uiso   1.00
O165   O     0.57505   0.25000   0.21868   0.00000  Uiso   1.00
O166   O     0.42495   0.25000   0.19989   0.00000  Uiso   1.00
O167   O     0.57505   0.25000   0.30012   0.00000  Uiso   1.00
O168   O     0.44582   0.02799   0.31861   0.00000  Uiso   1.00
C169   C     0.83413   0.16498   0.24984   0.00000  Uiso   1.00
C170   C     0.88070   0.26231   0.45074   0.00000  Uiso   1.00
C171   C     0.83820   0.24517   0.02769   0.00000  Uiso   1.00
C172   C     0.83867   0.24557   0.47338   0.00000  Uiso   1.00
C173   C     0.73498   0.24895   0.23829   0.00000  Uiso   1.00
C174   C     0.93172   0.25198   0.26165   0.00000  Uiso   1.00
C175   C     0.68058   0.24044   0.23442   0.00000  Uiso   1.00
C176   C     0.98613   0.26144   0.26503   0.00000  Uiso   1.00
C177   C     0.80482   0.04766   0.28340   0.00000  Uiso   1.00
C178   C     0.79268   0.44900   0.21823   0.00000  Uiso   1.00
C179   C     0.80913   0.09360   0.28367   0.00000  Uiso   1.00
C180   C     0.83348   0.33483   0.25017   0.00000  Uiso   1.00
C181   C     0.79638   0.40334   0.21822   0.00000  Uiso   1.00
C182   C     0.83394   0.11642   0.24913   0.00000  Uiso   1.00
C183   C     0.83246   0.38293   0.25051   0.00000  Uiso   1.00
C184   C     0.85570   0.09242   0.21339   0.00000  Uiso   1.00
C185   C     0.86659   0.40801   0.28331   0.00000  Uiso   1.00
C186   C     0.85183   0.04627   0.21251   0.00000  Uiso   1.00
C187   C     0.86500   0.45456   0.28296   0.00000  Uiso   1.00
C188   C     0.82695   0.02358   0.24804   0.00000  Uiso   1.00
C189   C     0.82762   0.47506   0.25028   0.00000  Uiso   1.00
C190   C     0.99283   0.20183   0.20230   0.00000  Uiso   1.00
C191   C     0.85479   0.28305   0.05488   0.00000  Uiso   1.00
C192   C     0.67347   0.30161   0.29509   0.00000  Uiso   1.00
C193   C     0.88464   0.32296   0.13100   0.00000  Uiso   1.00
C194   C     0.75042   0.20311   0.36540   0.00000  Uiso   1.00
C195   C     0.80673   0.16411   0.02903   0.00000  Uiso   1.00
C196   C     0.93226   0.27393   0.47884   0.00000  Uiso   1.00
C197   C     0.79508   0.23067   0.44315   0.00000  Uiso   1.00
C198   C     0.85617   0.28395   0.10542   0.00000  Uiso   1.00
C199   C     0.79440   0.22939   0.39267   0.00000  Uiso   1.00
C200   C     0.81336   0.21340   0.10247   0.00000  Uiso   1.00
C201   C     0.87522   0.26798   0.40007   0.00000  Uiso   1.00
C202   C     0.81963   0.20872   0.05297   0.00000  Uiso   1.00
Cu203  Cu    0.83333   0.24999   0.29822   0.00000  Uiso   1.00
Cu204  Cu    0.83333   0.25000   0.20179   0.00000  Uiso   1.00
H205   H     0.79182   0.11161   0.31077   0.00000  Uiso   1.00
H206   H     0.69420   0.32502   0.27301   0.00000  Uiso   1.00
H207   H     0.77398   0.49584   0.31227   0.00000  Uiso   1.00
H208   H     0.75274   0.49855   0.19184   0.00000  Uiso   1.00
H209   H     0.89938   0.13998   0.19296   0.00000  Uiso   1.00
H210   H     0.92327   0.40722   0.33560   0.00000  Uiso   1.00
H211   H     0.87111   0.49251   0.18010   0.00000  Uiso   1.00
H212   H     0.89874   0.01053   0.30853   0.00000  Uiso   1.00
H213   H     0.90785   0.31281   0.16436   0.00000  Uiso   1.00
H214   H     0.91246   0.33852   0.10856   0.00000  Uiso   1.00
H215   H     0.85738   0.34873   0.13792   0.00000  Uiso   1.00
H216   H     0.76996   0.38344   0.19341   0.00000  Uiso   1.00
H217   H     0.76148   0.18642   0.33341   0.00000  Uiso   1.00
H218   H     0.73683   0.17605   0.38804   0.00000  Uiso   1.00
H219   H     0.71759   0.22443   0.35568   0.00000  Uiso   1.00
H220   H     0.76577   0.19315   0.14484   0.00000  Uiso   1.00
H221   H     0.89765   0.30910   0.35481   0.00000  Uiso   1.00
H222   H     0.76445   0.15844   0.02283   0.00000  Uiso   1.00
H223   H     0.82313   0.16083   0.49453   0.00000  Uiso   1.00
H224   H     0.82341   0.13757   0.05256   0.00000  Uiso   1.00
H225   H     0.93826   0.31044   0.48148   0.00000  Uiso   1.00
H226   H     0.93630   0.25961   0.01539   0.00000  Uiso   1.00
H227   H     0.86856   0.31190   0.03675   0.00000  Uiso   1.00
H228   H     0.96329   0.26007   0.46026   0.00000  Uiso   1.00
H229   H     0.76183   0.21805   0.45902   0.00000  Uiso   1.00
H230   H     0.69061   0.18394   0.18787   0.00000  Uiso   1.00
H231   H     0.97243   0.17762   0.22360   0.00000  Uiso   1.00
H232   H     0.96693   0.21341   0.17107   0.00000  Uiso   1.00
H233   H     0.97524   0.31986   0.30827   0.00000  Uiso   1.00
H234   H     0.69954   0.29205   0.32698   0.00000  Uiso   1.00
N235   N     0.83333   0.25001   0.12935   0.00000  Uiso   1.00
N236   N     0.83333   0.24999   0.37066   0.00000  Uiso   1.00
O237   O     0.83334   0.18572   0.29072   0.00000  Uiso   1.00
O238   O     0.75494   0.46646   0.18593   0.00000  Uiso   1.00
O239   O     0.88207   0.11254   0.17905   0.00000  Uiso   1.00
O240   O     0.90224   0.38599   0.31382   0.00000  Uiso   1.00
O241   O     0.87476   0.02496   0.17716   0.00000  Uiso   1.00
O242   O     0.90072   0.47843   0.31436   0.00000  Uiso   1.00
O243   O     0.78719   0.17953   0.12268   0.00000  Uiso   1.00
O244   O     0.91387   0.29159   0.38151   0.00000  Uiso   1.00
O245   O     0.83333   0.31427   0.20929   0.00000  Uiso   1.00
O246   O     0.83334   0.18573   0.20928   0.00000  Uiso   1.00
O247   O     0.83333   0.31427   0.29072   0.00000  Uiso   1.00
O248   O     0.75828   0.24999   0.28132   0.00000  Uiso   1.00
O249   O     0.90839   0.25000   0.21868   0.00000  Uiso   1.00
O250   O     0.75828   0.25000   0.19989   0.00000  Uiso   1.00
O251   O     0.90839   0.25000   0.30012   0.00000  Uiso   1.00
O252   O     0.77915   0.02799   0.31861   0.00000  Uiso   1.00
C253   C     0.16747   0.66498   0.24984   0.00000  Uiso   1.00
C254   C     0.21403   0.76231   0.45074   0.00000  Uiso   1.00
C255   C     0.17153   0.74517   0.02769   0.00000  Uiso   1.00
C256   C     0.17201   0.74557   0.47338   0.00000  Uiso   1.00
C257   C     0.06832   0.74895   0.23829   0.00000  Uiso   1.00
C258   C     0.26505   0.75198   0.26165   0.00000  Uiso   1.00
C259   C     0.01391   0.74044   0.23442   0.00000  Uiso   1.00
C260   C     0.31946   0.76144   0.26503   0.00000  Uiso   1.00
C261   C     0.13815   0.54766   0.28340   0.00000  Uiso   1.00
C262   C     0.12602   0.94900   0.21823   0.00000  Uiso   1.00
C263   C     0.14246   0.59360   0.28367   0.00000  Uiso   1.00
C264   C     0.16682   0.83483   0.25017   0.00000  Uiso   1.00
C265   C     0.12972   0.90334   0.21822   0.00000  Uiso   1.00
C266   C     0.16727   0.61642   0.24913   0.00000  Uiso   1.00
C267   C     0.16579   0.88293   0.25051   0.00000  Uiso   1.00
C268   C     0.18903   0.59242   0.21339   0.00000  Uiso   1.00
C269   C     0.19992   0.90801   0.28331   0.00000  Uiso   1.00
C270   C     0.18516   0.54627   0.21251   0.00000  Uiso   1.00
C271   C     0.19833   0.95456   0.28296   0.00000  Uiso   1.00
C272   C     0.16028   0.52358   0.24804   0.00000  Uiso   1.00
C273   C     0.16095   0.97506   0.25028   0.00000  Uiso   1.00
C274   C     0.32616   0.70183   0.20230   0.00000  Uiso   1.00
C275   C     0.18812   0.78305   0.05488   0.00000  Uiso   1.00
C276   C     0.00680   0.80161   0.29509   0.00000  Uiso   1.00
C277   C     0.21798   0.82296   0.13100   0.00000  Uiso   1.00
C278   C     0.08375   0.70311   0.36540   0.00000  Uiso   1.00
C279   C     0.14006   0.66411   0.02903   0.00000  Uiso   1.00
C280   C     0.26559   0.77393   0.47884   0.00000  Uiso   1.00
C281   C     0.12842   0.73067   0.44315   0.00000  Uiso   1.00
C282   C     0.18951   0.78395   0.10542   0.00000  Uiso   1.00
C283   C     0.12774   0.72939   0.39267   0.00000  Uiso   1.00
C284   C     0.14669   0.71340   0.10247   0.00000  Uiso   1.00
C285   C     0.20855   0.76798   0.40007   0.00000  Uiso   1.00
C286   C     0.15296   0.70872   0.05297   0.00000  Uiso   1.00
Cu287  Cu    0.16667   0.74999   0.29822   0.00000  Uiso   1.00
Cu288  Cu    0.16667   0.75000   0.20179   0.00000  Uiso   1.00
H289   H     0.12516   0.61161   0.31077   0.00000  Uiso   1.00
H290   H     0.02753   0.82502   0.27301   0.00000  Uiso   1.00
H291   H     0.10732   0.99584   0.31227   0.00000  Uiso   1.00
H292   H     0.08607   0.99855   0.19184   0.00000  Uiso   1.00
H293   H     0.23271   0.63998   0.19296   0.00000  Uiso   1.00
H294   H     0.25660   0.90722   0.33560   0.00000  Uiso   1.00
H295   H     0.20444   0.99251   0.18010   0.00000  Uiso   1.00
H296   H     0.23208   0.51053   0.30853   0.00000  Uiso   1.00
H297   H     0.24118   0.81281   0.16436   0.00000  Uiso   1.00
H298   H     0.24579   0.83852   0.10856   0.00000  Uiso   1.00
H299   H     0.19072   0.84873   0.13792   0.00000  Uiso   1.00
H300   H     0.10330   0.88344   0.19341   0.00000  Uiso   1.00
H301   H     0.09482   0.68642   0.33341   0.00000  Uiso   1.00
H302   H     0.07016   0.67605   0.38804   0.00000  Uiso   1.00
H303   H     0.05092   0.72443   0.35568   0.00000  Uiso   1.00
H304   H     0.09910   0.69315   0.14484   0.00000  Uiso   1.00
H305   H     0.23098   0.80910   0.35481   0.00000  Uiso   1.00
H306   H     0.09778   0.65844   0.02283   0.00000  Uiso   1.00
H307   H     0.15647   0.66083   0.49453   0.00000  Uiso   1.00
H308   H     0.15674   0.63757   0.05256   0.00000  Uiso   1.00
H309   H     0.27160   0.81044   0.48148   0.00000  Uiso   1.00
H310   H     0.26963   0.75961   0.01539   0.00000  Uiso   1.00
H311   H     0.20190   0.81190   0.03675   0.00000  Uiso   1.00
H312   H     0.29663   0.76007   0.46026   0.00000  Uiso   1.00
H313   H     0.09516   0.71805   0.45902   0.00000  Uiso   1.00
H314   H     0.02394   0.68394   0.18787   0.00000  Uiso   1.00
H315   H     0.30576   0.67762   0.22360   0.00000  Uiso   1.00
H316   H     0.30026   0.71341   0.17107   0.00000  Uiso   1.00
H317   H     0.30857   0.81986   0.30827   0.00000  Uiso   1.00
H318   H     0.03287   0.79205   0.32698   0.00000  Uiso   1.00
N319   N     0.16667   0.75001   0.12935   0.00000  Uiso   1.00
N320   N     0.16667   0.74999   0.37066   0.00000  Uiso   1.00
O321   O     0.16667   0.68572   0.29072   0.00000  Uiso   1.00
O322   O     0.08827   0.96646   0.18593   0.00000  Uiso   1.00
O323   O     0.21540   0.61254   0.17905   0.00000  Uiso   1.00
O324   O     0.23558   0.88599   0.31382   0.00000  Uiso   1.00
O325   O     0.20810   0.52496   0.17716   0.00000  Uiso   1.00
O326   O     0.23406   0.97843   0.31436   0.00000  Uiso   1.00
O327   O     0.12052   0.67953   0.12268   0.00000  Uiso   1.00
O328   O     0.24721   0.79159   0.38151   0.00000  Uiso   1.00
O329   O     0.16666   0.81427   0.20929   0.00000  Uiso   1.00
O330   O     0.16667   0.68573   0.20928   0.00000  Uiso   1.00
O331   O     0.16666   0.81427   0.29072   0.00000  Uiso   1.00
O332   O     0.09161   0.74999   0.28132   0.00000  Uiso   1.00
O333   O     0.24172   0.75000   0.21868   0.00000  Uiso   1.00
O334   O     0.09161   0.75000   0.19989   0.00000  Uiso   1.00
O335   O     0.24172   0.75000   0.30012   0.00000  Uiso   1.00
O336   O     0.11249   0.52799   0.31861   0.00000  Uiso   1.00
C337   C     0.50080   0.66498   0.24984   0.00000  Uiso   1.00
C338   C     0.54737   0.76231   0.45074   0.00000  Uiso   1.00
C339   C     0.50486   0.74517   0.02769   0.00000  Uiso   1.00
C340   C     0.50534   0.74557   0.47338   0.00000  Uiso   1.00
C341   C     0.40165   0.74895   0.23829   0.00000  Uiso   1.00
C342   C     0.59839   0.75198   0.26165   0.00000  Uiso   1.00
C343   C     0.34724   0.74044   0.23442   0.00000  Uiso   1.00
C344   C     0.65280   0.76144   0.26503   0.00000  Uiso   1.00
C345   C     0.47149   0.54766   0.28340   0.00000  Uiso   1.00
C346   C     0.45935   0.94900   0.21823   0.00000  Uiso   1.00
C347   C     0.47580   0.59360   0.28367   0.00000  Uiso   1.00
C348   C     0.50015   0.83483   0.25017   0.00000  Uiso   1.00
C349   C     0.46305   0.90334   0.21822   0.00000  Uiso   1.00
C350   C     0.50060   0.61642   0.24913   0.00000  Uiso   1.00
C351   C     0.49913   0.88293   0.25051   0.00000  Uiso   1.00
C352   C     0.52236   0.59242   0.21339   0.00000  Uiso   1.00
C353   C     0.53326   0.90801   0.28331   0.00000  Uiso   1.00
C354   C     0.51849   0.54627   0.21251   0.00000  Uiso   1.00
C355   C     0.53166   0.95456   0.28296   0.00000  Uiso   1.00
C356   C     0.49361   0.52358   0.24804   0.00000  Uiso   1.00
C357   C     0.49428   0.97506   0.25028   0.00000  Uiso   1.00
C358   C     0.65949   0.70183   0.20230   0.00000  Uiso   1.00
C359   C     0.52145   0.78305   0.05488   0.00000  Uiso   1.00
C360   C     0.34013   0.80161   0.29509   0.00000  Uiso   1.00
C361   C     0.55131   0.82296   0.13100   0.00000  Uiso   1.00
C362   C     0.41708   0.70311   0.36540   0.00000  Uiso   1.00
C363   C     0.47340   0.66411   0.02903   0.00000  Uiso   1.00
C364   C     0.59892   0.77393   0.47884   0.00000  Uiso   1.00
C365   C     0.46175   0.73067   0.44315   0.00000  Uiso   1.00
C366   C     0.52284   0.78395   0.10542   0.00000  Uiso   1.00
C367   C     0.46107   0.72939   0.39267   0.00000  Uiso   1.00
C368   C     0.48002   0.71340   0.10247   0.00000  Uiso   1.00
C369   C     0.54188   0.76798   0.40007   0.00000  Uiso   1.00
C370   C     0.48630   0.70872   0.05297   0.00000  Uiso   1.00
Cu371  Cu    0.50000   0.74999   0.29822   0.00000  Uiso   1.00
Cu372  Cu    0.50000   0.75000   0.20179   0.00000  Uiso   1.00
H373   H     0.45849   0.61161   0.31077   0.00000  Uiso   1.00
H374   H     0.36087   0.82502   0.27301   0.00000  Uiso   1.00
H375   H     0.44065   0.99584   0.31227   0.00000  Uiso   1.00
H376   H     0.41941   0.99855   0.19184   0.00000  Uiso   1.00
H377   H     0.56604   0.63998   0.19296   0.00000  Uiso   1.00
H378   H     0.58993   0.90722   0.33560   0.00000  Uiso   1.00
H379   H     0.53777   0.99251   0.18010   0.00000  Uiso   1.00
H380   H     0.56541   0.51053   0.30853   0.00000  Uiso   1.00
H381   H     0.57451   0.81281   0.16436   0.00000  Uiso   1.00
H382   H     0.57913   0.83852   0.10856   0.00000  Uiso   1.00
H383   H     0.52405   0.84873   0.13792   0.00000  Uiso   1.00
H384   H     0.43663   0.88344   0.19341   0.00000  Uiso   1.00
H385   H     0.42815   0.68642   0.33341   0.00000  Uiso   1.00
H386   H     0.40349   0.67605   0.38804   0.00000  Uiso   1.00
H387   H     0.38425   0.72443   0.35568   0.00000  Uiso   1.00
H388   H     0.43243   0.69315   0.14484   0.00000  Uiso   1.00
H389   H     0.56431   0.80910   0.35481   0.00000  Uiso   1.00
H390   H     0.43112   0.65844   0.02283   0.00000  Uiso   1.00
H391   H     0.48980   0.66083   0.49453   0.00000  Uiso   1.00
H392   H     0.49007   0.63757   0.05256   0.00000  Uiso   1.00
H393   H     0.60493   0.81044   0.48148   0.00000  Uiso   1.00
H394   H     0.60297   0.75961   0.01539   0.00000  Uiso   1.00
H395   H     0.53523   0.81190   0.03675   0.00000  Uiso   1.00
H396   H     0.62996   0.76007   0.46026   0.00000  Uiso   1.00
H397   H     0.42849   0.71805   0.45902   0.00000  Uiso   1.00
H398   H     0.35728   0.68394   0.18787   0.00000  Uiso   1.00
H399   H     0.63910   0.67762   0.22360   0.00000  Uiso   1.00
H400   H     0.63360   0.71341   0.17107   0.00000  Uiso   1.00
H401   H     0.64191   0.81986   0.30827   0.00000  Uiso   1.00
H402   H     0.36620   0.79205   0.32698   0.00000  Uiso   1.00
N403   N     0.50000   0.75001   0.12935   0.00000  Uiso   1.00
N404   N     0.50000   0.74999   0.37066   0.00000  Uiso   1.00
O405   O     0.50000   0.68572   0.29072   0.00000  Uiso   1.00
O406   O     0.42161   0.96646   0.18593   0.00000  Uiso   1.00
O407   O     0.54873   0.61254   0.17905   0.00000  Uiso   1.00
O408   O     0.56891   0.88599   0.31382   0.00000  Uiso   1.00
O409   O     0.54143   0.52496   0.17716   0.00000  Uiso   1.00
O410   O     0.56739   0.97843   0.31436   0.00000  Uiso   1.00
O411   O     0.45386   0.67953   0.12268   0.00000  Uiso   1.00
O412   O     0.58054   0.79159   0.38151   0.00000  Uiso   1.00
O413   O     0.50000   0.81427   0.20929   0.00000  Uiso   1.00
O414   O     0.50000   0.68573   0.20928   0.00000  Uiso   1.00
O415   O     0.50000   0.81427   0.29072   0.00000  Uiso   1.00
O416   O     0.42495   0.74999   0.28132   0.00000  Uiso   1.00
O417   O     0.57505   0.75000   0.21868   0.00000  Uiso   1.00
O418   O     0.42495   0.75000   0.19989   0.00000  Uiso   1.00
O419   O     0.57505   0.75000   0.30012   0.00000  Uiso   1.00
O420   O     0.44582   0.52799   0.31861   0.00000  Uiso   1.00
C421   C     0.83413   0.66498   0.24984   0.00000  Uiso   1.00
C422   C     0.88070   0.76231   0.45074   0.00000  Uiso   1.00
C423   C     0.83820   0.74517   0.02769   0.00000  Uiso   1.00
C424   C     0.83867   0.74557   0.47338   0.00000  Uiso   1.00
C425   C     0.73498   0.74895   0.23829   0.00000  Uiso   1.00
C426   C     0.93172   0.75198   0.26165   0.00000  Uiso   1.00
C427   C     0.68058   0.74044   0.23442   0.00000  Uiso   1.00
C428   C     0.98613   0.76144   0.26503   0.00000  Uiso   1.00
C429   C     0.80482   0.54766   0.28340   0.00000  Uiso   1.00
C430   C     0.79268   0.94900   0.21823   0.00000  Uiso   1.00
C431   C     0.80913   0.59360   0.28367   0.00000  Uiso   1.00
C432   C     0.83348   0.83483   0.25017   0.00000  Uiso   1.00
C433   C     0.79638   0.90334   0.21822   0.00000  Uiso   1.00
C434   C     0.83394   0.61642   0.24913   0.00000  Uiso   1.00
C435   C     0.83246   0.88293   0.25051   0.00000  Uiso   1.00
C436   C     0.85570   0.59242   0.21339   0.00000  Uiso   1.00
C437   C     0.86659   0.90801   0.28331   0.00000  Uiso   1.00
C438   C     0.85183   0.54627   0.21251   0.00000  Uiso   1.00
C439   C     0.86500   0.95456   0.28296   0.00000  Uiso   1.00
C440   C     0.82695   0.52358   0.24804   0.00000  Uiso   1.00
C441   C     0.82762   0.97506   0.25028   0.00000  Uiso   1.00
C442   C     0.99283   0.70183   0.20230   0.00000  Uiso   1.00
C443   C     0.85479   0.78305   0.05488   0.00000  Uiso   1.00
C444   C     0.67347   0.80161   0.29509   0.00000  Uiso   1.00
C445   C     0.88464   0.82296   0.13100   0.00000  Uiso   1.00
C446   C     0.75042   0.70311   0.36540   0.00000  Uiso   1.00
C447   C     0.80673   0.66411   0.02903   0.00000  Uiso   1.00
C448   C     0.93226   0.77393   0.47884   0.00000  Uiso   1.00
C449   C     0.79508   0.73067   0.44315   0.00000  Uiso   1.00
C450   C     0.85617   0.78395   0.10542   0.00000  Uiso   1.00
C451   C     0.79440   0.72939   0.39267   0.00000  Uiso   1.00
C452   C     0.81336   0.71340   0.10247   0.00000  Uiso   1.00
C453   C     0.87522   0.76798   0.40007   0.00000  Uiso   1.00
C454   C     0.81963   0.70872   0.05297   0.00000  Uiso   1.00
Cu455  Cu    0.83333   0.74999   0.29822   0.00000  Uiso   1.00
Cu456  Cu    0.83333   0.75000   0.20179   0.00000  Uiso   1.00
H457   H     0.79182   0.61161   0.31077   0.00000  Uiso   1.00
H458   H     0.69420   0.82502   0.27301   0.00000  Uiso   1.00
H459   H     0.77398   0.99584   0.31227   0.00000  Uiso   1.00
H460   H     0.75274   0.99855   0.19184   0.00000  Uiso   1.00
H461   H     0.89938   0.63998   0.19296   0.00000  Uiso   1.00
H462   H     0.92327   0.90722   0.33560   0.00000  Uiso   1.00
H463   H     0.87111   0.99251   0.18010   0.00000  Uiso   1.00
H464   H     0.89874   0.51053   0.30853   0.00000  Uiso   1.00
H465   H     0.90785   0.81281   0.16436   0.00000  Uiso   1.00
H466   H     0.91246   0.83852   0.10856   0.00000  Uiso   1.00
H467   H     0.85738   0.84873   0.13792   0.00000  Uiso   1.00
H468   H     0.76996   0.88344   0.19341   0.00000  Uiso   1.00
H469   H     0.76148   0.68642   0.33341   0.00000  Uiso   1.00
H470   H     0.73683   0.67605   0.38804   0.00000  Uiso   1.00
H471   H     0.71759   0.72443   0.35568   0.00000  Uiso   1.00
H472   H     0.76577   0.69315   0.14484   0.00000  Uiso   1.00
H473   H     0.89765   0.80910   0.35481   0.00000  Uiso   1.00
H474   H     0.76445   0.65844   0.02283   0.00000  Uiso   1.00
H475   H     0.82313   0.66083   0.49453   0.00000  Uiso   1.00
H476   H     0.82341   0.63757   0.05256   0.00000  Uiso   1.00
H477   H     0.93826   0.81044   0.48148   0.00000  Uiso   1.00
H478   H     0.93630   0.75961   0.01539   0.00000  Uiso   1.00
H479   H     0.86856   0.81190   0.03675   0.00000  Uiso   1.00
H480   H     0.96329   0.76007   0.46026   0.00000  Uiso   1.00
H481   H     0.76183   0.71805   0.45902   0.00000  Uiso   1.00
H482   H     0.69061   0.68394   0.18787   0.00000  Uiso   1.00
H483   H     0.97243   0.67762   0.22360   0.00000  Uiso   1.00
H484   H     0.96693   0.71341   0.17107   0.00000  Uiso   1.00
H485   H     0.97524   0.81986   0.30827   0.00000  Uiso   1.00
H486   H     0.69954   0.79205   0.32698   0.00000  Uiso   1.00
N487   N     0.83333   0.75001   0.12935   0.00000  Uiso   1.00
N488   N     0.83333   0.74999   0.37066   0.00000  Uiso   1.00
O489   O     0.83334   0.68572   0.29072   0.00000  Uiso   1.00
O490   O     0.75494   0.96646   0.18593   0.00000  Uiso   1.00
O491   O     0.88207   0.61254   0.17905   0.00000  Uiso   1.00
O492   O     0.90224   0.88599   0.31382   0.00000  Uiso   1.00
O493   O     0.87476   0.52496   0.17716   0.00000  Uiso   1.00
O494   O     0.90072   0.97843   0.31436   0.00000  Uiso   1.00
O495   O     0.78719   0.67953   0.12268   0.00000  Uiso   1.00
O496   O     0.91387   0.79159   0.38151   0.00000  Uiso   1.00
O497   O     0.83333   0.81427   0.20929   0.00000  Uiso   1.00
O498   O     0.83334   0.68573   0.20928   0.00000  Uiso   1.00
O499   O     0.83333   0.81427   0.29072   0.00000  Uiso   1.00
O500   O     0.75828   0.74999   0.28132   0.00000  Uiso   1.00
O501   O     0.90839   0.75000   0.21868   0.00000  Uiso   1.00
O502   O     0.75828   0.75000   0.19989   0.00000  Uiso   1.00
O503   O     0.90839   0.75000   0.30012   0.00000  Uiso   1.00
O504   O     0.77915   0.52799   0.31861   0.00000  Uiso   1.00
C505   C     0.16747   0.16498   0.74984   0.00000  Uiso   1.00
C506   C     0.21403   0.26231   0.95074   0.00000  Uiso   1.00
C507   C     0.17153   0.24517   0.52769   0.00000  Uiso   1.00
C508   C     0.17201   0.24557   0.97338   0.00000  Uiso   1.00
C509   C     0.06832   0.24895   0.73829   0.00000  Uiso   1.00
C510   C     0.26505   0.25198   0.76165   0.00000  Uiso   1.00
C511   C     0.01391   0.24044   0.73442   0.00000  Uiso   1.00
C512   C     0.31946   0.26144   0.76503   0.00000  Uiso   1.00
C513   C     0.13815   0.04766   0.78340   0.00000  Uiso   1.00
C514   C     0.12602   0.44900   0.71823   0.00000  Uiso   1.00
C515   C     0.14246   0.09360   0.78367   0.00000  Uiso   1.00
C516   C     0.16682   0.33483   0.75017   0.00000  Uiso   1.00
C517   C     0.12972   0.40334   0.71822   0.00000  Uiso   1.00
C518   C     0.16727   0.11642   0.74913   0.00000  Uiso   1.00
C519   C     0.16579   0.38293   0.75051   0.00000  Uiso   1.00
C520   C     0.18903   0.09242   0.71339   0.00000  Uiso   1.00
C521   C     0.19992   0.40801   0.78331   0.00000  Uiso   1.00
C522   C     0.18516   0.04627   0.71251   0.00000  Uiso   1.00
C523   C     0.19833   0.45456   0.78296   0.00000  Uiso   1.00
C524   C     0.16028   0.02358   0.74804   0.00000  Uiso   1.00
C525   C     0.16095   0.47506   0.75028   0.00000  Uiso   1.00
C526   C     0.32616   0.20183   0.70230   0.00000  Uiso   1.00
C527   C     0.18812   0.28305   0.55488   0.00000  Uiso   1.00
C528   C     0.00680   0.30161   0.79509   0.00000  Uiso   1.00
C529   C     0.21798   0.32296   0.63100   0.00000  Uiso   1.00
C530   C     0.08375   0.20311   0.86540   0.00000  Uiso   1.00
C531   C     0.14006   0.16411   0.52903   0.00000  Uiso   1.00
C532   C     0.26559   0.27393   0.97884   0.00000  Uiso   1.00
C533   C     0.12842   0.23067   0.94315   0.00000  Uiso   1.00
C534   C     0.18951   0.28395   0.60542   0.00000  Uiso   1.00
C535   C     0.12774   0.22939   0.89267   0.00000  Uiso   1.00
C536   C     0.14669   0.21340   0.60247   0.00000  Uiso   1.00
C537   C     0.20855   0.26798   0.90007   0.00000  Uiso   1.00
C538   C     0.15296   0.20872   0.55297   0.00000  Uiso   1.00
Cu539  Cu    0.16667   0.24999   0.79822   0.00000  Uiso   1.00
Cu540  Cu    0.16667   0.25000   0.70179   0.00000  Uiso   1.00
H541   H     0.12516   0.11161   0.81077   0.00000  Uiso   1.00
H542   H     0.02753   0.32502   0.77301   0.00000  Uiso   1.00
H543   H     0.10732   0.49584   0.81227   0.00000  Uiso   1.00
H544   H     0.08607   0.49855   0.69184   0.00000  Uiso   1.00
H545   H     0.23271   0.13998   0.69296   0.00000  Uiso   1.00
H546   H     0.25660   0.40722   0.83560   0.00000  Uiso   1.00
H547   H     0.20444   0.49251   0.68010   0.00000  Uiso   1.00
H548   H     0.23208   0.01053   0.80853   0.00000  Uiso   1.00
H549   H     0.24118   0.31281   0.66436   0.00000  Uiso   1.00
H550   H     0.24579   0.33852   0.60856   0.00000  Uiso   1.00
H551   H     0.19072   0.34873   0.63792   0.00000  Uiso   1.00
H552   H     0.10330   0.38344   0.69341   0.00000  Uiso   1.00
H553   H     0.09482   0.18642   0.83341   0.00000  Uiso   1.00
H554   H     0.07016   0.17605   0.88804   0.00000  Uiso   1.00
H555   H     0.05092   0.22443   0.85568   0.00000  Uiso   1.00
H556   H     0.09910   0.19315   0.64484   0.00000  Uiso   1.00
H557   H     0.23098   0.30910   0.85481   0.00000  Uiso   1.00
H558   H     0.09778   0.15844   0.52283   0.00000  Uiso   1.00
H559   H     0.15647   0.16083   0.99453   0.00000  Uiso   1.00
H560   H     0.15674   0.13757   0.55256   0.00000  Uiso   1.00
H561   H     0.27160   0.31044   0.98148   0.00000  Uiso   1.00
H562   H     0.26963   0.25961   0.51539   0.00000  Uiso   1.00
H563   H     0.20190   0.31190   0.53675   0.00000  Uiso   1.00
H564   H     0.29663   0.26007   0.96026   0.00000  Uiso   1.00
H565   H     0.09516   0.21805   0.95902   0.00000  Uiso   1.00
H566   H     0.02394   0.18394   0.68787   0.00000  Uiso   1.00
H567   H     0.30576   0.17762   0.72360   0.00000  Uiso   1.00
H568   H     0.30026   0.21341   0.67107   0.00000  Uiso   1.00
H569   H     0.30857   0.31986   0.80827   0.00000  Uiso   1.00
H570   H     0.03287   0.29205   0.82698   0.00000  Uiso   1.00
N571   N     0.16667   0.25001   0.62935   0.00000  Uiso   1.00
N572   N     0.16667   0.24999   0.87066   0.00000  Uiso   1.00
O573   O     0.16667   0.18572   0.79072   0.00000  Uiso   1.00
O574   O     0.08827   0.46646   0.68593   0.00000  Uiso   1.00
O575   O     0.21540   0.11254   0.67905   0.00000  Uiso   1.00
O576   O     0.23558   0.38599   0.81382   0.00000  Uiso   1.00
O577   O     0.20810   0.02496   0.67716   0.00000  Uiso   1.00
O578   O     0.23406   0.47843   0.81436   0.00000  Uiso   1.00
O579   O     0.12052   0.17953   0.62268   0.00000  Uiso   1.00
O580   O     0.24721   0.29159   0.88151   0.00000  Uiso   1.00
O581   O     0.16666   0.31427   0.70929   0.00000  Uiso   1.00
O582   O     0.16667   0.18573   0.70928   0.00000  Uiso   1.00
O583   O     0.16666   0.31427   0.79072   0.00000  Uiso   1.00
O584   O     0.09161   0.24999   0.78132   0.00000  Uiso   1.00
O585   O     0.24172   0.25000   0.71868   0.00000  Uiso   1.00
O586   O     0.09161   0.25000   0.69989   0.00000  Uiso   1.00
O587   O     0.24172   0.25000   0.80012   0.00000  Uiso   1.00
O588   O     0.11249   0.02799   0.81861   0.00000  Uiso   1.00
C589   C     0.50080   0.16498   0.74984   0.00000  Uiso   1.00
C590   C     0.54737   0.26231   0.95074   0.00000  Uiso   1.00
C591   C     0.50486   0.24517   0.52769   0.00000  Uiso   1.00
C592   C     0.50534   0.24557   0.97338   0.00000  Uiso   1.00
C593   C     0.40165   0.24895   0.73829   0.00000  Uiso   1.00
C594   C     0.59839   0.25198   0.76165   0.00000  Uiso   1.00
C595   C     0.34724   0.24044   0.73442   0.00000  Uiso   1.00
C596   C     0.65280   0.26144   0.76503   0.00000  Uiso   1.00
C597   C     0.47149   0.04766   0.78340   0.00000  Uiso   1.00
C598   C     0.45935   0.44900   0.71823   0.00000  Uiso   1.00
C599   C     0.47580   0.09360   0.78367   0.00000  Uiso   1.00
C600   C     0.50015   0.33483   0.75017   0.00000  Uiso   1.00
C601   C     0.46305   0.40334   0.71822   0.00000  Uiso   1.00
C602   C     0.50060   0.11642   0.74913   0.00000  Uiso   1.00
C603   C     0.49913   0.38293   0.75051   0.00000  Uiso   1.00
C604   C     0.52236   0.09242   0.71339   0.00000  Uiso   1.00
C605   C     0.53326   0.40801   0.78331   0.00000  Uiso   1.00
C606   C     0.51849   0.04627   0.71251   0.00000  Uiso   1.00
C607   C     0.53166   0.45456   0.78296   0.00000  Uiso   1.00
C608   C     0.49361   0.02358   0.74804   0.00000  Uiso   1.00
C609   C     0.49428   0.47506   0.75028   0.00000  Uiso   1.00
C610   C     0.65949   0.20183   0.70230   0.00000  Uiso   1.00
C611   C     0.52145   0.28305   0.55488   0.00000  Uiso   1.00
C612   C     0.34013   0.30161   0.79509   0.00000  Uiso   1.00
C613   C     0.55131   0.32296   0.63100   0.00000  Uiso   1.00
C614   C     0.41708   0.20311   0.86540   0.00000  Uiso   1.00
C615   C     0.47340   0.16411   0.52903   0.00000  Uiso   1.00
C616   C     0.59892   0.27393   0.97884   0.00000  Uiso   1.00
C617   C     0.46175   0.23067   0.94315   0.00000  Uiso   1.00
C618   C     0.52284   0.28395   0.60542   0.00000  Uiso   1.00
C619   C     0.46107   0.22939   0.89267   0.00000  Uiso   1.00
C620   C     0.48002   0.21340   0.60247   0.00000  Uiso   1.00
C621   C     0.54188   0.26798   0.90007   0.00000  Uiso   1.00
C622   C     0.48630   0.20872   0.55297   0.00000  Uiso   1.00
Cu623  Cu    0.50000   0.24999   0.79822   0.00000  Uiso   1.00
Cu624  Cu    0.50000   0.25000   0.70179   0.00000  Uiso   1.00
H625   H     0.45849   0.11161   0.81077   0.00000  Uiso   1.00
H626   H     0.36087   0.32502   0.77301   0.00000  Uiso   1.00
H627   H     0.44065   0.49584   0.81227   0.00000  Uiso   1.00
H628   H     0.41941   0.49855   0.69184   0.00000  Uiso   1.00
H629   H     0.56604   0.13998   0.69296   0.00000  Uiso   1.00
H630   H     0.58993   0.40722   0.83560   0.00000  Uiso   1.00
H631   H     0.53777   0.49251   0.68010   0.00000  Uiso   1.00
H632   H     0.56541   0.01053   0.80853   0.00000  Uiso   1.00
H633   H     0.57451   0.31281   0.66436   0.00000  Uiso   1.00
H634   H     0.57913   0.33852   0.60856   0.00000  Uiso   1.00
H635   H     0.52405   0.34873   0.63792   0.00000  Uiso   1.00
H636   H     0.43663   0.38344   0.69341   0.00000  Uiso   1.00
H637   H     0.42815   0.18642   0.83341   0.00000  Uiso   1.00
H638   H     0.40349   0.17605   0.88804   0.00000  Uiso   1.00
H639   H     0.38425   0.22443   0.85568   0.00000  Uiso   1.00
H640   H     0.43243   0.19315   0.64484   0.00000  Uiso   1.00
H641   H     0.56431   0.30910   0.85481   0.00000  Uiso   1.00
H642   H     0.43112   0.15844   0.52283   0.00000  Uiso   1.00
H643   H     0.48980   0.16083   0.99453   0.00000  Uiso   1.00
H644   H     0.49007   0.13757   0.55256   0.00000  Uiso   1.00
H645   H     0.60493   0.31044   0.98148   0.00000  Uiso   1.00
H646   H     0.60297   0.25961   0.51539   0.00000  Uiso   1.00
H647   H     0.53523   0.31190   0.53675   0.00000  Uiso   1.00
H648   H     0.62996   0.26007   0.96026   0.00000  Uiso   1.00
H649   H     0.42849   0.21805   0.95902   0.00000  Uiso   1.00
H650   H     0.35728   0.18394   0.68787   0.00000  Uiso   1.00
H651   H     0.63910   0.17762   0.72360   0.00000  Uiso   1.00
H652   H     0.63360   0.21341   0.67107   0.00000  Uiso   1.00
H653   H     0.64191   0.31986   0.80827   0.00000  Uiso   1.00
H654   H     0.36620   0.29205   0.82698   0.00000  Uiso   1.00
N655   N     0.50000   0.25001   0.62935   0.00000  Uiso   1.00
N656   N     0.50000   0.24999   0.87066   0.00000  Uiso   1.00
O657   O     0.50000   0.18572   0.79072   0.00000  Uiso   1.00
O658   O     0.42161   0.46646   0.68593   0.00000  Uiso   1.00
O659   O     0.54873   0.11254   0.67905   0.00000  Uiso   1.00
O660   O     0.56891   0.38599   0.81382   0.00000  Uiso   1.00
O661   O     0.54143   0.02496   0.67716   0.00000  Uiso   1.00
O662   O     0.56739   0.47843   0.81436   0.00000  Uiso   1.00
O663   O     0.45386   0.17953   0.62268   0.00000  Uiso   1.00
O664   O     0.58054   0.29159   0.88151   0.00000  Uiso   1.00
O665   O     0.50000   0.31427   0.70929   0.00000  Uiso   1.00
O666   O     0.50000   0.18573   0.70928   0.00000  Uiso   1.00
O667   O     0.50000   0.31427   0.79072   0.00000  Uiso   1.00
O668   O     0.42495   0.24999   0.78132   0.00000  Uiso   1.00
O669   O     0.57505   0.25000   0.71868   0.00000  Uiso   1.00
O670   O     0.42495   0.25000   0.69989   0.00000  Uiso   1.00
O671   O     0.57505   0.25000   0.80012   0.00000  Uiso   1.00
O672   O     0.44582   0.02799   0.81861   0.00000  Uiso   1.00
C673   C     0.83413   0.16498   0.74984   0.00000  Uiso   1.00
C674   C     0.88070   0.26231   0.95074   0.00000  Uiso   1.00
C675   C     0.83820   0.24517   0.52769   0.00000  Uiso   1.00
C676   C     0.83867   0.24557   0.97338   0.00000  Uiso   1.00
C677   C     0.73498   0.24895   0.73829   0.00000  Uiso   1.00
C678   C     0.93172   0.25198   0.76165   0.00000  Uiso   1.00
C679   C     0.68058   0.24044   0.73442   0.00000  Uiso   1.00
C680   C     0.98613   0.26144   0.76503   0.00000  Uiso   1.00
C681   C     0.80482   0.04766   0.78340   0.00000  Uiso   1.00
C682   C     0.79268   0.44900   0.71823   0.00000  Uiso   1.00
C683   C     0.80913   0.09360   0.78367   0.00000  Uiso   1.00
C684   C     0.83348   0.33483   0.75017   0.00000  Uiso   1.00
C685   C     0.79638   0.40334   0.71822   0.00000  Uiso   1.00
C686   C     0.83394   0.11642   0.74913   0.00000  Uiso   1.00
C687   C     0.83246   0.38293   0.75051   0.00000  Uiso   1.00
C688   C     0.85570   0.09242   0.71339   0.00000  Uiso   1.00
C689   C     0.86659   0.40801   0.78331   0.00000  Uiso   1.00
C690   C     0.85183   0.04627   0.71251   0.00000  Uiso   1.00
C691   C     0.86500   0.45456   0.78296   0.00000  Uiso   1.00
C692   C     0.82695   0.02358   0.74804   0.00000  Uiso   1.00
C693   C     0.82762   0.47506   0.75028   0.00000  Uiso   1.00
C694   C     0.99283   0.20183   0.70230   0.00000  Uiso   1.00
C695   C     0.85479   0.28305   0.55488   0.00000  Uiso   1.00
C696   C     0.67347   0.30161   0.79509   0.00000  Uiso   1.00
C697   C     0.88464   0.32296   0.63100   0.00000  Uiso   1.00
C698   C     0.75042   0.20311   0.86540   0.00000  Uiso   1.00
C699   C     0.80673   0.16411   0.52903   0.00000  Uiso   1.00
C700   C     0.93226   0.27393   0.97884   0.00000  Uiso   1.00
C701   C     0.79508   0.23067   0.94315   0.00000  Uiso   1.00
C702   C     0.85617   0.28395   0.60542   0.00000  Uiso   1.00
C703   C     0.79440   0.22939   0.89267   0.00000  Uiso   1.00
C704   C     0.81336   0.21340   0.60247   0.00000  Uiso   1.00
C705   C     0.87522   0.26798   0.90007   0.00000  Uiso   1.00
C706   C     0.81963   0.20872   0.55297   0.00000  Uiso   1.00
Cu707  Cu    0.83333   0.24999   0.79822   0.00000  Uiso   1.00
Cu708  Cu    0.83333   0.25000   0.70179   0.00000  Uiso   1.00
H709   H     0.79182   0.11161   0.81077   0.00000  Uiso   1.00
H710   H     0.69420   0.32502   0.77301   0.00000  Uiso   1.00
H711   H     0.77398   0.49584   0.81227   0.00000  Uiso   1.00
H712   H     0.75274   0.49855   0.69184   0.00000  Uiso   1.00
H713   H     0.89938   0.13998   0.69296   0.00000  Uiso   1.00
H714   H     0.92327   0.40722   0.83560   0.00000  Uiso   1.00
H715   H     0.87111   0.49251   0.68010   0.00000  Uiso   1.00
H716   H     0.89874   0.01053   0.80853   0.00000  Uiso   1.00
H717   H     0.90785   0.31281   0.66436   0.00000  Uiso   1.00
H718   H     0.91246   0.33852   0.60856   0.00000  Uiso   1.00
H719   H     0.85738   0.34873   0.63792   0.00000  Uiso   1.00
H720   H     0.76996   0.38344   0.69341   0.00000  Uiso   1.00
H721   H     0.76148   0.18642   0.83341   0.00000  Uiso   1.00
H722   H     0.73683   0.17605   0.88804   0.00000  Uiso   1.00
H723   H     0.71759   0.22443   0.85568   0.00000  Uiso   1.00
H724   H     0.76577   0.19315   0.64484   0.00000  Uiso   1.00
H725   H     0.89765   0.30910   0.85481   0.00000  Uiso   1.00
H726   H     0.76445   0.15844   0.52283   0.00000  Uiso   1.00
H727   H     0.82313   0.16083   0.99453   0.00000  Uiso   1.00
H728   H     0.82341   0.13757   0.55256   0.00000  Uiso   1.00
H729   H     0.93826   0.31044   0.98148   0.00000  Uiso   1.00
H730   H     0.93630   0.25961   0.51539   0.00000  Uiso   1.00
H731   H     0.86856   0.31190   0.53675   0.00000  Uiso   1.00
H732   H     0.96329   0.26007   0.96026   0.00000  Uiso   1.00
H733   H     0.76183   0.21805   0.95902   0.00000  Uiso   1.00
H734   H     0.69061   0.18394   0.68787   0.00000  Uiso   1.00
H735   H     0.97243   0.17762   0.72360   0.00000  Uiso   1.00
H736   H     0.96693   0.21341   0.67107   0.00000  Uiso   1.00
H737   H     0.97524   0.31986   0.80827   0.00000  Uiso   1.00
H738   H     0.69954   0.29205   0.82698   0.00000  Uiso   1.00
N739   N     0.83333   0.25001   0.62935   0.00000  Uiso   1.00
N740   N     0.83333   0.24999   0.87066   0.00000  Uiso   1.00
O741   O     0.83334   0.18572   0.79072   0.00000  Uiso   1.00
O742   O     0.75494   0.46646   0.68593   0.00000  Uiso   1.00
O743   O     0.88207   0.11254   0.67905   0.00000  Uiso   1.00
O744   O     0.90224   0.38599   0.81382   0.00000  Uiso   1.00
O745   O     0.87476   0.02496   0.67716   0.00000  Uiso   1.00
O746   O     0.90072   0.47843   0.81436   0.00000  Uiso   1.00
O747   O     0.78719   0.17953   0.62268   0.00000  Uiso   1.00
O748   O     0.91387   0.29159   0.88151   0.00000  Uiso   1.00
O749   O     0.83333   0.31427   0.70929   0.00000  Uiso   1.00
O750   O     0.83334   0.18573   0.70928   0.00000  Uiso   1.00
O751   O     0.83333   0.31427   0.79072   0.00000  Uiso   1.00
O752   O     0.75828   0.24999   0.78132   0.00000  Uiso   1.00
O753   O     0.90839   0.25000   0.71868   0.00000  Uiso   1.00
O754   O     0.75828   0.25000   0.69989   0.00000  Uiso   1.00
O755   O     0.90839   0.25000   0.80012   0.00000  Uiso   1.00
O756   O     0.77915   0.02799   0.81861   0.00000  Uiso   1.00
C757   C     0.16747   0.66498   0.74984   0.00000  Uiso   1.00
C758   C     0.21403   0.76231   0.95074   0.00000  Uiso   1.00
C759   C     0.17153   0.74517   0.52769   0.00000  Uiso   1.00
C760   C     0.17201   0.74557   0.97338   0.00000  Uiso   1.00
C761   C     0.06832   0.74895   0.73829   0.00000  Uiso   1.00
C762   C     0.26505   0.75198   0.76165   0.00000  Uiso   1.00
C763   C     0.01391   0.74044   0.73442   0.00000  Uiso   1.00
C764   C     0.31946   0.76144   0.76503   0.00000  Uiso   1.00
C765   C     0.13815   0.54766   0.78340   0.00000  Uiso   1.00
C766   C     0.12602   0.94900   0.71823   0.00000  Uiso   1.00
C767   C     0.14246   0.59360   0.78367   0.00000  Uiso   1.00
C768   C     0.16682   0.83483   0.75017   0.00000  Uiso   1.00
C769   C     0.12972   0.90334   0.71822   0.00000  Uiso   1.00
C770   C     0.16727   0.61642   0.74913   0.00000  Uiso   1.00
C771   C     0.16579   0.88293   0.75051   0.00000  Uiso   1.00
C772   C     0.18903   0.59242   0.71339   0.00000  Uiso   1.00
C773   C     0.19992   0.90801   0.78331   0.00000  Uiso   1.00
C774   C     0.18516   0.54627   0.71251   0.00000  Uiso   1.00
C775   C     0.19833   0.95456   0.78296   0.00000  Uiso   1.00
C776   C     0.16028   0.52358   0.74804   0.00000  Uiso   1.00
C777   C     0.16095   0.97506   0.75028   0.00000  Uiso   1.00
C778   C     0.32616   0.70183   0.70230   0.00000  Uiso   1.00
C779   C     0.18812   0.78305   0.55488   0.00000  Uiso   1.00
C780   C     0.00680   0.80161   0.79509   0.00000  Uiso   1.00
C781   C     0.21798   0.82296   0.63100   0.00000  Uiso   1.00
C782   C     0.08375   0.70311   0.86540   0.00000  Uiso   1.00
C783   C     0.14006   0.66411   0.52903   0.00000  Uiso   1.00
C784   C     0.26559   0.77393   0.97884   0.00000  Uiso   1.00
C785   C     0.12842   0.73067   0.94315   0.00000  Uiso   1.00
C786   C     0.18951   0.78395   0.60542   0.00000  Uiso   1.00
C787   C     0.12774   0.72939   0.89267   0.00000  Uiso   1.00
C788   C     0.14669   0.71340   0.60247   0.00000  Uiso   1.00
C789   C     0.20855   0.76798   0.90007   0.00000  Uiso   1.00
C790   C     0.15296   0.70872   0.55297   0.00000  Uiso   1.00
Cu791  Cu    0.16667   0.74999   0.79822   0.00000  Uiso   1.00
Cu792  Cu    0.16667   0.75000   0.70179   0.00000  Uiso   1.00
H793   H     0.12516   0.61161   0.81077   0.00000  Uiso   1.00
H794   H     0.02753   0.82502   0.77301   0.00000  Uiso   1.00
H795   H     0.10732   0.99584   0.81227   0.00000  Uiso   1.00
H796   H     0.08607   0.99855   0.69184   0.00000  Uiso   1.00
H797   H     0.23271   0.63998   0.69296   0.00000  Uiso   1.00
H798   H     0.25660   0.90722   0.83560   0.00000  Uiso   1.00
H799   H     0.20444   0.99251   0.68010   0.00000  Uiso   1.00
H800   H     0.23208   0.51053   0.80853   0.00000  Uiso   1.00
H801   H     0.24118   0.81281   0.66436   0.00000  Uiso   1.00
H802   H     0.24579   0.83852   0.60856   0.00000  Uiso   1.00
H803   H     0.19072   0.84873   0.63792   0.00000  Uiso   1.00
H804   H     0.10330   0.88344   0.69341   0.00000  Uiso   1.00
H805   H     0.09482   0.68642   0.83341   0.00000  Uiso   1.00
H806   H     0.07016   0.67605   0.88804   0.00000  Uiso   1.00
H807   H     0.05092   0.72443   0.85568   0.00000  Uiso   1.00
H808   H     0.09910   0.69315   0.64484   0.00000  Uiso   1.00
H809   H     0.23098   0.80910   0.85481   0.00000  Uiso   1.00
H810   H     0.09778   0.65844   0.52283   0.00000  Uiso   1.00
H811   H     0.15647   0.66083   0.99453   0.00000  Uiso   1.00
H812   H     0.15674   0.63757   0.55256   0.00000  Uiso   1.00
H813   H     0.27160   0.81044   0.98148   0.00000  Uiso   1.00
H814   H     0.26963   0.75961   0.51539   0.00000  Uiso   1.00
H815   H     0.20190   0.81190   0.53675   0.00000  Uiso   1.00
H816   H     0.29663   0.76007   0.96026   0.00000  Uiso   1.00
H817   H     0.09516   0.71805   0.95902   0.00000  Uiso   1.00
H818   H     0.02394   0.68394   0.68787   0.00000  Uiso   1.00
H819   H     0.30576   0.67762   0.72360   0.00000  Uiso   1.00
H820   H     0.30026   0.71341   0.67107   0.00000  Uiso   1.00
H821   H     0.30857   0.81986   0.80827   0.00000  Uiso   1.00
H822   H     0.03287   0.79205   0.82698   0.00000  Uiso   1.00
N823   N     0.16667   0.75001   0.62935   0.00000  Uiso   1.00
N824   N     0.16667   0.74999   0.87066   0.00000  Uiso   1.00
O825   O     0.16667   0.68572   0.79072   0.00000  Uiso   1.00
O826   O     0.08827   0.96646   0.68593   0.00000  Uiso   1.00
O827   O     0.21540   0.61254   0.67905   0.00000  Uiso   1.00
O828   O     0.23558   0.88599   0.81382   0.00000  Uiso   1.00
O829   O     0.20810   0.52496   0.67716   0.00000  Uiso   1.00
O830   O     0.23406   0.97843   0.81436   0.00000  Uiso   1.00
O831   O     0.12052   0.67953   0.62268   0.00000  Uiso   1.00
O832   O     0.24721   0.79159   0.88151   0.00000  Uiso   1.00
O833   O     0.16666   0.81427   0.70929   0.00000  Uiso   1.00
O834   O     0.16667   0.68573   0.70928   0.00000  Uiso   1.00
O835   O     0.16666   0.81427   0.79072   0.00000  Uiso   1.00
O836   O     0.09161   0.74999   0.78132   0.00000  Uiso   1.00
O837   O     0.24172   0.75000   0.71868   0.00000  Uiso   1.00
O838   O     0.09161   0.75000   0.69989   0.00000  Uiso   1.00
O839   O     0.24172   0.75000   0.80012   0.00000  Uiso   1.00
O840   O     0.11249   0.52799   0.81861   0.00000  Uiso   1.00
C841   C     0.50080   0.66498   0.74984   0.00000  Uiso   1.00
C842   C     0.54737   0.76231   0.95074   0.00000  Uiso   1.00
C843   C     0.50486   0.74517   0.52769   0.00000  Uiso   1.00
C844   C     0.50534   0.74557   0.97338   0.00000  Uiso   1.00
C845   C     0.40165   0.74895   0.73829   0.00000  Uiso   1.00
C846   C     0.59839   0.75198   0.76165   0.00000  Uiso   1.00
C847   C     0.34724   0.74044   0.73442   0.00000  Uiso   1.00
C848   C     0.65280   0.76144   0.76503   0.00000  Uiso   1.00
C849   C     0.47149   0.54766   0.78340   0.00000  Uiso   1.00
C850   C     0.45935   0.94900   0.71823   0.00000  Uiso   1.00
C851   C     0.47580   0.59360   0.78367   0.00000  Uiso   1.00
C852   C     0.50015   0.83483   0.75017   0.00000  Uiso   1.00
C853   C     0.46305   0.90334   0.71822   0.00000  Uiso   1.00
C854   C     0.50060   0.61642   0.74913   0.00000  Uiso   1.00
C855   C     0.49913   0.88293   0.75051   0.00000  Uiso   1.00
C856   C     0.52236   0.59242   0.71339   0.00000  Uiso   1.00
C857   C     0.53326   0.90801   0.78331   0.00000  Uiso   1.00
C858   C     0.51849   0.54627   0.71251   0.00000  Uiso   1.00
C859   C     0.53166   0.95456   0.78296   0.00000  Uiso   1.00
C860   C     0.49361   0.52358   0.74804   0.00000  Uiso   1.00
C861   C     0.49428   0.97506   0.75028   0.00000  Uiso   1.00
C862   C     0.65949   0.70183   0.70230   0.00000  Uiso   1.00
C863   C     0.52145   0.78305   0.55488   0.00000  Uiso   1.00
C864   C     0.34013   0.80161   0.79509   0.00000  Uiso   1.00
C865   C     0.55131   0.82296   0.63100   0.00000  Uiso   1.00
C866   C     0.41708   0.70311   0.86540   0.00000  Uiso   1.00
C867   C     0.47340   0.66411   0.52903   0.00000  Uiso   1.00
C868   C     0.59892   0.77393   0.97884   0.00000  Uiso   1.00
C869   C     0.46175   0.73067   0.94315   0.00000  Uiso   1.00
C870   C     0.52284   0.78395   0.60542   0.00000  Uiso   1.00
C871   C     0.46107   0.72939   0.89267   0.00000  Uiso   1.00
C872   C     0.48002   0.71340   0.60247   0.00000  Uiso   1.00
C873   C     0.54188   0.76798   0.90007   0.00000  Uiso   1.00
C874   C     0.48630   0.70872   0.55297   0.00000  Uiso   1.00
Cu875  Cu    0.50000   0.74999   0.79822   0.00000  Uiso   1.00
Cu876  Cu    0.50000   0.75000   0.70179   0.00000  Uiso   1.00
H877   H     0.45849   0.61161   0.81077   0.00000  Uiso   1.00
H878   H     0.36087   0.82502   0.77301   0.00000  Uiso   1.00
H879   H     0.44065   0.99584   0.81227   0.00000  Uiso   1.00
H880   H     0.41941   0.99855   0.69184   0.00000  Uiso   1.00
H881   H     0.56604   0.63998   0.69296   0.00000  Uiso   1.00
H882   H     0.58993   0.90722   0.83560   0.00000  Uiso   1.00
H883   H     0.53777   0.99251   0.68010   0.00000  Uiso   1.00
H884   H     0.56541   0.51053   0.80853   0.00000  Uiso   1.00
H885   H     0.57451   0.81281   0.66436   0.00000  Uiso   1.00
H886   H     0.57913   0.83852   0.60856   0.00000  Uiso   1.00
H887   H     0.52405   0.84873   0.63792   0.00000  Uiso   1.00
H888   H     0.43663   0.88344   0.69341   0.00000  Uiso   1.00
H889   H     0.42815   0.68642   0.83341   0.00000  Uiso   1.00
H890   H     0.40349   0.67605   0.88804   0.00000  Uiso   1.00
H891   H     0.38425   0.72443   0.85568   0.00000  Uiso   1.00
H892   H     0.43243   0.69315   0.64484   0.00000  Uiso   1.00
H893   H     0.56431   0.80910   0.85481   0.00000  Uiso   1.00
H894   H     0.43112   0.65844   0.52283   0.00000  Uiso   1.00
H895   H     0.48980   0.66083   0.99453   0.00000  Uiso   1.00
H896   H     0.49007   0.63757   0.55256   0.00000  Uiso   1.00
H897   H     0.60493   0.81044   0.98148   0.00000  Uiso   1.00
H898   H     0.60297   0.75961   0.51539   0.00000  Uiso   1.00
H899   H     0.53523   0.81190   0.53675   0.00000  Uiso   1.00
H900   H     0.62996   0.76007   0.96026   0.00000  Uiso   1.00
H901   H     0.42849   0.71805   0.95902   0.00000  Uiso   1.00
H902   H     0.35728   0.68394   0.68787   0.00000  Uiso   1.00
H903   H     0.63910   0.67762   0.72360   0.00000  Uiso   1.00
H904   H     0.63360   0.71341   0.67107   0.00000  Uiso   1.00
H905   H     0.64191   0.81986   0.80827   0.00000  Uiso   1.00
H906   H     0.36620   0.79205   0.82698   0.00000  Uiso   1.00
N907   N     0.50000   0.75001   0.62935   0.00000  Uiso   1.00
N908   N     0.50000   0.74999   0.87066   0.00000  Uiso   1.00
O909   O     0.50000   0.68572   0.79072   0.00000  Uiso   1.00
O910   O     0.42161   0.96646   0.68593   0.00000  Uiso   1.00
O911   O     0.54873   0.61254   0.67905   0.00000  Uiso   1.00
O912   O     0.56891   0.88599   0.81382   0.00000  Uiso   1.00
O913   O     0.54143   0.52496   0.67716   0.00000  Uiso   1.00
O914   O     0.56739   0.97843   0.81436   0.00000  Uiso   1.00
O915   O     0.45386   0.67953   0.62268   0.00000  Uiso   1.00
O916   O     0.58054   0.79159   0.88151   0.00000  Uiso   1.00
O917   O     0.50000   0.81427   0.70929   0.00000  Uiso   1.00
O918   O     0.50000   0.68573   0.70928   0.00000  Uiso   1.00
O919   O     0.50000   0.81427   0.79072   0.00000  Uiso   1.00
O920   O     0.42495   0.74999   0.78132   0.00000  Uiso   1.00
O921   O     0.57505   0.75000   0.71868   0.00000  Uiso   1.00
O922   O     0.42495   0.75000   0.69989   0.00000  Uiso   1.00
O923   O     0.57505   0.75000   0.80012   0.00000  Uiso   1.00
O924   O     0.44582   0.52799   0.81861   0.00000  Uiso   1.00
C925   C     0.83413   0.66498   0.74984   0.00000  Uiso   1.00
C926   C     0.88070   0.76231   0.95074   0.00000  Uiso   1.00
C927   C     0.83820   0.74517   0.52769   0.00000  Uiso   1.00
C928   C     0.83867   0.74557   0.97338   0.00000  Uiso   1.00
C929   C     0.73498   0.74895   0.73829   0.00000  Uiso   1.00
C930   C     0.93172   0.75198   0.76165   0.00000  Uiso   1.00
C931   C     0.68058   0.74044   0.73442   0.00000  Uiso   1.00
C932   C     0.98613   0.76144   0.76503   0.00000  Uiso   1.00
C933   C     0.80482   0.54766   0.78340   0.00000  Uiso   1.00
C934   C     0.79268   0.94900   0.71823   0.00000  Uiso   1.00
C935   C     0.80913   0.59360   0.78367   0.00000  Uiso   1.00
C936   C     0.83348   0.83483   0.75017   0.00000  Uiso   1.00
C937   C     0.79638   0.90334   0.71822   0.00000  Uiso   1.00
C938   C     0.83394   0.61642   0.74913   0.00000  Uiso   1.00
C939   C     0.83246   0.88293   0.75051   0.00000  Uiso   1.00
C940   C     0.85570   0.59242   0.71339   0.00000  Uiso   1.00
C941   C     0.86659   0.90801   0.78331   0.00000  Uiso   1.00
C942   C     0.85183   0.54627   0.71251   0.00000  Uiso   1.00
C943   C     0.86500   0.95456   0.78296   0.00000  Uiso   1.00
C944   C     0.82695   0.52358   0.74804   0.00000  Uiso   1.00
C945   C     0.82762   0.97506   0.75028   0.00000  Uiso   1.00
C946   C     0.99283   0.70183   0.70230   0.00000  Uiso   1.00
C947   C     0.85479   0.78305   0.55488   0.00000  Uiso   1.00
C948   C     0.67347   0.80161   0.79509   0.00000  Uiso   1.00
C949   C     0.88464   0.82296   0.63100   0.00000  Uiso   1.00
C950   C     0.75042   0.70311   0.86540   0.00000  Uiso   1.00
C951   C     0.80673   0.66411   0.52903   0.00000  Uiso   1.00
C952   C     0.93226   0.77393   0.97884   0.00000  Uiso   1.00
C953   C     0.79508   0.73067   0.94315   0.00000  Uiso   1.00
C954   C     0.85617   0.78395   0.60542   0.00000  Uiso   1.00
C955   C     0.79440   0.72939   0.89267   0.00000  Uiso   1.00
C956   C     0.81336   0.71340   0.60247   0.00000  Uiso   1.00
C957   C     0.87522   0.76798   0.90007   0.00000  Uiso   1.00
C958   C     0.81963   0.70872   0.55297   0.00000  Uiso   1.00
Cu959  Cu    0.83333   0.74999   0.79822   0.00000  Uiso   1.00
Cu960  Cu    0.83333   0.75000   0.70179   0.00000  Uiso   1.00
H961   H     0.79182   0.61161   0.81077   0.00000  Uiso   1.00
H962   H     0.69420   0.82502   0.77301   0.00000  Uiso   1.00
H963   H     0.77398   0.99584   0.81227   0.00000  Uiso   1.00
H964   H     0.75274   0.99855   0.69184   0.00000  Uiso   1.00
H965   H     0.89938   0.63998   0.69296   0.00000  Uiso   1.00
H966   H     0.92327   0.90722   0.83560   0.00000  Uiso   1.00
H967   H     0.87111   0.99251   0.68010   0.00000  Uiso   1.00
H968   H     0.89874   0.51053   0.80853   0.00000  Uiso   1.00
H969   H     0.90785   0.81281   0.66436   0.00000  Uiso   1.00
H970   H     0.91246   0.83852   0.60856   0.00000  Uiso   1.00
H971   H     0.85738   0.84873   0.63792   0.00000  Uiso   1.00
H972   H     0.76996   0.88344   0.69341   0.00000  Uiso   1.00
H973   H     0.76148   0.68642   0.83341   0.00000  Uiso   1.00
H974   H     0.73683   0.67605   0.88804   0.00000  Uiso   1.00
H975   H     0.71759   0.72443   0.85568   0.00000  Uiso   1.00
H976   H     0.76577   0.69315   0.64484   0.00000  Uiso   1.00
H977   H     0.89765   0.80910   0.85481   0.00000  Uiso   1.00
H978   H     0.76445   0.65844   0.52283   0.00000  Uiso   1.00
H979   H     0.82313   0.66083   0.99453   0.00000  Uiso   1.00
H980   H     0.82341   0.63757   0.55256   0.00000  Uiso   1.00
H981   H     0.93826   0.81044   0.98148   0.00000  Uiso   1.00
H982   H     0.93630   0.75961   0.51539   0.00000  Uiso   1.00
H983   H     0.86856   0.81190   0.53675   0.00000  Uiso   1.00
H984   H     0.96329   0.76007   0.96026   0.00000  Uiso   1.00
H985   H     0.76183   0.71805   0.95902   0.00000  Uiso   1.00
H986   H     0.69061   0.68394   0.68787   0.00000  Uiso   1.00
H987   H     0.97243   0.67762   0.72360   0.00000  Uiso   1.00
H988   H     0.96693   0.71341   0.67107   0.00000  Uiso   1.00
H989   H     0.97524   0.81986   0.80827   0.00000  Uiso   1.00
H990   H     0.69954   0.79205   0.82698   0.00000  Uiso   1.00
N991   N     0.83333   0.75001   0.62935   0.00000  Uiso   1.00
N992   N     0.83333   0.74999   0.87066   0.00000  Uiso   1.00
O993   O     0.83334   0.68572   0.79072   0.00000  Uiso   1.00
O994   O     0.75494   0.96646   0.68593   0.00000  Uiso   1.00
O995   O     0.88207   0.61254   0.67905   0.00000  Uiso   1.00
O996   O     0.90224   0.88599   0.81382   0.00000  Uiso   1.00
O997   O     0.87476   0.52496   0.67716   0.00000  Uiso   1.00
O998   O     0.90072   0.97843   0.81436   0.00000  Uiso   1.00
O999   O     0.78719   0.67953   0.62268   0.00000  Uiso   1.00
O1000  O     0.91387   0.79159   0.88151   0.00000  Uiso   1.00
O1001  O     0.83333   0.81427   0.70929   0.00000  Uiso   1.00
O1002  O     0.83334   0.68573   0.70928   0.00000  Uiso   1.00
O1003  O     0.83333   0.81427   0.79072   0.00000  Uiso   1.00
O1004  O     0.75828   0.74999   0.78132   0.00000  Uiso   1.00
O1005  O     0.90839   0.75000   0.71868   0.00000  Uiso   1.00
O1006  O     0.75828   0.75000   0.69989   0.00000  Uiso   1.00
O1007  O     0.90839   0.75000   0.80012   0.00000  Uiso   1.00
O1008  O     0.77915   0.52799   0.81861   0.00000  Uiso   1.00
loop_
_geom_bond_atom_site_label_1
_geom_bond_atom_site_label_2
_geom_bond_distance
_geom_bond_site_symmetry_2
_ccdc_geom_bond_type
C1     O78     1.299   .     A
C1     O69     1.304   .     A
C1     C14     1.468   .     S
C2     C4      1.415   .     A
C2     C33     1.421   .     A
C2     C28     1.512   .     S
C3     C23     1.398   .     A
C3     C34     1.415   .     A
C3     C508    1.522   1_554 S
C4     C29     1.399   .     A
C4     C507    1.522   .     S
C5     C7      1.434   .     S
C5     O80     1.285   .     A
C5     O82     1.298   .     A
C6     O81     1.284   .     A
C6     C8      1.439   .     S
C6     O83     1.301   .     A
C7     C176    1.359   1_455 S
C7     C190    1.516   1_455 S
C8     C91     1.359   .     S
C8     C108    1.519   .     S
C9     C20     1.417   .     A
C9     C11     1.389   .     A
C9     O84     1.383   .     S
C10    C21     1.418   .     A
C10    O70     1.383   .     S
C10    C13     1.388   .     A
C11    C14     1.399   .     A
C11    H37     1.084   .     S
C12    O79     1.298   .     A
C12    C15     1.455   .     S
C12    O77     1.299   .     A
C13    C15     1.394   .     A
C13    H48     1.084   .     S
C14    C16     1.419   .     A
C15    C17     1.403   .     A
C16    O71     1.380   .     S
C16    C18     1.395   .     A
C17    C19     1.410   .     A
C17    O72     1.384   .     S
C18    O73     1.386   .     S
C18    C20     1.419   .     A
C19    C21     1.423   .     A
C19    O74     1.386   .     S
C20    C273    1.469   1_545 S
C21    C272    1.469   .     S
C22    H63     1.108   .     S
C22    H64     1.110   .     S
C22    C91     1.516   .     S
C22    H146    1.110   .     S
C23    H59     1.083   .     S
C23    C30     1.411   .     A
C24    H38     1.111   .     S
C24    H66     1.106   .     S
C24    C176    1.519   1_455 S
C24    H233    1.110   1_455 S
C25    H47     1.109   .     S
C25    H45     1.105   .     S
C25    C30     1.504   .     S
C25    H46     1.111   .     S
C26    H50     1.112   .     S
C26    C31     1.505   .     S
C26    H49     1.099   .     S
C26    H51     1.105   .     S
C27    H54     1.110   .     S
C27    C34     1.511   .     S
C27    H56     1.111   .     S
C27    H559    1.108   1_554 S
C28    H57     1.110   .     S
C28    H60     1.111   .     S
C28    H562    1.108   .     S
C29    H61     1.084   .     S
C29    C31     1.411   .     A
C30    N67     1.385   .     A
C31    N68     1.385   .     A
C32    O75     1.373   .     S
C32    C34     1.422   .     A
C32    N67     1.386   .     A
C33    O76     1.373   .     S
C33    N68     1.386   .     A
Cu35   Cu36    2.699   .     S
Cu35   O80     1.972   .     S
Cu35   O83     1.966   .     S
Cu35   N68     2.028   .     S
Cu35   O79     1.956   .     S
Cu35   O69     1.953   .     S
Cu36   O77     1.953   .     S
Cu36   O82     1.966   .     S
Cu36   N67     2.028   .     S
Cu36   O81     1.972   .     S
Cu36   O78     1.956   .     S
H39    O336    0.989   .     S
H40    O70     0.988   .     S
H41    O71     0.987   .     S
H42    O72     0.989   .     S
H43    O325    0.987   .     S
H44    O326    0.987   1_545 S
H52    O75     0.984   .     S
H53    O76     0.983   .     S
H55    C531    1.108   .     S
H58    C532    1.108   1_554 S
H62    C190    1.110   1_455 S
H65    C108    1.110   .     S
O73    H295    0.987   1_545 S
O74    H296    0.987   .     S
O84    H291    0.989   1_545 S
C85    O162    1.299   .     A
C85    O153    1.304   .     A
C85    C98     1.468   .     S
C86    C88     1.415   .     A
C86    C117    1.421   .     A
C86    C112    1.512   .     S
C87    C107    1.398   .     A
C87    C118    1.415   .     A
C87    C592    1.522   1_554 S
C88    C113    1.399   .     A
C88    C591    1.522   .     S
C89    C91     1.434   .     S
C89    O164    1.285   .     A
C89    O166    1.298   .     A
C90    O165    1.284   .     A
C90    C92     1.439   .     S
C90    O167    1.301   .     A
C92    C175    1.359   .     S
C92    C192    1.519   .     S
C93    C104    1.417   .     A
C93    C95     1.389   .     A
C93    O168    1.383   .     S
C94    C105    1.418   .     A
C94    O154    1.383   .     S
C94    C97     1.388   .     A
C95    C98     1.399   .     A
C95    H121    1.084   .     S
C96    O163    1.298   .     A
C96    C99     1.455   .     S
C96    O161    1.299   .     A
C97    C99     1.394   .     A
C97    H132    1.084   .     S
C98    C100    1.419   .     A
C99    C101    1.403   .     A
C100   O155    1.380   .     S
C100   C102    1.395   .     A
C101   C103    1.410   .     A
C101   O156    1.384   .     S
C102   O157    1.386   .     S
C102   C104    1.419   .     A
C103   C105    1.423   .     A
C103   O158    1.386   .     S
C104   C357    1.469   1_545 S
C105   C356    1.469   .     S
C106   H147    1.108   .     S
C106   H148    1.110   .     S
C106   C175    1.516   .     S
C106   H230    1.110   .     S
C107   H143    1.083   .     S
C107   C114    1.411   .     A
C108   H122    1.111   .     S
C108   H150    1.106   .     S
C109   H131    1.109   .     S
C109   H129    1.105   .     S
C109   C114    1.504   .     S
C109   H130    1.111   .     S
C110   H134    1.112   .     S
C110   C115    1.505   .     S
C110   H133    1.099   .     S
C110   H135    1.105   .     S
C111   H138    1.110   .     S
C111   C118    1.511   .     S
C111   H140    1.111   .     S
C111   H643    1.108   1_554 S
C112   H141    1.110   .     S
C112   H144    1.111   .     S
C112   H646    1.108   .     S
C113   H145    1.084   .     S
C113   C115    1.411   .     A
C114   N151    1.385   .     A
C115   N152    1.385   .     A
C116   O159    1.373   .     S
C116   C118    1.422   .     A
C116   N151    1.386   .     A
C117   O160    1.373   .     S
C117   N152    1.386   .     A
Cu119  Cu120   2.699   .     S
Cu119  O164    1.972   .     S
Cu119  O167    1.966   .     S
Cu119  N152    2.028   .     S
Cu119  O163    1.956   .     S
Cu119  O153    1.953   .     S
Cu120  O161    1.953   .     S
Cu120  O166    1.966   .     S
Cu120  N151    2.028   .     S
Cu120  O165    1.972   .     S
Cu120  O162    1.956   .     S
H123   O420    0.989   .     S
H124   O154    0.988   .     S
H125   O155    0.987   .     S
H126   O156    0.989   .     S
H127   O409    0.987   .     S
H128   O410    0.987   1_545 S
H136   O159    0.984   .     S
H137   O160    0.983   .     S
H139   C615    1.108   .     S
H142   C616    1.108   1_554 S
H149   C192    1.110   .     S
O157   H379    0.987   1_545 S
O158   H380    0.987   .     S
O168   H375    0.989   1_545 S
C169   O246    1.299   .     A
C169   O237    1.304   .     A
C169   C182    1.468   .     S
C170   C172    1.415   .     A
C170   C201    1.421   .     A
C170   C196    1.512   .     S
C171   C191    1.398   .     A
C171   C202    1.415   .     A
C171   C676    1.522   1_554 S
C172   C197    1.399   .     A
C172   C675    1.522   .     S
C173   C175    1.434   .     S
C173   O248    1.285   .     A
C173   O250    1.298   .     A
C174   O249    1.284   .     A
C174   C176    1.439   .     S
C174   O251    1.301   .     A
C176   C7      1.359   1_655 S
C176   C24     1.519   1_655 S
C177   C188    1.417   .     A
C177   C179    1.389   .     A
C177   O252    1.383   .     S
C178   C189    1.418   .     A
C178   O238    1.383   .     S
C178   C181    1.388   .     A
C179   C182    1.399   .     A
C179   H205    1.084   .     S
C180   O247    1.298   .     A
C180   C183    1.455   .     S
C180   O245    1.299   .     A
C181   C183    1.394   .     A
C181   H216    1.084   .     S
C182   C184    1.419   .     A
C183   C185    1.403   .     A
C184   O239    1.380   .     S
C184   C186    1.395   .     A
C185   C187    1.410   .     A
C185   O240    1.384   .     S
C186   O241    1.386   .     S
C186   C188    1.419   .     A
C187   C189    1.423   .     A
C187   O242    1.386   .     S
C188   C441    1.469   1_545 S
C189   C440    1.469   .     S
C190   H231    1.108   .     S
C190   H232    1.110   .     S
C190   C7      1.516   1_655 S
C190   H62     1.110   1_655 S
C191   H227    1.083   .     S
C191   C198    1.411   .     A
C192   H206    1.111   .     S
C192   H234    1.106   .     S
C193   H215    1.109   .     S
C193   H213    1.105   .     S
C193   C198    1.504   .     S
C193   H214    1.111   .     S
C194   H218    1.112   .     S
C194   C199    1.505   .     S
C194   H217    1.099   .     S
C194   H219    1.105   .     S
C195   H222    1.110   .     S
C195   C202    1.511   .     S
C195   H224    1.111   .     S
C195   H727    1.108   1_554 S
C196   H225    1.110   .     S
C196   H228    1.111   .     S
C196   H730    1.108   .     S
C197   H229    1.084   .     S
C197   C199    1.411   .     A
C198   N235    1.385   .     A
C199   N236    1.385   .     A
C200   O243    1.373   .     S
C200   C202    1.422   .     A
C200   N235    1.386   .     A
C201   O244    1.373   .     S
C201   N236    1.386   .     A
Cu203  Cu204   2.699   .     S
Cu203  O248    1.972   .     S
Cu203  O251    1.966   .     S
Cu203  N236    2.028   .     S
Cu203  O247    1.956   .     S
Cu203  O237    1.953   .     S
Cu204  O245    1.953   .     S
Cu204  O250    1.966   .     S
Cu204  N235    2.028   .     S
Cu204  O249    1.972   .     S
Cu204  O246    1.956   .     S
H207   O504    0.989   .     S
H208   O238    0.988   .     S
H209   O239    0.987   .     S
H210   O240    0.989   .     S
H211   O493    0.987   .     S
H212   O494    0.987   1_545 S
H220   O243    0.984   .     S
H221   O244    0.983   .     S
H223   C699    1.108   .     S
H226   C700    1.108   1_554 S
H233   C24     1.110   1_655 S
O241   H463    0.987   1_545 S
O242   H464    0.987   .     S
O252   H459    0.989   1_545 S
C253   O330    1.299   .     A
C253   O321    1.304   .     A
C253   C266    1.468   .     S
C254   C256    1.415   .     A
C254   C285    1.421   .     A
C254   C280    1.512   .     S
C255   C275    1.398   .     A
C255   C286    1.415   .     A
C255   C760    1.522   1_554 S
C256   C281    1.399   .     A
C256   C759    1.522   .     S
C257   C259    1.434   .     S
C257   O332    1.285   .     A
C257   O334    1.298   .     A
C258   O333    1.284   .     A
C258   C260    1.439   .     S
C258   O335    1.301   .     A
C259   C428    1.359   1_455 S
C259   C442    1.516   1_455 S
C260   C343    1.359   .     S
C260   C360    1.519   .     S
C261   C272    1.417   .     A
C261   C263    1.389   .     A
C261   O336    1.383   .     S
C262   C273    1.418   .     A
C262   O322    1.383   .     S
C262   C265    1.388   .     A
C263   C266    1.399   .     A
C263   H289    1.084   .     S
C264   O331    1.298   .     A
C264   C267    1.455   .     S
C264   O329    1.299   .     A
C265   C267    1.394   .     A
C265   H300    1.084   .     S
C266   C268    1.419   .     A
C267   C269    1.403   .     A
C268   O323    1.380   .     S
C268   C270    1.395   .     A
C269   C271    1.410   .     A
C269   O324    1.384   .     S
C270   O325    1.386   .     S
C270   C272    1.419   .     A
C271   C273    1.423   .     A
C271   O326    1.386   .     S
C273   C20     1.469   1_565 S
C274   H315    1.108   .     S
C274   H316    1.110   .     S
C274   C343    1.516   .     S
C274   H398    1.110   .     S
C275   H311    1.083   .     S
C275   C282    1.411   .     A
C276   H290    1.111   .     S
C276   H318    1.106   .     S
C276   C428    1.519   1_455 S
C276   H485    1.110   1_455 S
C277   H299    1.109   .     S
C277   H297    1.105   .     S
C277   C282    1.504   .     S
C277   H298    1.111   .     S
C278   H302    1.112   .     S
C278   C283    1.505   .     S
C278   H301    1.099   .     S
C278   H303    1.105   .     S
C279   H306    1.110   .     S
C279   C286    1.511   .     S
C279   H308    1.111   .     S
C279   H811    1.108   1_554 S
C280   H309    1.110   .     S
C280   H312    1.111   .     S
C280   H814    1.108   .     S
C281   H313    1.084   .     S
C281   C283    1.411   .     A
C282   N319    1.385   .     A
C283   N320    1.385   .     A
C284   O327    1.373   .     S
C284   C286    1.422   .     A
C284   N319    1.386   .     A
C285   O328    1.373   .     S
C285   N320    1.386   .     A
Cu287  Cu288   2.699   .     S
Cu287  O332    1.972   .     S
Cu287  O335    1.966   .     S
Cu287  N320    2.028   .     S
Cu287  O331    1.956   .     S
Cu287  O321    1.953   .     S
Cu288  O329    1.953   .     S
Cu288  O334    1.966   .     S
Cu288  N319    2.028   .     S
Cu288  O333    1.972   .     S
Cu288  O330    1.956   .     S
H291   O84     0.989   1_565 S
H292   O322    0.988   .     S
H293   O323    0.987   .     S
H294   O324    0.989   .     S
H295   O73     0.987   1_565 S
H304   O327    0.984   .     S
H305   O328    0.983   .     S
H307   C783    1.108   .     S
H310   C784    1.108   1_554 S
H314   C442    1.110   1_455 S
H317   C360    1.110   .     S
O326   H44     0.987   1_565 S
C337   O414    1.299   .     A
C337   O405    1.304   .     A
C337   C350    1.468   .     S
C338   C340    1.415   .     A
C338   C369    1.421   .     A
C338   C364    1.512   .     S
C339   C359    1.398   .     A
C339   C370    1.415   .     A
C339   C844    1.522   1_554 S
C340   C365    1.399   .     A
C340   C843    1.522   .     S
C341   C343    1.434   .     S
C341   O416    1.285   .     A
C341   O418    1.298   .     A
C342   O417    1.284   .     A
C342   C344    1.439   .     S
C342   O419    1.301   .     A
C344   C427    1.359   .     S
C344   C444    1.519   .     S
C345   C356    1.417   .     A
C345   C347    1.389   .     A
C345   O420    1.383   .     S
C346   C357    1.418   .     A
C346   O406    1.383   .     S
C346   C349    1.388   .     A
C347   C350    1.399   .     A
C347   H373    1.084   .     S
C348   O415    1.298   .     A
C348   C351    1.455   .     S
C348   O413    1.299   .     A
C349   C351    1.394   .     A
C349   H384    1.084   .     S
C350   C352    1.419   .     A
C351   C353    1.403   .     A
C352   O407    1.380   .     S
C352   C354    1.395   .     A
C353   C355    1.410   .     A
C353   O408    1.384   .     S
C354   O409    1.386   .     S
C354   C356    1.419   .     A
C355   C357    1.423   .     A
C355   O410    1.386   .     S
C357   C104    1.469   1_565 S
C358   H399    1.108   .     S
C358   H400    1.110   .     S
C358   C427    1.516   .     S
C358   H482    1.110   .     S
C359   H395    1.083   .     S
C359   C366    1.411   .     A
C360   H374    1.111   .     S
C360   H402    1.106   .     S
C361   H383    1.109   .     S
C361   H381    1.105   .     S
C361   C366    1.504   .     S
C361   H382    1.111   .     S
C362   H386    1.112   .     S
C362   C367    1.505   .     S
C362   H385    1.099   .     S
C362   H387    1.105   .     S
C363   H390    1.110   .     S
C363   C370    1.511   .     S
C363   H392    1.111   .     S
C363   H895    1.108   1_554 S
C364   H393    1.110   .     S
C364   H396    1.111   .     S
C364   H898    1.108   .     S
C365   H397    1.084   .     S
C365   C367    1.411   .     A
C366   N403    1.385   .     A
C367   N404    1.385   .     A
C368   O411    1.373   .     S
C368   C370    1.422   .     A
C368   N403    1.386   .     A
C369   O412    1.373   .     S
C369   N404    1.386   .     A
Cu371  Cu372   2.699   .     S
Cu371  O416    1.972   .     S
Cu371  O419    1.966   .     S
Cu371  N404    2.028   .     S
Cu371  O415    1.956   .     S
Cu371  O405    1.953   .     S
Cu372  O413    1.953   .     S
Cu372  O418    1.966   .     S
Cu372  N403    2.028   .     S
Cu372  O417    1.972   .     S
Cu372  O414    1.956   .     S
H375   O168    0.989   1_565 S
H376   O406    0.988   .     S
H377   O407    0.987   .     S
H378   O408    0.989   .     S
H379   O157    0.987   1_565 S
H388   O411    0.984   .     S
H389   O412    0.983   .     S
H391   C867    1.108   .     S
H394   C868    1.108   1_554 S
H401   C444    1.110   .     S
O410   H128    0.987   1_565 S
C421   O498    1.299   .     A
C421   O489    1.304   .     A
C421   C434    1.468   .     S
C422   C424    1.415   .     A
C422   C453    1.421   .     A
C422   C448    1.512   .     S
C423   C443    1.398   .     A
C423   C454    1.415   .     A
C423   C928    1.522   1_554 S
C424   C449    1.399   .     A
C424   C927    1.522   .     S
C425   C427    1.434   .     S
C425   O500    1.285   .     A
C425   O502    1.298   .     A
C426   O501    1.284   .     A
C426   C428    1.439   .     S
C426   O503    1.301   .     A
C428   C259    1.359   1_655 S
C428   C276    1.519   1_655 S
C429   C440    1.417   .     A
C429   C431    1.389   .     A
C429   O504    1.383   .     S
C430   C441    1.418   .     A
C430   O490    1.383   .     S
C430   C433    1.388   .     A
C431   C434    1.399   .     A
C431   H457    1.084   .     S
C432   O499    1.298   .     A
C432   C435    1.455   .     S
C432   O497    1.299   .     A
C433   C435    1.394   .     A
C433   H468    1.084   .     S
C434   C436    1.419   .     A
C435   C437    1.403   .     A
C436   O491    1.380   .     S
C436   C438    1.395   .     A
C437   C439    1.410   .     A
C437   O492    1.384   .     S
C438   O493    1.386   .     S
C438   C440    1.419   .     A
C439   C441    1.423   .     A
C439   O494    1.386   .     S
C441   C188    1.469   1_565 S
C442   H483    1.108   .     S
C442   H484    1.110   .     S
C442   C259    1.516   1_655 S
C442   H314    1.110   1_655 S
C443   H479    1.083   .     S
C443   C450    1.411   .     A
C444   H458    1.111   .     S
C444   H486    1.106   .     S
C445   H467    1.109   .     S
C445   H465    1.105   .     S
C445   C450    1.504   .     S
C445   H466    1.111   .     S
C446   H470    1.112   .     S
C446   C451    1.505   .     S
C446   H469    1.099   .     S
C446   H471    1.105   .     S
C447   H474    1.110   .     S
C447   C454    1.511   .     S
C447   H476    1.111   .     S
C447   H979    1.108   1_554 S
C448   H477    1.110   .     S
C448   H480    1.111   .     S
C448   H982    1.108   .     S
C449   H481    1.084   .     S
C449   C451    1.411   .     A
C450   N487    1.385   .     A
C451   N488    1.385   .     A
C452   O495    1.373   .     S
C452   C454    1.422   .     A
C452   N487    1.386   .     A
C453   O496    1.373   .     S
C453   N488    1.386   .     A
Cu455  Cu456   2.699   .     S
Cu455  O500    1.972   .     S
Cu455  O503    1.966   .     S
Cu455  N488    2.028   .     S
Cu455  O499    1.956   .     S
Cu455  O489    1.953   .     S
Cu456  O497    1.953   .     S
Cu456  O502    1.966   .     S
Cu456  N487    2.028   .     S
Cu456  O501    1.972   .     S
Cu456  O498    1.956   .     S
H459   O252    0.989   1_565 S
H460   O490    0.988   .     S
H461   O491    0.987   .     S
H462   O492    0.989   .     S
H463   O241    0.987   1_565 S
H472   O495    0.984   .     S
H473   O496    0.983   .     S
H475   C951    1.108   .     S
H478   C952    1.108   1_554 S
H485   C276    1.110   1_655 S
O494   H212    0.987   1_565 S
C505   O582    1.299   .     A
C505   O573    1.304   .     A
C505   C518    1.468   .     S
C506   C508    1.415   .     A
C506   C537    1.421   .     A
C506   C532    1.512   .     S
C507   C527    1.398   .     A
C507   C538    1.415   .     A
C508   C533    1.399   .     A
C508   C3      1.522   1_556 S
C509   C511    1.434   .     S
C509   O584    1.285   .     A
C509   O586    1.298   .     A
C510   O585    1.284   .     A
C510   C512    1.439   .     S
C510   O587    1.301   .     A
C511   C680    1.359   1_455 S
C511   C694    1.516   1_455 S
C512   C595    1.359   .     S
C512   C612    1.519   .     S
C513   C524    1.417   .     A
C513   C515    1.389   .     A
C513   O588    1.383   .     S
C514   C525    1.418   .     A
C514   O574    1.383   .     S
C514   C517    1.388   .     A
C515   C518    1.399   .     A
C515   H541    1.084   .     S
C516   O583    1.298   .     A
C516   C519    1.455   .     S
C516   O581    1.299   .     A
C517   C519    1.394   .     A
C517   H552    1.084   .     S
C518   C520    1.419   .     A
C519   C521    1.403   .     A
C520   O575    1.380   .     S
C520   C522    1.395   .     A
C521   C523    1.410   .     A
C521   O576    1.384   .     S
C522   O577    1.386   .     S
C522   C524    1.419   .     A
C523   C525    1.423   .     A
C523   O578    1.386   .     S
C524   C777    1.469   1_545 S
C525   C776    1.469   .     S
C526   H567    1.108   .     S
C526   H568    1.110   .     S
C526   C595    1.516   .     S
C526   H650    1.110   .     S
C527   H563    1.083   .     S
C527   C534    1.411   .     A
C528   H542    1.111   .     S
C528   H570    1.106   .     S
C528   C680    1.519   1_455 S
C528   H737    1.110   1_455 S
C529   H551    1.109   .     S
C529   H549    1.105   .     S
C529   C534    1.504   .     S
C529   H550    1.111   .     S
C530   H554    1.112   .     S
C530   C535    1.505   .     S
C530   H553    1.099   .     S
C530   H555    1.105   .     S
C531   H558    1.110   .     S
C531   C538    1.511   .     S
C531   H560    1.111   .     S
C532   H561    1.110   .     S
C532   H564    1.111   .     S
C532   H58     1.108   1_556 S
C533   H565    1.084   .     S
C533   C535    1.411   .     A
C534   N571    1.385   .     A
C535   N572    1.385   .     A
C536   O579    1.373   .     S
C536   C538    1.422   .     A
C536   N571    1.386   .     A
C537   O580    1.373   .     S
C537   N572    1.386   .     A
Cu539  Cu540   2.699   .     S
Cu539  O584    1.972   .     S
Cu539  O587    1.966   .     S
Cu539  N572    2.028   .     S
Cu539  O583    1.956   .     S
Cu539  O573    1.953   .     S
Cu540  O581    1.953   .     S
Cu540  O586    1.966   .     S
Cu540  N571    2.028   .     S
Cu540  O585    1.972   .     S
Cu540  O582    1.956   .     S
H543   O840    0.989   .     S
H544   O574    0.988   .     S
H545   O575    0.987   .     S
H546   O576    0.989   .     S
H547   O829    0.987   .     S
H548   O830    0.987   1_545 S
H556   O579    0.984   .     S
H557   O580    0.983   .     S
H559   C27     1.108   1_556 S
H566   C694    1.110   1_455 S
H569   C612    1.110   .     S
O577   H799    0.987   1_545 S
O578   H800    0.987   .     S
O588   H795    0.989   1_545 S
C589   O666    1.299   .     A
C589   O657    1.304   .     A
C589   C602    1.468   .     S
C590   C592    1.415   .     A
C590   C621    1.421   .     A
C590   C616    1.512   .     S
C591   C611    1.398   .     A
C591   C622    1.415   .     A
C592   C617    1.399   .     A
C592   C87     1.522   1_556 S
C593   C595    1.434   .     S
C593   O668    1.285   .     A
C593   O670    1.298   .     A
C594   O669    1.284   .     A
C594   C596    1.439   .     S
C594   O671    1.301   .     A
C596   C679    1.359   .     S
C596   C696    1.519   .     S
C597   C608    1.417   .     A
C597   C599    1.389   .     A
C597   O672    1.383   .     S
C598   C609    1.418   .     A
C598   O658    1.383   .     S
C598   C601    1.388   .     A
C599   C602    1.399   .     A
C599   H625    1.084   .     S
C600   O667    1.298   .     A
C600   C603    1.455   .     S
C600   O665    1.299   .     A
C601   C603    1.394   .     A
C601   H636    1.084   .     S
C602   C604    1.419   .     A
C603   C605    1.403   .     A
C604   O659    1.380   .     S
C604   C606    1.395   .     A
C605   C607    1.410   .     A
C605   O660    1.384   .     S
C606   O661    1.386   .     S
C606   C608    1.419   .     A
C607   C609    1.423   .     A
C607   O662    1.386   .     S
C608   C861    1.469   1_545 S
C609   C860    1.469   .     S
C610   H651    1.108   .     S
C610   H652    1.110   .     S
C610   C679    1.516   .     S
C610   H734    1.110   .     S
C611   H647    1.083   .     S
C611   C618    1.411   .     A
C612   H626    1.111   .     S
C612   H654    1.106   .     S
C613   H635    1.109   .     S
C613   H633    1.105   .     S
C613   C618    1.504   .     S
C613   H634    1.111   .     S
C614   H638    1.112   .     S
C614   C619    1.505   .     S
C614   H637    1.099   .     S
C614   H639    1.105   .     S
C615   H642    1.110   .     S
C615   C622    1.511   .     S
C615   H644    1.111   .     S
C616   H645    1.110   .     S
C616   H648    1.111   .     S
C616   H142    1.108   1_556 S
C617   H649    1.084   .     S
C617   C619    1.411   .     A
C618   N655    1.385   .     A
C619   N656    1.385   .     A
C620   O663    1.373   .     S
C620   C622    1.422   .     A
C620   N655    1.386   .     A
C621   O664    1.373   .     S
C621   N656    1.386   .     A
Cu623  Cu624   2.699   .     S
Cu623  O668    1.972   .     S
Cu623  O671    1.966   .     S
Cu623  N656    2.028   .     S
Cu623  O667    1.956   .     S
Cu623  O657    1.953   .     S
Cu624  O665    1.953   .     S
Cu624  O670    1.966   .     S
Cu624  N655    2.028   .     S
Cu624  O669    1.972   .     S
Cu624  O666    1.956   .     S
H627   O924    0.989   .     S
H628   O658    0.988   .     S
H629   O659    0.987   .     S
H630   O660    0.989   .     S
H631   O913    0.987   .     S
H632   O914    0.987   1_545 S
H640   O663    0.984   .     S
H641   O664    0.983   .     S
H643   C111    1.108   1_556 S
H653   C696    1.110   .     S
O661   H883    0.987   1_545 S
O662   H884    0.987   .     S
O672   H879    0.989   1_545 S
C673   O750    1.299   .     A
C673   O741    1.304   .     A
C673   C686    1.468   .     S
C674   C676    1.415   .     A
C674   C705    1.421   .     A
C674   C700    1.512   .     S
C675   C695    1.398   .     A
C675   C706    1.415   .     A
C676   C701    1.399   .     A
C676   C171    1.522   1_556 S
C677   C679    1.434   .     S
C677   O752    1.285   .     A
C677   O754    1.298   .     A
C678   O753    1.284   .     A
C678   C680    1.439   .     S
C678   O755    1.301   .     A
C680   C511    1.359   1_655 S
C680   C528    1.519   1_655 S
C681   C692    1.417   .     A
C681   C683    1.389   .     A
C681   O756    1.383   .     S
C682   C693    1.418   .     A
C682   O742    1.383   .     S
C682   C685    1.388   .     A
C683   C686    1.399   .     A
C683   H709    1.084   .     S
C684   O751    1.298   .     A
C684   C687    1.455   .     S
C684   O749    1.299   .     A
C685   C687    1.394   .     A
C685   H720    1.084   .     S
C686   C688    1.419   .     A
C687   C689    1.403   .     A
C688   O743    1.380   .     S
C688   C690    1.395   .     A
C689   C691    1.410   .     A
C689   O744    1.384   .     S
C690   O745    1.386   .     S
C690   C692    1.419   .     A
C691   C693    1.423   .     A
C691   O746    1.386   .     S
C692   C945    1.469   1_545 S
C693   C944    1.469   .     S
C694   H735    1.108   .     S
C694   H736    1.110   .     S
C694   C511    1.516   1_655 S
C694   H566    1.110   1_655 S
C695   H731    1.083   .     S
C695   C702    1.411   .     A
C696   H710    1.111   .     S
C696   H738    1.106   .     S
C697   H719    1.109   .     S
C697   H717    1.105   .     S
C697   C702    1.504   .     S
C697   H718    1.111   .     S
C698   H722    1.112   .     S
C698   C703    1.505   .     S
C698   H721    1.099   .     S
C698   H723    1.105   .     S
C699   H726    1.110   .     S
C699   C706    1.511   .     S
C699   H728    1.111   .     S
C700   H729    1.110   .     S
C700   H732    1.111   .     S
C700   H226    1.108   1_556 S
C701   H733    1.084   .     S
C701   C703    1.411   .     A
C702   N739    1.385   .     A
C703   N740    1.385   .     A
C704   O747    1.373   .     S
C704   C706    1.422   .     A
C704   N739    1.386   .     A
C705   O748    1.373   .     S
C705   N740    1.386   .     A
Cu707  Cu708   2.699   .     S
Cu707  O752    1.972   .     S
Cu707  O755    1.966   .     S
Cu707  N740    2.028   .     S
Cu707  O751    1.956   .     S
Cu707  O741    1.953   .     S
Cu708  O749    1.953   .     S
Cu708  O754    1.966   .     S
Cu708  N739    2.028   .     S
Cu708  O753    1.972   .     S
Cu708  O750    1.956   .     S
H711   O1008   0.989   .     S
H712   O742    0.988   .     S
H713   O743    0.987   .     S
H714   O744    0.989   .     S
H715   O997    0.987   .     S
H716   O998    0.987   1_545 S
H724   O747    0.984   .     S
H725   O748    0.983   .     S
H727   C195    1.108   1_556 S
H737   C528    1.110   1_655 S
O745   H967    0.987   1_545 S
O746   H968    0.987   .     S
O756   H963    0.989   1_545 S
C757   O834    1.299   .     A
C757   O825    1.304   .     A
C757   C770    1.468   .     S
C758   C760    1.415   .     A
C758   C789    1.421   .     A
C758   C784    1.512   .     S
C759   C779    1.398   .     A
C759   C790    1.415   .     A
C760   C785    1.399   .     A
C760   C255    1.522   1_556 S
C761   C763    1.434   .     S
C761   O836    1.285   .     A
C761   O838    1.298   .     A
C762   O837    1.284   .     A
C762   C764    1.439   .     S
C762   O839    1.301   .     A
C763   C932    1.359   1_455 S
C763   C946    1.516   1_455 S
C764   C847    1.359   .     S
C764   C864    1.519   .     S
C765   C776    1.417   .     A
C765   C767    1.389   .     A
C765   O840    1.383   .     S
C766   C777    1.418   .     A
C766   O826    1.383   .     S
C766   C769    1.388   .     A
C767   C770    1.399   .     A
C767   H793    1.084   .     S
C768   O835    1.298   .     A
C768   C771    1.455   .     S
C768   O833    1.299   .     A
C769   C771    1.394   .     A
C769   H804    1.084   .     S
C770   C772    1.419   .     A
C771   C773    1.403   .     A
C772   O827    1.380   .     S
C772   C774    1.395   .     A
C773   C775    1.410   .     A
C773   O828    1.384   .     S
C774   O829    1.386   .     S
C774   C776    1.419   .     A
C775   C777    1.423   .     A
C775   O830    1.386   .     S
C777   C524    1.469   1_565 S
C778   H819    1.108   .     S
C778   H820    1.110   .     S
C778   C847    1.516   .     S
C778   H902    1.110   .     S
C779   H815    1.083   .     S
C779   C786    1.411   .     A
C780   H794    1.111   .     S
C780   H822    1.106   .     S
C780   C932    1.519   1_455 S
C780   H989    1.110   1_455 S
C781   H803    1.109   .     S
C781   H801    1.105   .     S
C781   C786    1.504   .     S
C781   H802    1.111   .     S
C782   H806    1.112   .     S
C782   C787    1.505   .     S
C782   H805    1.099   .     S
C782   H807    1.105   .     S
C783   H810    1.110   .     S
C783   C790    1.511   .     S
C783   H812    1.111   .     S
C784   H813    1.110   .     S
C784   H816    1.111   .     S
C784   H310    1.108   1_556 S
C785   H817    1.084   .     S
C785   C787    1.411   .     A
C786   N823    1.385   .     A
C787   N824    1.385   .     A
C788   O831    1.373   .     S
C788   C790    1.422   .     A
C788   N823    1.386   .     A
C789   O832    1.373   .     S
C789   N824    1.386   .     A
Cu791  Cu792   2.699   .     S
Cu791  O836    1.972   .     S
Cu791  O839    1.966   .     S
Cu791  N824    2.028   .     S
Cu791  O835    1.956   .     S
Cu791  O825    1.953   .     S
Cu792  O833    1.953   .     S
Cu792  O838    1.966   .     S
Cu792  N823    2.028   .     S
Cu792  O837    1.972   .     S
Cu792  O834    1.956   .     S
H795   O588    0.989   1_565 S
H796   O826    0.988   .     S
H797   O827    0.987   .     S
H798   O828    0.989   .     S
H799   O577    0.987   1_565 S
H808   O831    0.984   .     S
H809   O832    0.983   .     S
H811   C279    1.108   1_556 S
H818   C946    1.110   1_455 S
H821   C864    1.110   .     S
O830   H548    0.987   1_565 S
C841   O918    1.299   .     A
C841   O909    1.304   .     A
C841   C854    1.468   .     S
C842   C844    1.415   .     A
C842   C873    1.421   .     A
C842   C868    1.512   .     S
C843   C863    1.398   .     A
C843   C874    1.415   .     A
C844   C869    1.399   .     A
C844   C339    1.522   1_556 S
C845   C847    1.434   .     S
C845   O920    1.285   .     A
C845   O922    1.298   .     A
C846   O921    1.284   .     A
C846   C848    1.439   .     S
C846   O923    1.301   .     A
C848   C931    1.359   .     S
C848   C948    1.519   .     S
C849   C860    1.417   .     A
C849   C851    1.389   .     A
C849   O924    1.383   .     S
C850   C861    1.418   .     A
C850   O910    1.383   .     S
C850   C853    1.388   .     A
C851   C854    1.399   .     A
C851   H877    1.084   .     S
C852   O919    1.298   .     A
C852   C855    1.455   .     S
C852   O917    1.299   .     A
C853   C855    1.394   .     A
C853   H888    1.084   .     S
C854   C856    1.419   .     A
C855   C857    1.403   .     A
C856   O911    1.380   .     S
C856   C858    1.395   .     A
C857   C859    1.410   .     A
C857   O912    1.384   .     S
C858   O913    1.386   .     S
C858   C860    1.419   .     A
C859   C861    1.423   .     A
C859   O914    1.386   .     S
C861   C608    1.469   1_565 S
C862   H903    1.108   .     S
C862   H904    1.110   .     S
C862   C931    1.516   .     S
C862   H986    1.110   .     S
C863   H899    1.083   .     S
C863   C870    1.411   .     A
C864   H878    1.111   .     S
C864   H906    1.106   .     S
C865   H887    1.109   .     S
C865   H885    1.105   .     S
C865   C870    1.504   .     S
C865   H886    1.111   .     S
C866   H890    1.112   .     S
C866   C871    1.505   .     S
C866   H889    1.099   .     S
C866   H891    1.105   .     S
C867   H894    1.110   .     S
C867   C874    1.511   .     S
C867   H896    1.111   .     S
C868   H897    1.110   .     S
C868   H900    1.111   .     S
C868   H394    1.108   1_556 S
C869   H901    1.084   .     S
C869   C871    1.411   .     A
C870   N907    1.385   .     A
C871   N908    1.385   .     A
C872   O915    1.373   .     S
C872   C874    1.422   .     A
C872   N907    1.386   .     A
C873   O916    1.373   .     S
C873   N908    1.386   .     A
Cu875  Cu876   2.699   .     S
Cu875  O920    1.972   .     S
Cu875  O923    1.966   .     S
Cu875  N908    2.028   .     S
Cu875  O919    1.956   .     S
Cu875  O909    1.953   .     S
Cu876  O917    1.953   .     S
Cu876  O922    1.966   .     S
Cu876  N907    2.028   .     S
Cu876  O921    1.972   .     S
Cu876  O918    1.956   .     S
H879   O672    0.989   1_565 S
H880   O910    0.988   .     S
H881   O911    0.987   .     S
H882   O912    0.989   .     S
H883   O661    0.987   1_565 S
H892   O915    0.984   .     S
H893   O916    0.983   .     S
H895   C363    1.108   1_556 S
H905   C948    1.110   .     S
O914   H632    0.987   1_565 S
C925   O1002   1.299   .     A
C925   O993    1.304   .     A
C925   C938    1.468   .     S
C926   C928    1.415   .     A
C926   C957    1.421   .     A
C926   C952    1.512   .     S
C927   C947    1.398   .     A
C927   C958    1.415   .     A
C928   C953    1.399   .     A
C928   C423    1.522   1_556 S
C929   C931    1.434   .     S
C929   O1004   1.285   .     A
C929   O1006   1.298   .     A
C930   O1005   1.284   .     A
C930   C932    1.439   .     S
C930   O1007   1.301   .     A
C932   C763    1.359   1_655 S
C932   C780    1.519   1_655 S
C933   C944    1.417   .     A
C933   C935    1.389   .     A
C933   O1008   1.383   .     S
C934   C945    1.418   .     A
C934   O994    1.383   .     S
C934   C937    1.388   .     A
C935   C938    1.399   .     A
C935   H961    1.084   .     S
C936   O1003   1.298   .     A
C936   C939    1.455   .     S
C936   O1001   1.299   .     A
C937   C939    1.394   .     A
C937   H972    1.084   .     S
C938   C940    1.419   .     A
C939   C941    1.403   .     A
C940   O995    1.380   .     S
C940   C942    1.395   .     A
C941   C943    1.410   .     A
C941   O996    1.384   .     S
C942   O997    1.386   .     S
C942   C944    1.419   .     A
C943   C945    1.423   .     A
C943   O998    1.386   .     S
C945   C692    1.469   1_565 S
C946   H987    1.108   .     S
C946   H988    1.110   .     S
C946   C763    1.516   1_655 S
C946   H818    1.110   1_655 S
C947   H983    1.083   .     S
C947   C954    1.411   .     A
C948   H962    1.111   .     S
C948   H990    1.106   .     S
C949   H971    1.109   .     S
C949   H969    1.105   .     S
C949   C954    1.504   .     S
C949   H970    1.111   .     S
C950   H974    1.112   .     S
C950   C955    1.505   .     S
C950   H973    1.099   .     S
C950   H975    1.105   .     S
C951   H978    1.110   .     S
C951   C958    1.511   .     S
C951   H980    1.111   .     S
C952   H981    1.110   .     S
C952   H984    1.111   .     S
C952   H478    1.108   1_556 S
C953   H985    1.084   .     S
C953   C955    1.411   .     A
C954   N991    1.385   .     A
C955   N992    1.385   .     A
C956   O999    1.373   .     S
C956   C958    1.422   .     A
C956   N991    1.386   .     A
C957   O1000   1.373   .     S
C957   N992    1.386   .     A
Cu959  Cu960   2.699   .     S
Cu959  O1004   1.972   .     S
Cu959  O1007   1.966   .     S
Cu959  N992    2.028   .     S
Cu959  O1003   1.956   .     S
Cu959  O993    1.953   .     S
Cu960  O1001   1.953   .     S
Cu960  O1006   1.966   .     S
Cu960  N991    2.028   .     S
Cu960  O1005   1.972   .     S
Cu960  O1002   1.956   .     S
H963   O756    0.989   1_565 S
H964   O994    0.988   .     S
H965   O995    0.987   .     S
H966   O996    0.989   .     S
H967   O745    0.987   1_565 S
H976   O999    0.984   .     S
H977   O1000   0.983   .     S
H979   C447    1.108   1_556 S
H989   C780    1.110   1_655 S
O998   H716    0.987   1_565 S
