data_str_m2_o2_o10_pcu_sym.84
_audit_creation_date              2020-01-03
_audit_creation_method            'Materials Studio'
_symmetry_space_group_name_H-M    'P1'
_symmetry_Int_Tables_number       1
_symmetry_cell_setting            triclinic
loop_
_symmetry_equiv_pos_as_xyz
  x,y,z
_cell_length_a                    26.1985
_cell_length_b                    30.2773
_cell_length_c                    27.7383
_cell_angle_alpha                 90.0631
_cell_angle_beta                  97.9825
_cell_angle_gamma                 90.0855
loop_
_atom_site_label
_atom_site_type_symbol
_atom_site_fract_x
_atom_site_fract_y
_atom_site_fract_z
_atom_site_U_iso_or_equiv
_atom_site_adp_type
_atom_site_occupancy
O1     O     0.16667   0.18573   0.29072   0.00000  Uiso   1.00
O2     O     0.16666   0.31428   0.20929   0.00000  Uiso   1.00
O3     O     0.16667   0.18573   0.20928   0.00000  Uiso   1.00
O4     O     0.16666   0.31427   0.29072   0.00000  Uiso   1.00
C5     C     0.16665   0.16494   0.24998   0.00000  Uiso   1.00
C6     C     0.16671   0.33506   0.25004   0.00000  Uiso   1.00
O7     O     0.09161   0.25000   0.28132   0.00000  Uiso   1.00
O8     O     0.24172   0.25001   0.21868   0.00000  Uiso   1.00
O9     O     0.09161   0.25000   0.19989   0.00000  Uiso   1.00
O10    O     0.24172   0.25000   0.30012   0.00000  Uiso   1.00
C11    C     0.06789   0.24997   0.23754   0.00000  Uiso   1.00
C12    C     0.26544   0.25001   0.26245   0.00000  Uiso   1.00
Cu13   Cu    0.16667   0.25000   0.29822   0.00000  Uiso   1.00
Cu14   Cu    0.16667   0.25001   0.20179   0.00000  Uiso   1.00
C15    C     0.01262   0.24992   0.23068   0.00000  Uiso   1.00
C16    C     0.32072   0.25002   0.26932   0.00000  Uiso   1.00
H17    H     0.32598   0.24980   0.19361   0.00000  Uiso   1.00
H18    H     0.00739   0.25011   0.30638   0.00000  Uiso   1.00
C19    C     0.18242   0.04771   0.29331   0.00000  Uiso   1.00
C20    C     0.18241   0.45238   0.21096   0.00000  Uiso   1.00
H21    H     0.19562   0.03058   0.32698   0.00000  Uiso   1.00
H22    H     0.19549   0.46959   0.18072   0.00000  Uiso   1.00
C23    C     0.18204   0.09361   0.29333   0.00000  Uiso   1.00
C24    C     0.18208   0.40648   0.21080   0.00000  Uiso   1.00
H25    H     0.19447   0.11100   0.32708   0.00000  Uiso   1.00
H26    H     0.19443   0.38916   0.18025   0.00000  Uiso   1.00
C27    C     0.16665   0.11671   0.24999   0.00000  Uiso   1.00
C28    C     0.16680   0.38329   0.25011   0.00000  Uiso   1.00
C29    C     0.15124   0.09342   0.20671   0.00000  Uiso   1.00
C30    C     0.15158   0.40649   0.28948   0.00000  Uiso   1.00
H31    H     0.13876   0.11067   0.17294   0.00000  Uiso   1.00
H32    H     0.13927   0.38917   0.32004   0.00000  Uiso   1.00
C33    C     0.15090   0.04751   0.20682   0.00000  Uiso   1.00
C34    C     0.15120   0.45240   0.28933   0.00000  Uiso   1.00
H35    H     0.13771   0.03022   0.17319   0.00000  Uiso   1.00
H36    H     0.13812   0.46961   0.31957   0.00000  Uiso   1.00
C37    C     0.16668   0.02428   0.25009   0.00000  Uiso   1.00
C38    C     0.16676   0.47572   0.25013   0.00000  Uiso   1.00
C39    C     0.20923   0.26238   0.05875   0.00000  Uiso   1.00
C40    C     0.14801   0.21492   0.44426   0.00000  Uiso   1.00
H41    H     0.24424   0.27120   0.04437   0.00000  Uiso   1.00
H42    H     0.13423   0.18596   0.46140   0.00000  Uiso   1.00
C43    C     0.20944   0.26207   0.10948   0.00000  Uiso   1.00
C44    C     0.14845   0.21468   0.39361   0.00000  Uiso   1.00
H45    H     0.24422   0.27159   0.13276   0.00000  Uiso   1.00
H46    H     0.13411   0.18597   0.37279   0.00000  Uiso   1.00
N47    N     0.16667   0.25001   0.12935   0.00000  Uiso   1.00
N48    N     0.16667   0.24999   0.37066   0.00000  Uiso   1.00
C49    C     0.12283   0.23831   0.09941   0.00000  Uiso   1.00
C50    C     0.18461   0.28622   0.39713   0.00000  Uiso   1.00
H51    H     0.08907   0.22874   0.11519   0.00000  Uiso   1.00
H52    H     0.19902   0.31401   0.37866   0.00000  Uiso   1.00
C53    C     0.11982   0.23993   0.04810   0.00000  Uiso   1.00
C54    C     0.18312   0.28892   0.44785   0.00000  Uiso   1.00
C55    C     0.16419   0.25181   0.02692   0.00000  Uiso   1.00
C56    C     0.16481   0.25228   0.47242   0.00000  Uiso   1.00
N57    N     0.07113   0.23130   0.01870   0.00000  Uiso   1.00
O58    O     0.05631   0.25501   0.48020   0.00000  Uiso   1.00
O59    O     0.03840   0.20406   0.03395   0.00000  Uiso   1.00
N60    N     0.19819   0.32951   0.47288   0.00000  Uiso   1.00
O61    O     0.17224   0.34459   0.00610   0.00000  Uiso   1.00
O62    O     0.23324   0.35455   0.45796   0.00000  Uiso   1.00
O63    O     0.50000   0.18573   0.29072   0.00000  Uiso   1.00
O64    O     0.50000   0.31428   0.20929   0.00000  Uiso   1.00
O65    O     0.50000   0.18573   0.20928   0.00000  Uiso   1.00
O66    O     0.50000   0.31427   0.29072   0.00000  Uiso   1.00
C67    C     0.49998   0.16494   0.24998   0.00000  Uiso   1.00
C68    C     0.50005   0.33506   0.25004   0.00000  Uiso   1.00
O69    O     0.42495   0.25000   0.28132   0.00000  Uiso   1.00
O70    O     0.57505   0.25001   0.21868   0.00000  Uiso   1.00
O71    O     0.42495   0.25000   0.19989   0.00000  Uiso   1.00
O72    O     0.57505   0.25000   0.30012   0.00000  Uiso   1.00
C73    C     0.40123   0.24997   0.23754   0.00000  Uiso   1.00
C74    C     0.59878   0.25001   0.26245   0.00000  Uiso   1.00
Cu75   Cu    0.50000   0.25000   0.29822   0.00000  Uiso   1.00
Cu76   Cu    0.50000   0.25001   0.20179   0.00000  Uiso   1.00
C77    C     0.34596   0.24992   0.23068   0.00000  Uiso   1.00
C78    C     0.65405   0.25002   0.26932   0.00000  Uiso   1.00
H79    H     0.65931   0.24980   0.19361   0.00000  Uiso   1.00
H80    H     0.34073   0.25011   0.30638   0.00000  Uiso   1.00
C81    C     0.51575   0.04771   0.29331   0.00000  Uiso   1.00
C82    C     0.51575   0.45238   0.21096   0.00000  Uiso   1.00
H83    H     0.52895   0.03058   0.32698   0.00000  Uiso   1.00
H84    H     0.52882   0.46959   0.18072   0.00000  Uiso   1.00
C85    C     0.51537   0.09361   0.29333   0.00000  Uiso   1.00
C86    C     0.51541   0.40648   0.21080   0.00000  Uiso   1.00
H87    H     0.52781   0.11100   0.32708   0.00000  Uiso   1.00
H88    H     0.52777   0.38916   0.18025   0.00000  Uiso   1.00
C89    C     0.49998   0.11671   0.24999   0.00000  Uiso   1.00
C90    C     0.50013   0.38329   0.25011   0.00000  Uiso   1.00
C91    C     0.48457   0.09342   0.20671   0.00000  Uiso   1.00
C92    C     0.48491   0.40649   0.28948   0.00000  Uiso   1.00
H93    H     0.47209   0.11067   0.17294   0.00000  Uiso   1.00
H94    H     0.47261   0.38917   0.32004   0.00000  Uiso   1.00
C95    C     0.48423   0.04751   0.20682   0.00000  Uiso   1.00
C96    C     0.48453   0.45240   0.28933   0.00000  Uiso   1.00
H97    H     0.47104   0.03022   0.17319   0.00000  Uiso   1.00
H98    H     0.47145   0.46961   0.31957   0.00000  Uiso   1.00
C99    C     0.50001   0.02428   0.25009   0.00000  Uiso   1.00
C100   C     0.50009   0.47572   0.25013   0.00000  Uiso   1.00
C101   C     0.54256   0.26238   0.05875   0.00000  Uiso   1.00
C102   C     0.48134   0.21492   0.44426   0.00000  Uiso   1.00
H103   H     0.57758   0.27120   0.04437   0.00000  Uiso   1.00
H104   H     0.46757   0.18596   0.46140   0.00000  Uiso   1.00
C105   C     0.54277   0.26207   0.10948   0.00000  Uiso   1.00
C106   C     0.48178   0.21468   0.39361   0.00000  Uiso   1.00
H107   H     0.57755   0.27159   0.13276   0.00000  Uiso   1.00
H108   H     0.46744   0.18597   0.37279   0.00000  Uiso   1.00
N109   N     0.50000   0.25001   0.12935   0.00000  Uiso   1.00
N110   N     0.50000   0.24999   0.37066   0.00000  Uiso   1.00
C111   C     0.45616   0.23831   0.09941   0.00000  Uiso   1.00
C112   C     0.51794   0.28622   0.39713   0.00000  Uiso   1.00
H113   H     0.42241   0.22874   0.11519   0.00000  Uiso   1.00
H114   H     0.53235   0.31401   0.37866   0.00000  Uiso   1.00
C115   C     0.45315   0.23993   0.04810   0.00000  Uiso   1.00
C116   C     0.51645   0.28892   0.44785   0.00000  Uiso   1.00
C117   C     0.49753   0.25181   0.02692   0.00000  Uiso   1.00
C118   C     0.49814   0.25228   0.47242   0.00000  Uiso   1.00
N119   N     0.40446   0.23130   0.01870   0.00000  Uiso   1.00
O120   O     0.38965   0.25501   0.48020   0.00000  Uiso   1.00
O121   O     0.37173   0.20406   0.03395   0.00000  Uiso   1.00
N122   N     0.53152   0.32951   0.47288   0.00000  Uiso   1.00
O123   O     0.50558   0.34459   0.00610   0.00000  Uiso   1.00
O124   O     0.56658   0.35455   0.45796   0.00000  Uiso   1.00
O125   O     0.83334   0.18573   0.29072   0.00000  Uiso   1.00
O126   O     0.83333   0.31428   0.20929   0.00000  Uiso   1.00
O127   O     0.83334   0.18573   0.20928   0.00000  Uiso   1.00
O128   O     0.83333   0.31427   0.29072   0.00000  Uiso   1.00
C129   C     0.83332   0.16494   0.24998   0.00000  Uiso   1.00
C130   C     0.83338   0.33506   0.25004   0.00000  Uiso   1.00
O131   O     0.75828   0.25000   0.28132   0.00000  Uiso   1.00
O132   O     0.90839   0.25001   0.21868   0.00000  Uiso   1.00
O133   O     0.75828   0.25000   0.19989   0.00000  Uiso   1.00
O134   O     0.90839   0.25000   0.30012   0.00000  Uiso   1.00
C135   C     0.73456   0.24997   0.23754   0.00000  Uiso   1.00
C136   C     0.93211   0.25001   0.26245   0.00000  Uiso   1.00
Cu137  Cu    0.83333   0.25000   0.29822   0.00000  Uiso   1.00
Cu138  Cu    0.83333   0.25001   0.20179   0.00000  Uiso   1.00
C139   C     0.67929   0.24992   0.23068   0.00000  Uiso   1.00
C140   C     0.98739   0.25002   0.26932   0.00000  Uiso   1.00
H141   H     0.99264   0.24980   0.19361   0.00000  Uiso   1.00
H142   H     0.67406   0.25011   0.30638   0.00000  Uiso   1.00
C143   C     0.84908   0.04771   0.29331   0.00000  Uiso   1.00
C144   C     0.84908   0.45238   0.21096   0.00000  Uiso   1.00
H145   H     0.86229   0.03058   0.32698   0.00000  Uiso   1.00
H146   H     0.86215   0.46959   0.18072   0.00000  Uiso   1.00
C147   C     0.84871   0.09361   0.29333   0.00000  Uiso   1.00
C148   C     0.84875   0.40648   0.21080   0.00000  Uiso   1.00
H149   H     0.86114   0.11100   0.32708   0.00000  Uiso   1.00
H150   H     0.86110   0.38916   0.18025   0.00000  Uiso   1.00
C151   C     0.83332   0.11671   0.24999   0.00000  Uiso   1.00
C152   C     0.83346   0.38329   0.25011   0.00000  Uiso   1.00
C153   C     0.81790   0.09342   0.20671   0.00000  Uiso   1.00
C154   C     0.81825   0.40649   0.28948   0.00000  Uiso   1.00
H155   H     0.80543   0.11067   0.17294   0.00000  Uiso   1.00
H156   H     0.80594   0.38917   0.32004   0.00000  Uiso   1.00
C157   C     0.81756   0.04751   0.20682   0.00000  Uiso   1.00
C158   C     0.81787   0.45240   0.28933   0.00000  Uiso   1.00
H159   H     0.80437   0.03022   0.17319   0.00000  Uiso   1.00
H160   H     0.80478   0.46961   0.31957   0.00000  Uiso   1.00
C161   C     0.83335   0.02428   0.25009   0.00000  Uiso   1.00
C162   C     0.83343   0.47572   0.25013   0.00000  Uiso   1.00
C163   C     0.87590   0.26238   0.05875   0.00000  Uiso   1.00
C164   C     0.81467   0.21492   0.44426   0.00000  Uiso   1.00
H165   H     0.91091   0.27120   0.04437   0.00000  Uiso   1.00
H166   H     0.80090   0.18596   0.46140   0.00000  Uiso   1.00
C167   C     0.87610   0.26207   0.10948   0.00000  Uiso   1.00
C168   C     0.81512   0.21468   0.39361   0.00000  Uiso   1.00
H169   H     0.91089   0.27159   0.13276   0.00000  Uiso   1.00
H170   H     0.80078   0.18597   0.37279   0.00000  Uiso   1.00
N171   N     0.83333   0.25001   0.12935   0.00000  Uiso   1.00
N172   N     0.83333   0.24999   0.37066   0.00000  Uiso   1.00
C173   C     0.78950   0.23831   0.09941   0.00000  Uiso   1.00
C174   C     0.85128   0.28622   0.39713   0.00000  Uiso   1.00
H175   H     0.75574   0.22874   0.11519   0.00000  Uiso   1.00
H176   H     0.86569   0.31401   0.37866   0.00000  Uiso   1.00
C177   C     0.78648   0.23993   0.04810   0.00000  Uiso   1.00
C178   C     0.84978   0.28892   0.44785   0.00000  Uiso   1.00
C179   C     0.83086   0.25181   0.02692   0.00000  Uiso   1.00
C180   C     0.83147   0.25228   0.47242   0.00000  Uiso   1.00
N181   N     0.73780   0.23130   0.01870   0.00000  Uiso   1.00
O182   O     0.72298   0.25501   0.48020   0.00000  Uiso   1.00
O183   O     0.70506   0.20406   0.03395   0.00000  Uiso   1.00
N184   N     0.86485   0.32951   0.47288   0.00000  Uiso   1.00
O185   O     0.83891   0.34459   0.00610   0.00000  Uiso   1.00
O186   O     0.89991   0.35455   0.45796   0.00000  Uiso   1.00
O187   O     0.16667   0.68573   0.29072   0.00000  Uiso   1.00
O188   O     0.16666   0.81428   0.20929   0.00000  Uiso   1.00
O189   O     0.16667   0.68573   0.20928   0.00000  Uiso   1.00
O190   O     0.16666   0.81427   0.29072   0.00000  Uiso   1.00
C191   C     0.16665   0.66494   0.24998   0.00000  Uiso   1.00
C192   C     0.16671   0.83506   0.25004   0.00000  Uiso   1.00
O193   O     0.09161   0.75000   0.28132   0.00000  Uiso   1.00
O194   O     0.24172   0.75001   0.21868   0.00000  Uiso   1.00
O195   O     0.09161   0.75000   0.19989   0.00000  Uiso   1.00
O196   O     0.24172   0.75000   0.30012   0.00000  Uiso   1.00
C197   C     0.06789   0.74997   0.23754   0.00000  Uiso   1.00
C198   C     0.26544   0.75001   0.26245   0.00000  Uiso   1.00
Cu199  Cu    0.16667   0.75000   0.29822   0.00000  Uiso   1.00
Cu200  Cu    0.16667   0.75001   0.20179   0.00000  Uiso   1.00
C201   C     0.01262   0.74992   0.23068   0.00000  Uiso   1.00
C202   C     0.32072   0.75002   0.26932   0.00000  Uiso   1.00
H203   H     0.32598   0.74980   0.19361   0.00000  Uiso   1.00
H204   H     0.00739   0.75011   0.30638   0.00000  Uiso   1.00
C205   C     0.18242   0.54771   0.29331   0.00000  Uiso   1.00
C206   C     0.18241   0.95238   0.21096   0.00000  Uiso   1.00
H207   H     0.19562   0.53058   0.32698   0.00000  Uiso   1.00
H208   H     0.19549   0.96959   0.18072   0.00000  Uiso   1.00
C209   C     0.18204   0.59361   0.29333   0.00000  Uiso   1.00
C210   C     0.18208   0.90648   0.21080   0.00000  Uiso   1.00
H211   H     0.19447   0.61100   0.32708   0.00000  Uiso   1.00
H212   H     0.19443   0.88916   0.18025   0.00000  Uiso   1.00
C213   C     0.16665   0.61671   0.24999   0.00000  Uiso   1.00
C214   C     0.16680   0.88329   0.25011   0.00000  Uiso   1.00
C215   C     0.15124   0.59342   0.20671   0.00000  Uiso   1.00
C216   C     0.15158   0.90649   0.28948   0.00000  Uiso   1.00
H217   H     0.13876   0.61067   0.17294   0.00000  Uiso   1.00
H218   H     0.13927   0.88917   0.32004   0.00000  Uiso   1.00
C219   C     0.15090   0.54751   0.20682   0.00000  Uiso   1.00
C220   C     0.15120   0.95240   0.28933   0.00000  Uiso   1.00
H221   H     0.13771   0.53022   0.17319   0.00000  Uiso   1.00
H222   H     0.13812   0.96961   0.31957   0.00000  Uiso   1.00
C223   C     0.16668   0.52428   0.25009   0.00000  Uiso   1.00
C224   C     0.16676   0.97572   0.25013   0.00000  Uiso   1.00
C225   C     0.20923   0.76238   0.05875   0.00000  Uiso   1.00
C226   C     0.14801   0.71492   0.44426   0.00000  Uiso   1.00
H227   H     0.24424   0.77120   0.04437   0.00000  Uiso   1.00
H228   H     0.13423   0.68596   0.46140   0.00000  Uiso   1.00
C229   C     0.20944   0.76207   0.10948   0.00000  Uiso   1.00
C230   C     0.14845   0.71468   0.39361   0.00000  Uiso   1.00
H231   H     0.24422   0.77159   0.13276   0.00000  Uiso   1.00
H232   H     0.13411   0.68597   0.37279   0.00000  Uiso   1.00
N233   N     0.16667   0.75001   0.12935   0.00000  Uiso   1.00
N234   N     0.16667   0.74999   0.37066   0.00000  Uiso   1.00
C235   C     0.12283   0.73831   0.09941   0.00000  Uiso   1.00
C236   C     0.18461   0.78622   0.39713   0.00000  Uiso   1.00
H237   H     0.08907   0.72874   0.11519   0.00000  Uiso   1.00
H238   H     0.19902   0.81401   0.37866   0.00000  Uiso   1.00
C239   C     0.11982   0.73993   0.04810   0.00000  Uiso   1.00
C240   C     0.18312   0.78892   0.44785   0.00000  Uiso   1.00
C241   C     0.16419   0.75181   0.02692   0.00000  Uiso   1.00
C242   C     0.16481   0.75228   0.47242   0.00000  Uiso   1.00
N243   N     0.07113   0.73130   0.01870   0.00000  Uiso   1.00
O244   O     0.05631   0.75501   0.48020   0.00000  Uiso   1.00
O245   O     0.03840   0.70406   0.03395   0.00000  Uiso   1.00
N246   N     0.19819   0.82951   0.47288   0.00000  Uiso   1.00
O247   O     0.17224   0.84459   0.00610   0.00000  Uiso   1.00
O248   O     0.23324   0.85455   0.45796   0.00000  Uiso   1.00
O249   O     0.50000   0.68573   0.29072   0.00000  Uiso   1.00
O250   O     0.50000   0.81428   0.20929   0.00000  Uiso   1.00
O251   O     0.50000   0.68573   0.20928   0.00000  Uiso   1.00
O252   O     0.50000   0.81427   0.29072   0.00000  Uiso   1.00
C253   C     0.49998   0.66494   0.24998   0.00000  Uiso   1.00
C254   C     0.50005   0.83506   0.25004   0.00000  Uiso   1.00
O255   O     0.42495   0.75000   0.28132   0.00000  Uiso   1.00
O256   O     0.57505   0.75001   0.21868   0.00000  Uiso   1.00
O257   O     0.42495   0.75000   0.19989   0.00000  Uiso   1.00
O258   O     0.57505   0.75000   0.30012   0.00000  Uiso   1.00
C259   C     0.40123   0.74997   0.23754   0.00000  Uiso   1.00
C260   C     0.59878   0.75001   0.26245   0.00000  Uiso   1.00
Cu261  Cu    0.50000   0.75000   0.29822   0.00000  Uiso   1.00
Cu262  Cu    0.50000   0.75001   0.20179   0.00000  Uiso   1.00
C263   C     0.34596   0.74992   0.23068   0.00000  Uiso   1.00
C264   C     0.65405   0.75002   0.26932   0.00000  Uiso   1.00
H265   H     0.65931   0.74980   0.19361   0.00000  Uiso   1.00
H266   H     0.34073   0.75011   0.30638   0.00000  Uiso   1.00
C267   C     0.51575   0.54771   0.29331   0.00000  Uiso   1.00
C268   C     0.51575   0.95238   0.21096   0.00000  Uiso   1.00
H269   H     0.52895   0.53058   0.32698   0.00000  Uiso   1.00
H270   H     0.52882   0.96959   0.18072   0.00000  Uiso   1.00
C271   C     0.51537   0.59361   0.29333   0.00000  Uiso   1.00
C272   C     0.51541   0.90648   0.21080   0.00000  Uiso   1.00
H273   H     0.52781   0.61100   0.32708   0.00000  Uiso   1.00
H274   H     0.52777   0.88916   0.18025   0.00000  Uiso   1.00
C275   C     0.49998   0.61671   0.24999   0.00000  Uiso   1.00
C276   C     0.50013   0.88329   0.25011   0.00000  Uiso   1.00
C277   C     0.48457   0.59342   0.20671   0.00000  Uiso   1.00
C278   C     0.48491   0.90649   0.28948   0.00000  Uiso   1.00
H279   H     0.47209   0.61067   0.17294   0.00000  Uiso   1.00
H280   H     0.47261   0.88917   0.32004   0.00000  Uiso   1.00
C281   C     0.48423   0.54751   0.20682   0.00000  Uiso   1.00
C282   C     0.48453   0.95240   0.28933   0.00000  Uiso   1.00
H283   H     0.47104   0.53022   0.17319   0.00000  Uiso   1.00
H284   H     0.47145   0.96961   0.31957   0.00000  Uiso   1.00
C285   C     0.50001   0.52428   0.25009   0.00000  Uiso   1.00
C286   C     0.50009   0.97572   0.25013   0.00000  Uiso   1.00
C287   C     0.54256   0.76238   0.05875   0.00000  Uiso   1.00
C288   C     0.48134   0.71492   0.44426   0.00000  Uiso   1.00
H289   H     0.57758   0.77120   0.04437   0.00000  Uiso   1.00
H290   H     0.46757   0.68596   0.46140   0.00000  Uiso   1.00
C291   C     0.54277   0.76207   0.10948   0.00000  Uiso   1.00
C292   C     0.48178   0.71468   0.39361   0.00000  Uiso   1.00
H293   H     0.57755   0.77159   0.13276   0.00000  Uiso   1.00
H294   H     0.46744   0.68597   0.37279   0.00000  Uiso   1.00
N295   N     0.50000   0.75001   0.12935   0.00000  Uiso   1.00
N296   N     0.50000   0.74999   0.37066   0.00000  Uiso   1.00
C297   C     0.45616   0.73831   0.09941   0.00000  Uiso   1.00
C298   C     0.51794   0.78622   0.39713   0.00000  Uiso   1.00
H299   H     0.42241   0.72874   0.11519   0.00000  Uiso   1.00
H300   H     0.53235   0.81401   0.37866   0.00000  Uiso   1.00
C301   C     0.45315   0.73993   0.04810   0.00000  Uiso   1.00
C302   C     0.51645   0.78892   0.44785   0.00000  Uiso   1.00
C303   C     0.49753   0.75181   0.02692   0.00000  Uiso   1.00
C304   C     0.49814   0.75228   0.47242   0.00000  Uiso   1.00
N305   N     0.40446   0.73130   0.01870   0.00000  Uiso   1.00
O306   O     0.38965   0.75501   0.48020   0.00000  Uiso   1.00
O307   O     0.37173   0.70406   0.03395   0.00000  Uiso   1.00
N308   N     0.53152   0.82951   0.47288   0.00000  Uiso   1.00
O309   O     0.50558   0.84459   0.00610   0.00000  Uiso   1.00
O310   O     0.56658   0.85455   0.45796   0.00000  Uiso   1.00
O311   O     0.83334   0.68573   0.29072   0.00000  Uiso   1.00
O312   O     0.83333   0.81428   0.20929   0.00000  Uiso   1.00
O313   O     0.83334   0.68573   0.20928   0.00000  Uiso   1.00
O314   O     0.83333   0.81427   0.29072   0.00000  Uiso   1.00
C315   C     0.83332   0.66494   0.24998   0.00000  Uiso   1.00
C316   C     0.83338   0.83506   0.25004   0.00000  Uiso   1.00
O317   O     0.75828   0.75000   0.28132   0.00000  Uiso   1.00
O318   O     0.90839   0.75001   0.21868   0.00000  Uiso   1.00
O319   O     0.75828   0.75000   0.19989   0.00000  Uiso   1.00
O320   O     0.90839   0.75000   0.30012   0.00000  Uiso   1.00
C321   C     0.73456   0.74997   0.23754   0.00000  Uiso   1.00
C322   C     0.93211   0.75001   0.26245   0.00000  Uiso   1.00
Cu323  Cu    0.83333   0.75000   0.29822   0.00000  Uiso   1.00
Cu324  Cu    0.83333   0.75001   0.20179   0.00000  Uiso   1.00
C325   C     0.67929   0.74992   0.23068   0.00000  Uiso   1.00
C326   C     0.98739   0.75002   0.26932   0.00000  Uiso   1.00
H327   H     0.99264   0.74980   0.19361   0.00000  Uiso   1.00
H328   H     0.67406   0.75011   0.30638   0.00000  Uiso   1.00
C329   C     0.84908   0.54771   0.29331   0.00000  Uiso   1.00
C330   C     0.84908   0.95238   0.21096   0.00000  Uiso   1.00
H331   H     0.86229   0.53058   0.32698   0.00000  Uiso   1.00
H332   H     0.86215   0.96959   0.18072   0.00000  Uiso   1.00
C333   C     0.84871   0.59361   0.29333   0.00000  Uiso   1.00
C334   C     0.84875   0.90648   0.21080   0.00000  Uiso   1.00
H335   H     0.86114   0.61100   0.32708   0.00000  Uiso   1.00
H336   H     0.86110   0.88916   0.18025   0.00000  Uiso   1.00
C337   C     0.83332   0.61671   0.24999   0.00000  Uiso   1.00
C338   C     0.83346   0.88329   0.25011   0.00000  Uiso   1.00
C339   C     0.81790   0.59342   0.20671   0.00000  Uiso   1.00
C340   C     0.81825   0.90649   0.28948   0.00000  Uiso   1.00
H341   H     0.80543   0.61067   0.17294   0.00000  Uiso   1.00
H342   H     0.80594   0.88917   0.32004   0.00000  Uiso   1.00
C343   C     0.81756   0.54751   0.20682   0.00000  Uiso   1.00
C344   C     0.81787   0.95240   0.28933   0.00000  Uiso   1.00
H345   H     0.80437   0.53022   0.17319   0.00000  Uiso   1.00
H346   H     0.80478   0.96961   0.31957   0.00000  Uiso   1.00
C347   C     0.83335   0.52428   0.25009   0.00000  Uiso   1.00
C348   C     0.83343   0.97572   0.25013   0.00000  Uiso   1.00
C349   C     0.87590   0.76238   0.05875   0.00000  Uiso   1.00
C350   C     0.81467   0.71492   0.44426   0.00000  Uiso   1.00
H351   H     0.91091   0.77120   0.04437   0.00000  Uiso   1.00
H352   H     0.80090   0.68596   0.46140   0.00000  Uiso   1.00
C353   C     0.87610   0.76207   0.10948   0.00000  Uiso   1.00
C354   C     0.81512   0.71468   0.39361   0.00000  Uiso   1.00
H355   H     0.91089   0.77159   0.13276   0.00000  Uiso   1.00
H356   H     0.80078   0.68597   0.37279   0.00000  Uiso   1.00
N357   N     0.83333   0.75001   0.12935   0.00000  Uiso   1.00
N358   N     0.83333   0.74999   0.37066   0.00000  Uiso   1.00
C359   C     0.78950   0.73831   0.09941   0.00000  Uiso   1.00
C360   C     0.85128   0.78622   0.39713   0.00000  Uiso   1.00
H361   H     0.75574   0.72874   0.11519   0.00000  Uiso   1.00
H362   H     0.86569   0.81401   0.37866   0.00000  Uiso   1.00
C363   C     0.78648   0.73993   0.04810   0.00000  Uiso   1.00
C364   C     0.84978   0.78892   0.44785   0.00000  Uiso   1.00
C365   C     0.83086   0.75181   0.02692   0.00000  Uiso   1.00
C366   C     0.83147   0.75228   0.47242   0.00000  Uiso   1.00
N367   N     0.73780   0.73130   0.01870   0.00000  Uiso   1.00
O368   O     0.72298   0.75501   0.48020   0.00000  Uiso   1.00
O369   O     0.70506   0.70406   0.03395   0.00000  Uiso   1.00
N370   N     0.86485   0.82951   0.47288   0.00000  Uiso   1.00
O371   O     0.83891   0.84459   0.00610   0.00000  Uiso   1.00
O372   O     0.89991   0.85455   0.45796   0.00000  Uiso   1.00
O373   O     0.16667   0.18573   0.79072   0.00000  Uiso   1.00
O374   O     0.16666   0.31428   0.70929   0.00000  Uiso   1.00
O375   O     0.16667   0.18573   0.70928   0.00000  Uiso   1.00
O376   O     0.16666   0.31427   0.79072   0.00000  Uiso   1.00
C377   C     0.16665   0.16494   0.74998   0.00000  Uiso   1.00
C378   C     0.16671   0.33506   0.75004   0.00000  Uiso   1.00
O379   O     0.09161   0.25000   0.78132   0.00000  Uiso   1.00
O380   O     0.24172   0.25001   0.71868   0.00000  Uiso   1.00
O381   O     0.09161   0.25000   0.69989   0.00000  Uiso   1.00
O382   O     0.24172   0.25000   0.80012   0.00000  Uiso   1.00
C383   C     0.06789   0.24997   0.73754   0.00000  Uiso   1.00
C384   C     0.26544   0.25001   0.76245   0.00000  Uiso   1.00
Cu385  Cu    0.16667   0.25000   0.79822   0.00000  Uiso   1.00
Cu386  Cu    0.16667   0.25001   0.70179   0.00000  Uiso   1.00
C387   C     0.01262   0.24992   0.73068   0.00000  Uiso   1.00
C388   C     0.32072   0.25002   0.76932   0.00000  Uiso   1.00
H389   H     0.32598   0.24980   0.69361   0.00000  Uiso   1.00
H390   H     0.00739   0.25011   0.80638   0.00000  Uiso   1.00
C391   C     0.18242   0.04771   0.79331   0.00000  Uiso   1.00
C392   C     0.18241   0.45238   0.71096   0.00000  Uiso   1.00
H393   H     0.19562   0.03058   0.82698   0.00000  Uiso   1.00
H394   H     0.19549   0.46959   0.68072   0.00000  Uiso   1.00
C395   C     0.18204   0.09361   0.79333   0.00000  Uiso   1.00
C396   C     0.18208   0.40648   0.71080   0.00000  Uiso   1.00
H397   H     0.19447   0.11100   0.82708   0.00000  Uiso   1.00
H398   H     0.19443   0.38916   0.68025   0.00000  Uiso   1.00
C399   C     0.16665   0.11671   0.74999   0.00000  Uiso   1.00
C400   C     0.16680   0.38329   0.75011   0.00000  Uiso   1.00
C401   C     0.15124   0.09342   0.70671   0.00000  Uiso   1.00
C402   C     0.15158   0.40649   0.78948   0.00000  Uiso   1.00
H403   H     0.13876   0.11067   0.67294   0.00000  Uiso   1.00
H404   H     0.13927   0.38917   0.82004   0.00000  Uiso   1.00
C405   C     0.15090   0.04751   0.70682   0.00000  Uiso   1.00
C406   C     0.15120   0.45240   0.78933   0.00000  Uiso   1.00
H407   H     0.13771   0.03022   0.67319   0.00000  Uiso   1.00
H408   H     0.13812   0.46961   0.81957   0.00000  Uiso   1.00
C409   C     0.16668   0.02428   0.75009   0.00000  Uiso   1.00
C410   C     0.16676   0.47572   0.75013   0.00000  Uiso   1.00
C411   C     0.20923   0.26238   0.55875   0.00000  Uiso   1.00
C412   C     0.14801   0.21492   0.94426   0.00000  Uiso   1.00
H413   H     0.24424   0.27120   0.54437   0.00000  Uiso   1.00
H414   H     0.13423   0.18596   0.96140   0.00000  Uiso   1.00
C415   C     0.20944   0.26207   0.60948   0.00000  Uiso   1.00
C416   C     0.14845   0.21468   0.89361   0.00000  Uiso   1.00
H417   H     0.24422   0.27159   0.63276   0.00000  Uiso   1.00
H418   H     0.13411   0.18597   0.87279   0.00000  Uiso   1.00
N419   N     0.16667   0.25001   0.62935   0.00000  Uiso   1.00
N420   N     0.16667   0.24999   0.87066   0.00000  Uiso   1.00
C421   C     0.12283   0.23831   0.59941   0.00000  Uiso   1.00
C422   C     0.18461   0.28622   0.89713   0.00000  Uiso   1.00
H423   H     0.08907   0.22874   0.61519   0.00000  Uiso   1.00
H424   H     0.19902   0.31401   0.87866   0.00000  Uiso   1.00
C425   C     0.11982   0.23993   0.54810   0.00000  Uiso   1.00
C426   C     0.18312   0.28892   0.94785   0.00000  Uiso   1.00
C427   C     0.16419   0.25181   0.52692   0.00000  Uiso   1.00
C428   C     0.16481   0.25228   0.97242   0.00000  Uiso   1.00
N429   N     0.07113   0.23130   0.51870   0.00000  Uiso   1.00
O430   O     0.05631   0.25501   0.98020   0.00000  Uiso   1.00
O431   O     0.03840   0.20406   0.53395   0.00000  Uiso   1.00
N432   N     0.19819   0.32951   0.97288   0.00000  Uiso   1.00
O433   O     0.17224   0.34459   0.50610   0.00000  Uiso   1.00
O434   O     0.23324   0.35455   0.95796   0.00000  Uiso   1.00
O435   O     0.50000   0.18573   0.79072   0.00000  Uiso   1.00
O436   O     0.50000   0.31428   0.70929   0.00000  Uiso   1.00
O437   O     0.50000   0.18573   0.70928   0.00000  Uiso   1.00
O438   O     0.50000   0.31427   0.79072   0.00000  Uiso   1.00
C439   C     0.49998   0.16494   0.74998   0.00000  Uiso   1.00
C440   C     0.50005   0.33506   0.75004   0.00000  Uiso   1.00
O441   O     0.42495   0.25000   0.78132   0.00000  Uiso   1.00
O442   O     0.57505   0.25001   0.71868   0.00000  Uiso   1.00
O443   O     0.42495   0.25000   0.69989   0.00000  Uiso   1.00
O444   O     0.57505   0.25000   0.80012   0.00000  Uiso   1.00
C445   C     0.40123   0.24997   0.73754   0.00000  Uiso   1.00
C446   C     0.59878   0.25001   0.76245   0.00000  Uiso   1.00
Cu447  Cu    0.50000   0.25000   0.79822   0.00000  Uiso   1.00
Cu448  Cu    0.50000   0.25001   0.70179   0.00000  Uiso   1.00
C449   C     0.34596   0.24992   0.73068   0.00000  Uiso   1.00
C450   C     0.65405   0.25002   0.76932   0.00000  Uiso   1.00
H451   H     0.65931   0.24980   0.69361   0.00000  Uiso   1.00
H452   H     0.34073   0.25011   0.80638   0.00000  Uiso   1.00
C453   C     0.51575   0.04771   0.79331   0.00000  Uiso   1.00
C454   C     0.51575   0.45238   0.71096   0.00000  Uiso   1.00
H455   H     0.52895   0.03058   0.82698   0.00000  Uiso   1.00
H456   H     0.52882   0.46959   0.68072   0.00000  Uiso   1.00
C457   C     0.51537   0.09361   0.79333   0.00000  Uiso   1.00
C458   C     0.51541   0.40648   0.71080   0.00000  Uiso   1.00
H459   H     0.52781   0.11100   0.82708   0.00000  Uiso   1.00
H460   H     0.52777   0.38916   0.68025   0.00000  Uiso   1.00
C461   C     0.49998   0.11671   0.74999   0.00000  Uiso   1.00
C462   C     0.50013   0.38329   0.75011   0.00000  Uiso   1.00
C463   C     0.48457   0.09342   0.70671   0.00000  Uiso   1.00
C464   C     0.48491   0.40649   0.78948   0.00000  Uiso   1.00
H465   H     0.47209   0.11067   0.67294   0.00000  Uiso   1.00
H466   H     0.47261   0.38917   0.82004   0.00000  Uiso   1.00
C467   C     0.48423   0.04751   0.70682   0.00000  Uiso   1.00
C468   C     0.48453   0.45240   0.78933   0.00000  Uiso   1.00
H469   H     0.47104   0.03022   0.67319   0.00000  Uiso   1.00
H470   H     0.47145   0.46961   0.81957   0.00000  Uiso   1.00
C471   C     0.50001   0.02428   0.75009   0.00000  Uiso   1.00
C472   C     0.50009   0.47572   0.75013   0.00000  Uiso   1.00
C473   C     0.54256   0.26238   0.55875   0.00000  Uiso   1.00
C474   C     0.48134   0.21492   0.94426   0.00000  Uiso   1.00
H475   H     0.57758   0.27120   0.54437   0.00000  Uiso   1.00
H476   H     0.46757   0.18596   0.96140   0.00000  Uiso   1.00
C477   C     0.54277   0.26207   0.60948   0.00000  Uiso   1.00
C478   C     0.48178   0.21468   0.89361   0.00000  Uiso   1.00
H479   H     0.57755   0.27159   0.63276   0.00000  Uiso   1.00
H480   H     0.46744   0.18597   0.87279   0.00000  Uiso   1.00
N481   N     0.50000   0.25001   0.62935   0.00000  Uiso   1.00
N482   N     0.50000   0.24999   0.87066   0.00000  Uiso   1.00
C483   C     0.45616   0.23831   0.59941   0.00000  Uiso   1.00
C484   C     0.51794   0.28622   0.89713   0.00000  Uiso   1.00
H485   H     0.42241   0.22874   0.61519   0.00000  Uiso   1.00
H486   H     0.53235   0.31401   0.87866   0.00000  Uiso   1.00
C487   C     0.45315   0.23993   0.54810   0.00000  Uiso   1.00
C488   C     0.51645   0.28892   0.94785   0.00000  Uiso   1.00
C489   C     0.49753   0.25181   0.52692   0.00000  Uiso   1.00
C490   C     0.49814   0.25228   0.97242   0.00000  Uiso   1.00
N491   N     0.40446   0.23130   0.51870   0.00000  Uiso   1.00
O492   O     0.38965   0.25501   0.98020   0.00000  Uiso   1.00
O493   O     0.37173   0.20406   0.53395   0.00000  Uiso   1.00
N494   N     0.53152   0.32951   0.97288   0.00000  Uiso   1.00
O495   O     0.50558   0.34459   0.50610   0.00000  Uiso   1.00
O496   O     0.56658   0.35455   0.95796   0.00000  Uiso   1.00
O497   O     0.83334   0.18573   0.79072   0.00000  Uiso   1.00
O498   O     0.83333   0.31428   0.70929   0.00000  Uiso   1.00
O499   O     0.83334   0.18573   0.70928   0.00000  Uiso   1.00
O500   O     0.83333   0.31427   0.79072   0.00000  Uiso   1.00
C501   C     0.83332   0.16494   0.74998   0.00000  Uiso   1.00
C502   C     0.83338   0.33506   0.75004   0.00000  Uiso   1.00
O503   O     0.75828   0.25000   0.78132   0.00000  Uiso   1.00
O504   O     0.90839   0.25001   0.71868   0.00000  Uiso   1.00
O505   O     0.75828   0.25000   0.69989   0.00000  Uiso   1.00
O506   O     0.90839   0.25000   0.80012   0.00000  Uiso   1.00
C507   C     0.73456   0.24997   0.73754   0.00000  Uiso   1.00
C508   C     0.93211   0.25001   0.76245   0.00000  Uiso   1.00
Cu509  Cu    0.83333   0.25000   0.79822   0.00000  Uiso   1.00
Cu510  Cu    0.83333   0.25001   0.70179   0.00000  Uiso   1.00
C511   C     0.67929   0.24992   0.73068   0.00000  Uiso   1.00
C512   C     0.98739   0.25002   0.76932   0.00000  Uiso   1.00
H513   H     0.99264   0.24980   0.69361   0.00000  Uiso   1.00
H514   H     0.67406   0.25011   0.80638   0.00000  Uiso   1.00
C515   C     0.84908   0.04771   0.79331   0.00000  Uiso   1.00
C516   C     0.84908   0.45238   0.71096   0.00000  Uiso   1.00
H517   H     0.86229   0.03058   0.82698   0.00000  Uiso   1.00
H518   H     0.86215   0.46959   0.68072   0.00000  Uiso   1.00
C519   C     0.84871   0.09361   0.79333   0.00000  Uiso   1.00
C520   C     0.84875   0.40648   0.71080   0.00000  Uiso   1.00
H521   H     0.86114   0.11100   0.82708   0.00000  Uiso   1.00
H522   H     0.86110   0.38916   0.68025   0.00000  Uiso   1.00
C523   C     0.83332   0.11671   0.74999   0.00000  Uiso   1.00
C524   C     0.83346   0.38329   0.75011   0.00000  Uiso   1.00
C525   C     0.81790   0.09342   0.70671   0.00000  Uiso   1.00
C526   C     0.81825   0.40649   0.78948   0.00000  Uiso   1.00
H527   H     0.80543   0.11067   0.67294   0.00000  Uiso   1.00
H528   H     0.80594   0.38917   0.82004   0.00000  Uiso   1.00
C529   C     0.81756   0.04751   0.70682   0.00000  Uiso   1.00
C530   C     0.81787   0.45240   0.78933   0.00000  Uiso   1.00
H531   H     0.80437   0.03022   0.67319   0.00000  Uiso   1.00
H532   H     0.80478   0.46961   0.81957   0.00000  Uiso   1.00
C533   C     0.83335   0.02428   0.75009   0.00000  Uiso   1.00
C534   C     0.83343   0.47572   0.75013   0.00000  Uiso   1.00
C535   C     0.87590   0.26238   0.55875   0.00000  Uiso   1.00
C536   C     0.81467   0.21492   0.94426   0.00000  Uiso   1.00
H537   H     0.91091   0.27120   0.54437   0.00000  Uiso   1.00
H538   H     0.80090   0.18596   0.96140   0.00000  Uiso   1.00
C539   C     0.87610   0.26207   0.60948   0.00000  Uiso   1.00
C540   C     0.81512   0.21468   0.89361   0.00000  Uiso   1.00
H541   H     0.91089   0.27159   0.63276   0.00000  Uiso   1.00
H542   H     0.80078   0.18597   0.87279   0.00000  Uiso   1.00
N543   N     0.83333   0.25001   0.62935   0.00000  Uiso   1.00
N544   N     0.83333   0.24999   0.87066   0.00000  Uiso   1.00
C545   C     0.78950   0.23831   0.59941   0.00000  Uiso   1.00
C546   C     0.85128   0.28622   0.89713   0.00000  Uiso   1.00
H547   H     0.75574   0.22874   0.61519   0.00000  Uiso   1.00
H548   H     0.86569   0.31401   0.87866   0.00000  Uiso   1.00
C549   C     0.78648   0.23993   0.54810   0.00000  Uiso   1.00
C550   C     0.84978   0.28892   0.94785   0.00000  Uiso   1.00
C551   C     0.83086   0.25181   0.52692   0.00000  Uiso   1.00
C552   C     0.83147   0.25228   0.97242   0.00000  Uiso   1.00
N553   N     0.73780   0.23130   0.51870   0.00000  Uiso   1.00
O554   O     0.72298   0.25501   0.98020   0.00000  Uiso   1.00
O555   O     0.70506   0.20406   0.53395   0.00000  Uiso   1.00
N556   N     0.86485   0.32951   0.97288   0.00000  Uiso   1.00
O557   O     0.83891   0.34459   0.50610   0.00000  Uiso   1.00
O558   O     0.89991   0.35455   0.95796   0.00000  Uiso   1.00
O559   O     0.16667   0.68573   0.79072   0.00000  Uiso   1.00
O560   O     0.16666   0.81428   0.70929   0.00000  Uiso   1.00
O561   O     0.16667   0.68573   0.70928   0.00000  Uiso   1.00
O562   O     0.16666   0.81427   0.79072   0.00000  Uiso   1.00
C563   C     0.16665   0.66494   0.74998   0.00000  Uiso   1.00
C564   C     0.16671   0.83506   0.75004   0.00000  Uiso   1.00
O565   O     0.09161   0.75000   0.78132   0.00000  Uiso   1.00
O566   O     0.24172   0.75001   0.71868   0.00000  Uiso   1.00
O567   O     0.09161   0.75000   0.69989   0.00000  Uiso   1.00
O568   O     0.24172   0.75000   0.80012   0.00000  Uiso   1.00
C569   C     0.06789   0.74997   0.73754   0.00000  Uiso   1.00
C570   C     0.26544   0.75001   0.76245   0.00000  Uiso   1.00
Cu571  Cu    0.16667   0.75000   0.79822   0.00000  Uiso   1.00
Cu572  Cu    0.16667   0.75001   0.70179   0.00000  Uiso   1.00
C573   C     0.01262   0.74992   0.73068   0.00000  Uiso   1.00
C574   C     0.32072   0.75002   0.76932   0.00000  Uiso   1.00
H575   H     0.32598   0.74980   0.69361   0.00000  Uiso   1.00
H576   H     0.00739   0.75011   0.80638   0.00000  Uiso   1.00
C577   C     0.18242   0.54771   0.79331   0.00000  Uiso   1.00
C578   C     0.18241   0.95238   0.71096   0.00000  Uiso   1.00
H579   H     0.19562   0.53058   0.82698   0.00000  Uiso   1.00
H580   H     0.19549   0.96959   0.68072   0.00000  Uiso   1.00
C581   C     0.18204   0.59361   0.79333   0.00000  Uiso   1.00
C582   C     0.18208   0.90648   0.71080   0.00000  Uiso   1.00
H583   H     0.19447   0.61100   0.82708   0.00000  Uiso   1.00
H584   H     0.19443   0.88916   0.68025   0.00000  Uiso   1.00
C585   C     0.16665   0.61671   0.74999   0.00000  Uiso   1.00
C586   C     0.16680   0.88329   0.75011   0.00000  Uiso   1.00
C587   C     0.15124   0.59342   0.70671   0.00000  Uiso   1.00
C588   C     0.15158   0.90649   0.78948   0.00000  Uiso   1.00
H589   H     0.13876   0.61067   0.67294   0.00000  Uiso   1.00
H590   H     0.13927   0.88917   0.82004   0.00000  Uiso   1.00
C591   C     0.15090   0.54751   0.70682   0.00000  Uiso   1.00
C592   C     0.15120   0.95240   0.78933   0.00000  Uiso   1.00
H593   H     0.13771   0.53022   0.67319   0.00000  Uiso   1.00
H594   H     0.13812   0.96961   0.81957   0.00000  Uiso   1.00
C595   C     0.16668   0.52428   0.75009   0.00000  Uiso   1.00
C596   C     0.16676   0.97572   0.75013   0.00000  Uiso   1.00
C597   C     0.20923   0.76238   0.55875   0.00000  Uiso   1.00
C598   C     0.14801   0.71492   0.94426   0.00000  Uiso   1.00
H599   H     0.24424   0.77120   0.54437   0.00000  Uiso   1.00
H600   H     0.13423   0.68596   0.96140   0.00000  Uiso   1.00
C601   C     0.20944   0.76207   0.60948   0.00000  Uiso   1.00
C602   C     0.14845   0.71468   0.89361   0.00000  Uiso   1.00
H603   H     0.24422   0.77159   0.63276   0.00000  Uiso   1.00
H604   H     0.13411   0.68597   0.87279   0.00000  Uiso   1.00
N605   N     0.16667   0.75001   0.62935   0.00000  Uiso   1.00
N606   N     0.16667   0.74999   0.87066   0.00000  Uiso   1.00
C607   C     0.12283   0.73831   0.59941   0.00000  Uiso   1.00
C608   C     0.18461   0.78622   0.89713   0.00000  Uiso   1.00
H609   H     0.08907   0.72874   0.61519   0.00000  Uiso   1.00
H610   H     0.19902   0.81401   0.87866   0.00000  Uiso   1.00
C611   C     0.11982   0.73993   0.54810   0.00000  Uiso   1.00
C612   C     0.18312   0.78892   0.94785   0.00000  Uiso   1.00
C613   C     0.16419   0.75181   0.52692   0.00000  Uiso   1.00
C614   C     0.16481   0.75228   0.97242   0.00000  Uiso   1.00
N615   N     0.07113   0.73130   0.51870   0.00000  Uiso   1.00
O616   O     0.05631   0.75501   0.98020   0.00000  Uiso   1.00
O617   O     0.03840   0.70406   0.53395   0.00000  Uiso   1.00
N618   N     0.19819   0.82951   0.97288   0.00000  Uiso   1.00
O619   O     0.17224   0.84459   0.50610   0.00000  Uiso   1.00
O620   O     0.23324   0.85455   0.95796   0.00000  Uiso   1.00
O621   O     0.50000   0.68573   0.79072   0.00000  Uiso   1.00
O622   O     0.50000   0.81428   0.70929   0.00000  Uiso   1.00
O623   O     0.50000   0.68573   0.70928   0.00000  Uiso   1.00
O624   O     0.50000   0.81427   0.79072   0.00000  Uiso   1.00
C625   C     0.49998   0.66494   0.74998   0.00000  Uiso   1.00
C626   C     0.50005   0.83506   0.75004   0.00000  Uiso   1.00
O627   O     0.42495   0.75000   0.78132   0.00000  Uiso   1.00
O628   O     0.57505   0.75001   0.71868   0.00000  Uiso   1.00
O629   O     0.42495   0.75000   0.69989   0.00000  Uiso   1.00
O630   O     0.57505   0.75000   0.80012   0.00000  Uiso   1.00
C631   C     0.40123   0.74997   0.73754   0.00000  Uiso   1.00
C632   C     0.59878   0.75001   0.76245   0.00000  Uiso   1.00
Cu633  Cu    0.50000   0.75000   0.79822   0.00000  Uiso   1.00
Cu634  Cu    0.50000   0.75001   0.70179   0.00000  Uiso   1.00
C635   C     0.34596   0.74992   0.73068   0.00000  Uiso   1.00
C636   C     0.65405   0.75002   0.76932   0.00000  Uiso   1.00
H637   H     0.65931   0.74980   0.69361   0.00000  Uiso   1.00
H638   H     0.34073   0.75011   0.80638   0.00000  Uiso   1.00
C639   C     0.51575   0.54771   0.79331   0.00000  Uiso   1.00
C640   C     0.51575   0.95238   0.71096   0.00000  Uiso   1.00
H641   H     0.52895   0.53058   0.82698   0.00000  Uiso   1.00
H642   H     0.52882   0.96959   0.68072   0.00000  Uiso   1.00
C643   C     0.51537   0.59361   0.79333   0.00000  Uiso   1.00
C644   C     0.51541   0.90648   0.71080   0.00000  Uiso   1.00
H645   H     0.52781   0.61100   0.82708   0.00000  Uiso   1.00
H646   H     0.52777   0.88916   0.68025   0.00000  Uiso   1.00
C647   C     0.49998   0.61671   0.74999   0.00000  Uiso   1.00
C648   C     0.50013   0.88329   0.75011   0.00000  Uiso   1.00
C649   C     0.48457   0.59342   0.70671   0.00000  Uiso   1.00
C650   C     0.48491   0.90649   0.78948   0.00000  Uiso   1.00
H651   H     0.47209   0.61067   0.67294   0.00000  Uiso   1.00
H652   H     0.47261   0.88917   0.82004   0.00000  Uiso   1.00
C653   C     0.48423   0.54751   0.70682   0.00000  Uiso   1.00
C654   C     0.48453   0.95240   0.78933   0.00000  Uiso   1.00
H655   H     0.47104   0.53022   0.67319   0.00000  Uiso   1.00
H656   H     0.47145   0.96961   0.81957   0.00000  Uiso   1.00
C657   C     0.50001   0.52428   0.75009   0.00000  Uiso   1.00
C658   C     0.50009   0.97572   0.75013   0.00000  Uiso   1.00
C659   C     0.54256   0.76238   0.55875   0.00000  Uiso   1.00
C660   C     0.48134   0.71492   0.94426   0.00000  Uiso   1.00
H661   H     0.57758   0.77120   0.54437   0.00000  Uiso   1.00
H662   H     0.46757   0.68596   0.96140   0.00000  Uiso   1.00
C663   C     0.54277   0.76207   0.60948   0.00000  Uiso   1.00
C664   C     0.48178   0.71468   0.89361   0.00000  Uiso   1.00
H665   H     0.57755   0.77159   0.63276   0.00000  Uiso   1.00
H666   H     0.46744   0.68597   0.87279   0.00000  Uiso   1.00
N667   N     0.50000   0.75001   0.62935   0.00000  Uiso   1.00
N668   N     0.50000   0.74999   0.87066   0.00000  Uiso   1.00
C669   C     0.45616   0.73831   0.59941   0.00000  Uiso   1.00
C670   C     0.51794   0.78622   0.89713   0.00000  Uiso   1.00
H671   H     0.42241   0.72874   0.61519   0.00000  Uiso   1.00
H672   H     0.53235   0.81401   0.87866   0.00000  Uiso   1.00
C673   C     0.45315   0.73993   0.54810   0.00000  Uiso   1.00
C674   C     0.51645   0.78892   0.94785   0.00000  Uiso   1.00
C675   C     0.49753   0.75181   0.52692   0.00000  Uiso   1.00
C676   C     0.49814   0.75228   0.97242   0.00000  Uiso   1.00
N677   N     0.40446   0.73130   0.51870   0.00000  Uiso   1.00
O678   O     0.38965   0.75501   0.98020   0.00000  Uiso   1.00
O679   O     0.37173   0.70406   0.53395   0.00000  Uiso   1.00
N680   N     0.53152   0.82951   0.97288   0.00000  Uiso   1.00
O681   O     0.50558   0.84459   0.50610   0.00000  Uiso   1.00
O682   O     0.56658   0.85455   0.95796   0.00000  Uiso   1.00
O683   O     0.83334   0.68573   0.79072   0.00000  Uiso   1.00
O684   O     0.83333   0.81428   0.70929   0.00000  Uiso   1.00
O685   O     0.83334   0.68573   0.70928   0.00000  Uiso   1.00
O686   O     0.83333   0.81427   0.79072   0.00000  Uiso   1.00
C687   C     0.83332   0.66494   0.74998   0.00000  Uiso   1.00
C688   C     0.83338   0.83506   0.75004   0.00000  Uiso   1.00
O689   O     0.75828   0.75000   0.78132   0.00000  Uiso   1.00
O690   O     0.90839   0.75001   0.71868   0.00000  Uiso   1.00
O691   O     0.75828   0.75000   0.69989   0.00000  Uiso   1.00
O692   O     0.90839   0.75000   0.80012   0.00000  Uiso   1.00
C693   C     0.73456   0.74997   0.73754   0.00000  Uiso   1.00
C694   C     0.93211   0.75001   0.76245   0.00000  Uiso   1.00
Cu695  Cu    0.83333   0.75000   0.79822   0.00000  Uiso   1.00
Cu696  Cu    0.83333   0.75001   0.70179   0.00000  Uiso   1.00
C697   C     0.67929   0.74992   0.73068   0.00000  Uiso   1.00
C698   C     0.98739   0.75002   0.76932   0.00000  Uiso   1.00
H699   H     0.99264   0.74980   0.69361   0.00000  Uiso   1.00
H700   H     0.67406   0.75011   0.80638   0.00000  Uiso   1.00
C701   C     0.84908   0.54771   0.79331   0.00000  Uiso   1.00
C702   C     0.84908   0.95238   0.71096   0.00000  Uiso   1.00
H703   H     0.86229   0.53058   0.82698   0.00000  Uiso   1.00
H704   H     0.86215   0.96959   0.68072   0.00000  Uiso   1.00
C705   C     0.84871   0.59361   0.79333   0.00000  Uiso   1.00
C706   C     0.84875   0.90648   0.71080   0.00000  Uiso   1.00
H707   H     0.86114   0.61100   0.82708   0.00000  Uiso   1.00
H708   H     0.86110   0.88916   0.68025   0.00000  Uiso   1.00
C709   C     0.83332   0.61671   0.74999   0.00000  Uiso   1.00
C710   C     0.83346   0.88329   0.75011   0.00000  Uiso   1.00
C711   C     0.81790   0.59342   0.70671   0.00000  Uiso   1.00
C712   C     0.81825   0.90649   0.78948   0.00000  Uiso   1.00
H713   H     0.80543   0.61067   0.67294   0.00000  Uiso   1.00
H714   H     0.80594   0.88917   0.82004   0.00000  Uiso   1.00
C715   C     0.81756   0.54751   0.70682   0.00000  Uiso   1.00
C716   C     0.81787   0.95240   0.78933   0.00000  Uiso   1.00
H717   H     0.80437   0.53022   0.67319   0.00000  Uiso   1.00
H718   H     0.80478   0.96961   0.81957   0.00000  Uiso   1.00
C719   C     0.83335   0.52428   0.75009   0.00000  Uiso   1.00
C720   C     0.83343   0.97572   0.75013   0.00000  Uiso   1.00
C721   C     0.87590   0.76238   0.55875   0.00000  Uiso   1.00
C722   C     0.81467   0.71492   0.94426   0.00000  Uiso   1.00
H723   H     0.91091   0.77120   0.54437   0.00000  Uiso   1.00
H724   H     0.80090   0.68596   0.96140   0.00000  Uiso   1.00
C725   C     0.87610   0.76207   0.60948   0.00000  Uiso   1.00
C726   C     0.81512   0.71468   0.89361   0.00000  Uiso   1.00
H727   H     0.91089   0.77159   0.63276   0.00000  Uiso   1.00
H728   H     0.80078   0.68597   0.87279   0.00000  Uiso   1.00
N729   N     0.83333   0.75001   0.62935   0.00000  Uiso   1.00
N730   N     0.83333   0.74999   0.87066   0.00000  Uiso   1.00
C731   C     0.78950   0.73831   0.59941   0.00000  Uiso   1.00
C732   C     0.85128   0.78622   0.89713   0.00000  Uiso   1.00
H733   H     0.75574   0.72874   0.61519   0.00000  Uiso   1.00
H734   H     0.86569   0.81401   0.87866   0.00000  Uiso   1.00
C735   C     0.78648   0.73993   0.54810   0.00000  Uiso   1.00
C736   C     0.84978   0.78892   0.94785   0.00000  Uiso   1.00
C737   C     0.83086   0.75181   0.52692   0.00000  Uiso   1.00
C738   C     0.83147   0.75228   0.97242   0.00000  Uiso   1.00
N739   N     0.73780   0.73130   0.51870   0.00000  Uiso   1.00
O740   O     0.72298   0.75501   0.98020   0.00000  Uiso   1.00
O741   O     0.70506   0.70406   0.53395   0.00000  Uiso   1.00
N742   N     0.86485   0.82951   0.97288   0.00000  Uiso   1.00
O743   O     0.83891   0.84459   0.50610   0.00000  Uiso   1.00
O744   O     0.89991   0.85455   0.95796   0.00000  Uiso   1.00
loop_
_geom_bond_atom_site_label_1
_geom_bond_atom_site_label_2
_geom_bond_distance
_geom_bond_site_symmetry_2
_ccdc_geom_bond_type
O1     C5      1.293   .     A
O1     Cu13    1.957   .     S
O2     C6      1.293   .     A
O2     Cu14    1.957   .     S
O3     Cu14    1.957   .     S
O3     C5      1.293   .     A
O4     C6      1.293   .     A
O4     Cu13    1.957   .     S
C5     C27     1.460   .     S
C6     C28     1.460   .     S
O7     Cu13    1.957   .     S
O7     C11     1.285   .     A
O8     C12     1.285   .     A
O8     Cu14    1.957   .     S
O9     Cu14    1.960   .     S
O9     C11     1.287   .     A
O10    C12     1.288   .     A
O10    Cu13    1.960   .     S
C11    C15     1.434   .     S
C12    C16     1.434   .     S
Cu13   N48     2.009   .     S
Cu13   Cu14    2.675   .     S
Cu14   N47     2.009   .     S
C15    C140    1.335   1_455 S
C15    H141    1.087   1_455 S
C16    C77     1.335   .     S
C16    H80     1.087   .     S
H17    C77     1.087   .     S
H18    C140    1.087   1_455 S
C19    H21     1.083   .     S
C19    C23     1.390   .     A
C19    C37     1.404   .     A
C20    C38     1.404   .     A
C20    H22     1.083   .     S
C20    C24     1.390   .     A
C23    C27     1.402   .     A
C23    H25     1.083   .     S
C24    C28     1.402   .     A
C24    H26     1.083   .     S
C27    C29     1.402   .     A
C28    C30     1.402   .     A
C29    H31     1.083   .     S
C29    C33     1.390   .     A
C30    H32     1.083   .     S
C30    C34     1.390   .     A
C33    H35     1.083   .     S
C33    C37     1.404   .     A
C34    H36     1.083   .     S
C34    C38     1.404   .     A
C37    C224    1.470   1_545 S
C38    C223    1.470   .     S
C39    C43     1.407   .     A
C39    H41     1.083   .     S
C39    C55     1.408   .     A
C40    C44     1.407   .     A
C40    H42     1.083   .     S
C40    C56     1.409   .     A
C43    H45     1.080   .     S
C43    N47     1.365   .     A
C44    H46     1.081   .     S
C44    N48     1.364   .     A
N47    C49     1.366   .     A
N48    C50     1.365   .     A
C49    C53     1.415   .     A
C49    H51     1.079   .     S
C50    H52     1.080   .     S
C50    C54     1.415   .     A
C53    C55     1.420   .     A
C53    N57     1.439   .     S
C54    C56     1.420   .     A
C54    N60     1.438   .     S
C55    C428    1.514   1_554 S
C56    C427    1.514   .     S
N57    O59     1.301   .     A
N57    O430    1.301   1_554 S
O58    N429    1.301   .     S
N60    O62     1.301   .     A
N60    O433    1.301   .     S
O61    N432    1.301   1_554 S
O63    C67     1.293   .     A
O63    Cu75    1.957   .     S
O64    C68     1.293   .     A
O64    Cu76    1.957   .     S
O65    Cu76    1.957   .     S
O65    C67     1.293   .     A
O66    C68     1.293   .     A
O66    Cu75    1.957   .     S
C67    C89     1.460   .     S
C68    C90     1.460   .     S
O69    Cu75    1.957   .     S
O69    C73     1.285   .     A
O70    C74     1.285   .     A
O70    Cu76    1.957   .     S
O71    Cu76    1.960   .     S
O71    C73     1.287   .     A
O72    C74     1.288   .     A
O72    Cu75    1.960   .     S
C73    C77     1.434   .     S
C74    C78     1.434   .     S
Cu75   N110    2.009   .     S
Cu75   Cu76    2.675   .     S
Cu76   N109    2.009   .     S
C78    C139    1.335   .     S
C78    H142    1.087   .     S
H79    C139    1.087   .     S
C81    H83     1.083   .     S
C81    C85     1.390   .     A
C81    C99     1.404   .     A
C82    C100    1.404   .     A
C82    H84     1.083   .     S
C82    C86     1.390   .     A
C85    C89     1.402   .     A
C85    H87     1.083   .     S
C86    C90     1.402   .     A
C86    H88     1.083   .     S
C89    C91     1.402   .     A
C90    C92     1.402   .     A
C91    H93     1.083   .     S
C91    C95     1.390   .     A
C92    H94     1.083   .     S
C92    C96     1.390   .     A
C95    H97     1.083   .     S
C95    C99     1.404   .     A
C96    H98     1.083   .     S
C96    C100    1.404   .     A
C99    C286    1.470   1_545 S
C100   C285    1.470   .     S
C101   C105    1.407   .     A
C101   H103    1.083   .     S
C101   C117    1.408   .     A
C102   C106    1.407   .     A
C102   H104    1.083   .     S
C102   C118    1.409   .     A
C105   H107    1.080   .     S
C105   N109    1.365   .     A
C106   H108    1.081   .     S
C106   N110    1.364   .     A
N109   C111    1.366   .     A
N110   C112    1.365   .     A
C111   C115    1.415   .     A
C111   H113    1.079   .     S
C112   H114    1.080   .     S
C112   C116    1.415   .     A
C115   C117    1.420   .     A
C115   N119    1.439   .     S
C116   C118    1.420   .     A
C116   N122    1.438   .     S
C117   C490    1.514   1_554 S
C118   C489    1.514   .     S
N119   O121    1.301   .     A
N119   O492    1.301   1_554 S
O120   N491    1.301   .     S
N122   O124    1.301   .     A
N122   O495    1.301   .     S
O123   N494    1.301   1_554 S
O125   C129    1.293   .     A
O125   Cu137   1.957   .     S
O126   C130    1.293   .     A
O126   Cu138   1.957   .     S
O127   Cu138   1.957   .     S
O127   C129    1.293   .     A
O128   C130    1.293   .     A
O128   Cu137   1.957   .     S
C129   C151    1.460   .     S
C130   C152    1.460   .     S
O131   Cu137   1.957   .     S
O131   C135    1.285   .     A
O132   C136    1.285   .     A
O132   Cu138   1.957   .     S
O133   Cu138   1.960   .     S
O133   C135    1.287   .     A
O134   C136    1.288   .     A
O134   Cu137   1.960   .     S
C135   C139    1.434   .     S
C136   C140    1.434   .     S
Cu137  N172    2.009   .     S
Cu137  Cu138   2.675   .     S
Cu138  N171    2.009   .     S
C140   C15     1.335   1_655 S
C140   H18     1.087   1_655 S
H141   C15     1.087   1_655 S
C143   H145    1.083   .     S
C143   C147    1.390   .     A
C143   C161    1.404   .     A
C144   C162    1.404   .     A
C144   H146    1.083   .     S
C144   C148    1.390   .     A
C147   C151    1.402   .     A
C147   H149    1.083   .     S
C148   C152    1.402   .     A
C148   H150    1.083   .     S
C151   C153    1.402   .     A
C152   C154    1.402   .     A
C153   H155    1.083   .     S
C153   C157    1.390   .     A
C154   H156    1.083   .     S
C154   C158    1.390   .     A
C157   H159    1.083   .     S
C157   C161    1.404   .     A
C158   H160    1.083   .     S
C158   C162    1.404   .     A
C161   C348    1.470   1_545 S
C162   C347    1.470   .     S
C163   C167    1.407   .     A
C163   H165    1.083   .     S
C163   C179    1.408   .     A
C164   C168    1.407   .     A
C164   H166    1.083   .     S
C164   C180    1.409   .     A
C167   H169    1.080   .     S
C167   N171    1.365   .     A
C168   H170    1.081   .     S
C168   N172    1.364   .     A
N171   C173    1.366   .     A
N172   C174    1.365   .     A
C173   C177    1.415   .     A
C173   H175    1.079   .     S
C174   H176    1.080   .     S
C174   C178    1.415   .     A
C177   C179    1.420   .     A
C177   N181    1.439   .     S
C178   C180    1.420   .     A
C178   N184    1.438   .     S
C179   C552    1.514   1_554 S
C180   C551    1.514   .     S
N181   O183    1.301   .     A
N181   O554    1.301   1_554 S
O182   N553    1.301   .     S
N184   O186    1.301   .     A
N184   O557    1.301   .     S
O185   N556    1.301   1_554 S
O187   C191    1.293   .     A
O187   Cu199   1.957   .     S
O188   C192    1.293   .     A
O188   Cu200   1.957   .     S
O189   Cu200   1.957   .     S
O189   C191    1.293   .     A
O190   C192    1.293   .     A
O190   Cu199   1.957   .     S
C191   C213    1.460   .     S
C192   C214    1.460   .     S
O193   Cu199   1.957   .     S
O193   C197    1.285   .     A
O194   C198    1.285   .     A
O194   Cu200   1.957   .     S
O195   Cu200   1.960   .     S
O195   C197    1.287   .     A
O196   C198    1.288   .     A
O196   Cu199   1.960   .     S
C197   C201    1.434   .     S
C198   C202    1.434   .     S
Cu199  N234    2.009   .     S
Cu199  Cu200   2.675   .     S
Cu200  N233    2.009   .     S
C201   C326    1.335   1_455 S
C201   H327    1.087   1_455 S
C202   C263    1.335   .     S
C202   H266    1.087   .     S
H203   C263    1.087   .     S
H204   C326    1.087   1_455 S
C205   H207    1.083   .     S
C205   C209    1.390   .     A
C205   C223    1.404   .     A
C206   C224    1.404   .     A
C206   H208    1.083   .     S
C206   C210    1.390   .     A
C209   C213    1.402   .     A
C209   H211    1.083   .     S
C210   C214    1.402   .     A
C210   H212    1.083   .     S
C213   C215    1.402   .     A
C214   C216    1.402   .     A
C215   H217    1.083   .     S
C215   C219    1.390   .     A
C216   H218    1.083   .     S
C216   C220    1.390   .     A
C219   H221    1.083   .     S
C219   C223    1.404   .     A
C220   H222    1.083   .     S
C220   C224    1.404   .     A
C224   C37     1.470   1_565 S
C225   C229    1.407   .     A
C225   H227    1.083   .     S
C225   C241    1.408   .     A
C226   C230    1.407   .     A
C226   H228    1.083   .     S
C226   C242    1.409   .     A
C229   H231    1.080   .     S
C229   N233    1.365   .     A
C230   H232    1.081   .     S
C230   N234    1.364   .     A
N233   C235    1.366   .     A
N234   C236    1.365   .     A
C235   C239    1.415   .     A
C235   H237    1.079   .     S
C236   H238    1.080   .     S
C236   C240    1.415   .     A
C239   C241    1.420   .     A
C239   N243    1.439   .     S
C240   C242    1.420   .     A
C240   N246    1.438   .     S
C241   C614    1.514   1_554 S
C242   C613    1.514   .     S
N243   O245    1.301   .     A
N243   O616    1.301   1_554 S
O244   N615    1.301   .     S
N246   O248    1.301   .     A
N246   O619    1.301   .     S
O247   N618    1.301   1_554 S
O249   C253    1.293   .     A
O249   Cu261   1.957   .     S
O250   C254    1.293   .     A
O250   Cu262   1.957   .     S
O251   Cu262   1.957   .     S
O251   C253    1.293   .     A
O252   C254    1.293   .     A
O252   Cu261   1.957   .     S
C253   C275    1.460   .     S
C254   C276    1.460   .     S
O255   Cu261   1.957   .     S
O255   C259    1.285   .     A
O256   C260    1.285   .     A
O256   Cu262   1.957   .     S
O257   Cu262   1.960   .     S
O257   C259    1.287   .     A
O258   C260    1.288   .     A
O258   Cu261   1.960   .     S
C259   C263    1.434   .     S
C260   C264    1.434   .     S
Cu261  N296    2.009   .     S
Cu261  Cu262   2.675   .     S
Cu262  N295    2.009   .     S
C264   C325    1.335   .     S
C264   H328    1.087   .     S
H265   C325    1.087   .     S
C267   H269    1.083   .     S
C267   C271    1.390   .     A
C267   C285    1.404   .     A
C268   C286    1.404   .     A
C268   H270    1.083   .     S
C268   C272    1.390   .     A
C271   C275    1.402   .     A
C271   H273    1.083   .     S
C272   C276    1.402   .     A
C272   H274    1.083   .     S
C275   C277    1.402   .     A
C276   C278    1.402   .     A
C277   H279    1.083   .     S
C277   C281    1.390   .     A
C278   H280    1.083   .     S
C278   C282    1.390   .     A
C281   H283    1.083   .     S
C281   C285    1.404   .     A
C282   H284    1.083   .     S
C282   C286    1.404   .     A
C286   C99     1.470   1_565 S
C287   C291    1.407   .     A
C287   H289    1.083   .     S
C287   C303    1.408   .     A
C288   C292    1.407   .     A
C288   H290    1.083   .     S
C288   C304    1.409   .     A
C291   H293    1.080   .     S
C291   N295    1.365   .     A
C292   H294    1.081   .     S
C292   N296    1.364   .     A
N295   C297    1.366   .     A
N296   C298    1.365   .     A
C297   C301    1.415   .     A
C297   H299    1.079   .     S
C298   H300    1.080   .     S
C298   C302    1.415   .     A
C301   C303    1.420   .     A
C301   N305    1.439   .     S
C302   C304    1.420   .     A
C302   N308    1.438   .     S
C303   C676    1.514   1_554 S
C304   C675    1.514   .     S
N305   O307    1.301   .     A
N305   O678    1.301   1_554 S
O306   N677    1.301   .     S
N308   O310    1.301   .     A
N308   O681    1.301   .     S
O309   N680    1.301   1_554 S
O311   C315    1.293   .     A
O311   Cu323   1.957   .     S
O312   C316    1.293   .     A
O312   Cu324   1.957   .     S
O313   Cu324   1.957   .     S
O313   C315    1.293   .     A
O314   C316    1.293   .     A
O314   Cu323   1.957   .     S
C315   C337    1.460   .     S
C316   C338    1.460   .     S
O317   Cu323   1.957   .     S
O317   C321    1.285   .     A
O318   C322    1.285   .     A
O318   Cu324   1.957   .     S
O319   Cu324   1.960   .     S
O319   C321    1.287   .     A
O320   C322    1.288   .     A
O320   Cu323   1.960   .     S
C321   C325    1.434   .     S
C322   C326    1.434   .     S
Cu323  N358    2.009   .     S
Cu323  Cu324   2.675   .     S
Cu324  N357    2.009   .     S
C326   C201    1.335   1_655 S
C326   H204    1.087   1_655 S
H327   C201    1.087   1_655 S
C329   H331    1.083   .     S
C329   C333    1.390   .     A
C329   C347    1.404   .     A
C330   C348    1.404   .     A
C330   H332    1.083   .     S
C330   C334    1.390   .     A
C333   C337    1.402   .     A
C333   H335    1.083   .     S
C334   C338    1.402   .     A
C334   H336    1.083   .     S
C337   C339    1.402   .     A
C338   C340    1.402   .     A
C339   H341    1.083   .     S
C339   C343    1.390   .     A
C340   H342    1.083   .     S
C340   C344    1.390   .     A
C343   H345    1.083   .     S
C343   C347    1.404   .     A
C344   H346    1.083   .     S
C344   C348    1.404   .     A
C348   C161    1.470   1_565 S
C349   C353    1.407   .     A
C349   H351    1.083   .     S
C349   C365    1.408   .     A
C350   C354    1.407   .     A
C350   H352    1.083   .     S
C350   C366    1.409   .     A
C353   H355    1.080   .     S
C353   N357    1.365   .     A
C354   H356    1.081   .     S
C354   N358    1.364   .     A
N357   C359    1.366   .     A
N358   C360    1.365   .     A
C359   C363    1.415   .     A
C359   H361    1.079   .     S
C360   H362    1.080   .     S
C360   C364    1.415   .     A
C363   C365    1.420   .     A
C363   N367    1.439   .     S
C364   C366    1.420   .     A
C364   N370    1.438   .     S
C365   C738    1.514   1_554 S
C366   C737    1.514   .     S
N367   O369    1.301   .     A
N367   O740    1.301   1_554 S
O368   N739    1.301   .     S
N370   O372    1.301   .     A
N370   O743    1.301   .     S
O371   N742    1.301   1_554 S
O373   C377    1.293   .     A
O373   Cu385   1.957   .     S
O374   C378    1.293   .     A
O374   Cu386   1.957   .     S
O375   Cu386   1.957   .     S
O375   C377    1.293   .     A
O376   C378    1.293   .     A
O376   Cu385   1.957   .     S
C377   C399    1.460   .     S
C378   C400    1.460   .     S
O379   Cu385   1.957   .     S
O379   C383    1.285   .     A
O380   C384    1.285   .     A
O380   Cu386   1.957   .     S
O381   Cu386   1.960   .     S
O381   C383    1.287   .     A
O382   C384    1.288   .     A
O382   Cu385   1.960   .     S
C383   C387    1.434   .     S
C384   C388    1.434   .     S
Cu385  N420    2.009   .     S
Cu385  Cu386   2.675   .     S
Cu386  N419    2.009   .     S
C387   C512    1.335   1_455 S
C387   H513    1.087   1_455 S
C388   C449    1.335   .     S
C388   H452    1.087   .     S
H389   C449    1.087   .     S
H390   C512    1.087   1_455 S
C391   H393    1.083   .     S
C391   C395    1.390   .     A
C391   C409    1.404   .     A
C392   C410    1.404   .     A
C392   H394    1.083   .     S
C392   C396    1.390   .     A
C395   C399    1.402   .     A
C395   H397    1.083   .     S
C396   C400    1.402   .     A
C396   H398    1.083   .     S
C399   C401    1.402   .     A
C400   C402    1.402   .     A
C401   H403    1.083   .     S
C401   C405    1.390   .     A
C402   H404    1.083   .     S
C402   C406    1.390   .     A
C405   H407    1.083   .     S
C405   C409    1.404   .     A
C406   H408    1.083   .     S
C406   C410    1.404   .     A
C409   C596    1.470   1_545 S
C410   C595    1.470   .     S
C411   C415    1.407   .     A
C411   H413    1.083   .     S
C411   C427    1.408   .     A
C412   C416    1.407   .     A
C412   H414    1.083   .     S
C412   C428    1.409   .     A
C415   H417    1.080   .     S
C415   N419    1.365   .     A
C416   H418    1.081   .     S
C416   N420    1.364   .     A
N419   C421    1.366   .     A
N420   C422    1.365   .     A
C421   C425    1.415   .     A
C421   H423    1.079   .     S
C422   H424    1.080   .     S
C422   C426    1.415   .     A
C425   C427    1.420   .     A
C425   N429    1.439   .     S
C426   C428    1.420   .     A
C426   N432    1.438   .     S
C428   C55     1.514   1_556 S
N429   O431    1.301   .     A
O430   N57     1.301   1_556 S
N432   O434    1.301   .     A
N432   O61     1.301   1_556 S
O435   C439    1.293   .     A
O435   Cu447   1.957   .     S
O436   C440    1.293   .     A
O436   Cu448   1.957   .     S
O437   Cu448   1.957   .     S
O437   C439    1.293   .     A
O438   C440    1.293   .     A
O438   Cu447   1.957   .     S
C439   C461    1.460   .     S
C440   C462    1.460   .     S
O441   Cu447   1.957   .     S
O441   C445    1.285   .     A
O442   C446    1.285   .     A
O442   Cu448   1.957   .     S
O443   Cu448   1.960   .     S
O443   C445    1.287   .     A
O444   C446    1.288   .     A
O444   Cu447   1.960   .     S
C445   C449    1.434   .     S
C446   C450    1.434   .     S
Cu447  N482    2.009   .     S
Cu447  Cu448   2.675   .     S
Cu448  N481    2.009   .     S
C450   C511    1.335   .     S
C450   H514    1.087   .     S
H451   C511    1.087   .     S
C453   H455    1.083   .     S
C453   C457    1.390   .     A
C453   C471    1.404   .     A
C454   C472    1.404   .     A
C454   H456    1.083   .     S
C454   C458    1.390   .     A
C457   C461    1.402   .     A
C457   H459    1.083   .     S
C458   C462    1.402   .     A
C458   H460    1.083   .     S
C461   C463    1.402   .     A
C462   C464    1.402   .     A
C463   H465    1.083   .     S
C463   C467    1.390   .     A
C464   H466    1.083   .     S
C464   C468    1.390   .     A
C467   H469    1.083   .     S
C467   C471    1.404   .     A
C468   H470    1.083   .     S
C468   C472    1.404   .     A
C471   C658    1.470   1_545 S
C472   C657    1.470   .     S
C473   C477    1.407   .     A
C473   H475    1.083   .     S
C473   C489    1.408   .     A
C474   C478    1.407   .     A
C474   H476    1.083   .     S
C474   C490    1.409   .     A
C477   H479    1.080   .     S
C477   N481    1.365   .     A
C478   H480    1.081   .     S
C478   N482    1.364   .     A
N481   C483    1.366   .     A
N482   C484    1.365   .     A
C483   C487    1.415   .     A
C483   H485    1.079   .     S
C484   H486    1.080   .     S
C484   C488    1.415   .     A
C487   C489    1.420   .     A
C487   N491    1.439   .     S
C488   C490    1.420   .     A
C488   N494    1.438   .     S
C490   C117    1.514   1_556 S
N491   O493    1.301   .     A
O492   N119    1.301   1_556 S
N494   O496    1.301   .     A
N494   O123    1.301   1_556 S
O497   C501    1.293   .     A
O497   Cu509   1.957   .     S
O498   C502    1.293   .     A
O498   Cu510   1.957   .     S
O499   Cu510   1.957   .     S
O499   C501    1.293   .     A
O500   C502    1.293   .     A
O500   Cu509   1.957   .     S
C501   C523    1.460   .     S
C502   C524    1.460   .     S
O503   Cu509   1.957   .     S
O503   C507    1.285   .     A
O504   C508    1.285   .     A
O504   Cu510   1.957   .     S
O505   Cu510   1.960   .     S
O505   C507    1.287   .     A
O506   C508    1.288   .     A
O506   Cu509   1.960   .     S
C507   C511    1.434   .     S
C508   C512    1.434   .     S
Cu509  N544    2.009   .     S
Cu509  Cu510   2.675   .     S
Cu510  N543    2.009   .     S
C512   C387    1.335   1_655 S
C512   H390    1.087   1_655 S
H513   C387    1.087   1_655 S
C515   H517    1.083   .     S
C515   C519    1.390   .     A
C515   C533    1.404   .     A
C516   C534    1.404   .     A
C516   H518    1.083   .     S
C516   C520    1.390   .     A
C519   C523    1.402   .     A
C519   H521    1.083   .     S
C520   C524    1.402   .     A
C520   H522    1.083   .     S
C523   C525    1.402   .     A
C524   C526    1.402   .     A
C525   H527    1.083   .     S
C525   C529    1.390   .     A
C526   H528    1.083   .     S
C526   C530    1.390   .     A
C529   H531    1.083   .     S
C529   C533    1.404   .     A
C530   H532    1.083   .     S
C530   C534    1.404   .     A
C533   C720    1.470   1_545 S
C534   C719    1.470   .     S
C535   C539    1.407   .     A
C535   H537    1.083   .     S
C535   C551    1.408   .     A
C536   C540    1.407   .     A
C536   H538    1.083   .     S
C536   C552    1.409   .     A
C539   H541    1.080   .     S
C539   N543    1.365   .     A
C540   H542    1.081   .     S
C540   N544    1.364   .     A
N543   C545    1.366   .     A
N544   C546    1.365   .     A
C545   C549    1.415   .     A
C545   H547    1.079   .     S
C546   H548    1.080   .     S
C546   C550    1.415   .     A
C549   C551    1.420   .     A
C549   N553    1.439   .     S
C550   C552    1.420   .     A
C550   N556    1.438   .     S
C552   C179    1.514   1_556 S
N553   O555    1.301   .     A
O554   N181    1.301   1_556 S
N556   O558    1.301   .     A
N556   O185    1.301   1_556 S
O559   C563    1.293   .     A
O559   Cu571   1.957   .     S
O560   C564    1.293   .     A
O560   Cu572   1.957   .     S
O561   Cu572   1.957   .     S
O561   C563    1.293   .     A
O562   C564    1.293   .     A
O562   Cu571   1.957   .     S
C563   C585    1.460   .     S
C564   C586    1.460   .     S
O565   Cu571   1.957   .     S
O565   C569    1.285   .     A
O566   C570    1.285   .     A
O566   Cu572   1.957   .     S
O567   Cu572   1.960   .     S
O567   C569    1.287   .     A
O568   C570    1.288   .     A
O568   Cu571   1.960   .     S
C569   C573    1.434   .     S
C570   C574    1.434   .     S
Cu571  N606    2.009   .     S
Cu571  Cu572   2.675   .     S
Cu572  N605    2.009   .     S
C573   C698    1.335   1_455 S
C573   H699    1.087   1_455 S
C574   C635    1.335   .     S
C574   H638    1.087   .     S
H575   C635    1.087   .     S
H576   C698    1.087   1_455 S
C577   H579    1.083   .     S
C577   C581    1.390   .     A
C577   C595    1.404   .     A
C578   C596    1.404   .     A
C578   H580    1.083   .     S
C578   C582    1.390   .     A
C581   C585    1.402   .     A
C581   H583    1.083   .     S
C582   C586    1.402   .     A
C582   H584    1.083   .     S
C585   C587    1.402   .     A
C586   C588    1.402   .     A
C587   H589    1.083   .     S
C587   C591    1.390   .     A
C588   H590    1.083   .     S
C588   C592    1.390   .     A
C591   H593    1.083   .     S
C591   C595    1.404   .     A
C592   H594    1.083   .     S
C592   C596    1.404   .     A
C596   C409    1.470   1_565 S
C597   C601    1.407   .     A
C597   H599    1.083   .     S
C597   C613    1.408   .     A
C598   C602    1.407   .     A
C598   H600    1.083   .     S
C598   C614    1.409   .     A
C601   H603    1.080   .     S
C601   N605    1.365   .     A
C602   H604    1.081   .     S
C602   N606    1.364   .     A
N605   C607    1.366   .     A
N606   C608    1.365   .     A
C607   C611    1.415   .     A
C607   H609    1.079   .     S
C608   H610    1.080   .     S
C608   C612    1.415   .     A
C611   C613    1.420   .     A
C611   N615    1.439   .     S
C612   C614    1.420   .     A
C612   N618    1.438   .     S
C614   C241    1.514   1_556 S
N615   O617    1.301   .     A
O616   N243    1.301   1_556 S
N618   O620    1.301   .     A
N618   O247    1.301   1_556 S
O621   C625    1.293   .     A
O621   Cu633   1.957   .     S
O622   C626    1.293   .     A
O622   Cu634   1.957   .     S
O623   Cu634   1.957   .     S
O623   C625    1.293   .     A
O624   C626    1.293   .     A
O624   Cu633   1.957   .     S
C625   C647    1.460   .     S
C626   C648    1.460   .     S
O627   Cu633   1.957   .     S
O627   C631    1.285   .     A
O628   C632    1.285   .     A
O628   Cu634   1.957   .     S
O629   Cu634   1.960   .     S
O629   C631    1.287   .     A
O630   C632    1.288   .     A
O630   Cu633   1.960   .     S
C631   C635    1.434   .     S
C632   C636    1.434   .     S
Cu633  N668    2.009   .     S
Cu633  Cu634   2.675   .     S
Cu634  N667    2.009   .     S
C636   C697    1.335   .     S
C636   H700    1.087   .     S
H637   C697    1.087   .     S
C639   H641    1.083   .     S
C639   C643    1.390   .     A
C639   C657    1.404   .     A
C640   C658    1.404   .     A
C640   H642    1.083   .     S
C640   C644    1.390   .     A
C643   C647    1.402   .     A
C643   H645    1.083   .     S
C644   C648    1.402   .     A
C644   H646    1.083   .     S
C647   C649    1.402   .     A
C648   C650    1.402   .     A
C649   H651    1.083   .     S
C649   C653    1.390   .     A
C650   H652    1.083   .     S
C650   C654    1.390   .     A
C653   H655    1.083   .     S
C653   C657    1.404   .     A
C654   H656    1.083   .     S
C654   C658    1.404   .     A
C658   C471    1.470   1_565 S
C659   C663    1.407   .     A
C659   H661    1.083   .     S
C659   C675    1.408   .     A
C660   C664    1.407   .     A
C660   H662    1.083   .     S
C660   C676    1.409   .     A
C663   H665    1.080   .     S
C663   N667    1.365   .     A
C664   H666    1.081   .     S
C664   N668    1.364   .     A
N667   C669    1.366   .     A
N668   C670    1.365   .     A
C669   C673    1.415   .     A
C669   H671    1.079   .     S
C670   H672    1.080   .     S
C670   C674    1.415   .     A
C673   C675    1.420   .     A
C673   N677    1.439   .     S
C674   C676    1.420   .     A
C674   N680    1.438   .     S
C676   C303    1.514   1_556 S
N677   O679    1.301   .     A
O678   N305    1.301   1_556 S
N680   O682    1.301   .     A
N680   O309    1.301   1_556 S
O683   C687    1.293   .     A
O683   Cu695   1.957   .     S
O684   C688    1.293   .     A
O684   Cu696   1.957   .     S
O685   Cu696   1.957   .     S
O685   C687    1.293   .     A
O686   C688    1.293   .     A
O686   Cu695   1.957   .     S
C687   C709    1.460   .     S
C688   C710    1.460   .     S
O689   Cu695   1.957   .     S
O689   C693    1.285   .     A
O690   C694    1.285   .     A
O690   Cu696   1.957   .     S
O691   Cu696   1.960   .     S
O691   C693    1.287   .     A
O692   C694    1.288   .     A
O692   Cu695   1.960   .     S
C693   C697    1.434   .     S
C694   C698    1.434   .     S
Cu695  N730    2.009   .     S
Cu695  Cu696   2.675   .     S
Cu696  N729    2.009   .     S
C698   C573    1.335   1_655 S
C698   H576    1.087   1_655 S
H699   C573    1.087   1_655 S
C701   H703    1.083   .     S
C701   C705    1.390   .     A
C701   C719    1.404   .     A
C702   C720    1.404   .     A
C702   H704    1.083   .     S
C702   C706    1.390   .     A
C705   C709    1.402   .     A
C705   H707    1.083   .     S
C706   C710    1.402   .     A
C706   H708    1.083   .     S
C709   C711    1.402   .     A
C710   C712    1.402   .     A
C711   H713    1.083   .     S
C711   C715    1.390   .     A
C712   H714    1.083   .     S
C712   C716    1.390   .     A
C715   H717    1.083   .     S
C715   C719    1.404   .     A
C716   H718    1.083   .     S
C716   C720    1.404   .     A
C720   C533    1.470   1_565 S
C721   C725    1.407   .     A
C721   H723    1.083   .     S
C721   C737    1.408   .     A
C722   C726    1.407   .     A
C722   H724    1.083   .     S
C722   C738    1.409   .     A
C725   H727    1.080   .     S
C725   N729    1.365   .     A
C726   H728    1.081   .     S
C726   N730    1.364   .     A
N729   C731    1.366   .     A
N730   C732    1.365   .     A
C731   C735    1.415   .     A
C731   H733    1.079   .     S
C732   H734    1.080   .     S
C732   C736    1.415   .     A
C735   C737    1.420   .     A
C735   N739    1.439   .     S
C736   C738    1.420   .     A
C736   N742    1.438   .     S
C738   C365    1.514   1_556 S
N739   O741    1.301   .     A
O740   N367    1.301   1_556 S
N742   O744    1.301   .     A
N742   O371    1.301   1_556 S
