data_str_m1_o10_o16_pcu_sym.55
_audit_creation_date              2020-01-03
_audit_creation_method            'Materials Studio'
_symmetry_space_group_name_H-M    'P1'
_symmetry_Int_Tables_number       1
_symmetry_cell_setting            triclinic
loop_
_symmetry_equiv_pos_as_xyz
  x,y,z
_cell_length_a                    32.5408
_cell_length_b                    32.4741
_cell_length_c                    31.0989
_cell_angle_alpha                 96.8539
_cell_angle_beta                  74.9707
_cell_angle_gamma                 98.6408
loop_
_atom_site_label
_atom_site_type_symbol
_atom_site_fract_x
_atom_site_fract_y
_atom_site_fract_z
_atom_site_U_iso_or_equiv
_atom_site_adp_type
_atom_site_occupancy
C1     C     0.05270   0.15958   0.25995   0.00000  Uiso   1.00
C2     C     0.18492   0.16831   0.05398   0.00000  Uiso   1.00
C3     C     0.19104   0.09690   0.06497   0.00000  Uiso   1.00
C4     C     0.28072   0.17378   0.24004   0.00000  Uiso   1.00
C5     C     0.14419   0.19604   0.41951   0.00000  Uiso   1.00
C6     C     0.32657   0.17649   0.23605   0.00000  Uiso   1.00
C7     C     0.00744   0.15699   0.26373   0.00000  Uiso   1.00
C8     C     0.18033   0.32246   0.23667   0.00000  Uiso   1.00
C9     C     0.15158   0.01169   0.26371   0.00000  Uiso   1.00
C10    C     0.15597   0.05584   0.26021   0.00000  Uiso   1.00
C11    C     0.17652   0.27787   0.24022   0.00000  Uiso   1.00
C12    C     0.12895   0.24518   0.48534   0.00000  Uiso   1.00
C13    C     0.18461   0.14827   0.12930   0.00000  Uiso   1.00
C14    C     0.14899   0.18522   0.37091   0.00000  Uiso   1.00
C15    C     0.18634   0.08311   0.02218   0.00000  Uiso   1.00
C16    C     0.18982   0.13879   0.08122   0.00000  Uiso   1.00
C17    C     0.13480   0.23652   0.43927   0.00000  Uiso   1.00
C18    C     0.19327   0.03915   0.00578   0.00000  Uiso   1.00
C19    C     0.19907   0.21331   0.06428   0.00000  Uiso   1.00
C20    C     0.13276   0.27129   0.41324   0.00000  Uiso   1.00
C21    C     0.13885   0.21744   0.01065   0.00000  Uiso   1.00
C22    C     0.15505   0.18000   0.49059   0.00000  Uiso   1.00
C23    C     0.15109   0.16674   0.44668   0.00000  Uiso   1.00
C24    C     0.17160   0.15375   0.01408   0.00000  Uiso   1.00
C25    C     0.17425   0.11103   0.49727   0.00000  Uiso   1.00
C26    C     0.16249   0.09676   0.45724   0.00000  Uiso   1.00
C27    C     0.15208   0.12414   0.43204   0.00000  Uiso   1.00
H28    H     0.19628   0.07486   0.08605   0.00000  Uiso   1.00
H29    H     0.18821   0.31295   0.02095   0.00000  Uiso   1.00
H30    H     0.23550   0.26597   0.04171   0.00000  Uiso   1.00
H31    H     0.16006   0.30465   0.36007   0.00000  Uiso   1.00
H32    H     0.31916   0.13898   0.28962   0.00000  Uiso   1.00
H33    H     0.20681   0.00373   0.21183   0.00000  Uiso   1.00
H34    H     0.12470   0.33122   0.28864   0.00000  Uiso   1.00
H35    H     0.16060   0.06415   0.44496   0.00000  Uiso   1.00
H36    H     0.13274   0.22551   0.04621   0.00000  Uiso   1.00
H37    H     0.11887   0.27469   0.00159   0.00000  Uiso   1.00
H38    H     0.14254   0.11074   0.40208   0.00000  Uiso   1.00
H39    H     0.01554   0.19443   0.21048   0.00000  Uiso   1.00
O40    O     0.16667   0.16667   0.25000   0.00000  Uiso   1.00
O41    O     0.15451   0.12637   0.15458   0.00000  Uiso   1.00
O42    O     0.12940   0.20391   0.34968   0.00000  Uiso   1.00
O43    O     0.20824   0.17759   0.14606   0.00000  Uiso   1.00
O44    O     0.17451   0.15880   0.34968   0.00000  Uiso   1.00
O45    O     0.21161   0.03038   0.46687   0.00000  Uiso   1.00
O46    O     0.18077   0.00801   0.03566   0.00000  Uiso   1.00
O47    O     0.18459   0.23106   0.10086   0.00000  Uiso   1.00
O48    O     0.22824   0.23564   0.03111   0.00000  Uiso   1.00
O49    O     0.10421   0.29368   0.42686   0.00000  Uiso   1.00
O50    O     0.16469   0.27985   0.37443   0.00000  Uiso   1.00
O51    O     0.17930   0.08019   0.28213   0.00000  Uiso   1.00
O52    O     0.14632   0.26085   0.27013   0.00000  Uiso   1.00
O53    O     0.07412   0.13291   0.23413   0.00000  Uiso   1.00
O54    O     0.26693   0.19272   0.21360   0.00000  Uiso   1.00
O55    O     0.07071   0.18878   0.28213   0.00000  Uiso   1.00
O56    O     0.25491   0.15226   0.27013   0.00000  Uiso   1.00
O57    O     0.13760   0.06944   0.23413   0.00000  Uiso   1.00
O58    O     0.20345   0.25620   0.21360   0.00000  Uiso   1.00
Zn59   Zn    0.19338   0.13994   0.28734   0.00000  Uiso   1.00
Zn60   Zn    0.13379   0.12458   0.21875   0.00000  Uiso   1.00
Zn61   Zn    0.21056   0.19775   0.20657   0.00000  Uiso   1.00
Zn62   Zn    0.12893   0.20439   0.28733   0.00000  Uiso   1.00
C63    C     0.38603   0.15958   0.25995   0.00000  Uiso   1.00
C64    C     0.51826   0.16831   0.05398   0.00000  Uiso   1.00
C65    C     0.52437   0.09690   0.06497   0.00000  Uiso   1.00
C66    C     0.61406   0.17378   0.24004   0.00000  Uiso   1.00
C67    C     0.47752   0.19604   0.41951   0.00000  Uiso   1.00
C68    C     0.65990   0.17649   0.23605   0.00000  Uiso   1.00
C69    C     0.34077   0.15699   0.26373   0.00000  Uiso   1.00
C70    C     0.51366   0.32246   0.23667   0.00000  Uiso   1.00
C71    C     0.48491   0.01169   0.26371   0.00000  Uiso   1.00
C72    C     0.48931   0.05584   0.26021   0.00000  Uiso   1.00
C73    C     0.50986   0.27787   0.24022   0.00000  Uiso   1.00
C74    C     0.46229   0.24518   0.48534   0.00000  Uiso   1.00
C75    C     0.51794   0.14827   0.12930   0.00000  Uiso   1.00
C76    C     0.48233   0.18522   0.37091   0.00000  Uiso   1.00
C77    C     0.51967   0.08311   0.02218   0.00000  Uiso   1.00
C78    C     0.52316   0.13879   0.08122   0.00000  Uiso   1.00
C79    C     0.46814   0.23652   0.43927   0.00000  Uiso   1.00
C80    C     0.52660   0.03915   0.00578   0.00000  Uiso   1.00
C81    C     0.53240   0.21331   0.06428   0.00000  Uiso   1.00
C82    C     0.46609   0.27129   0.41324   0.00000  Uiso   1.00
C83    C     0.47218   0.21744   0.01065   0.00000  Uiso   1.00
C84    C     0.48838   0.18000   0.49059   0.00000  Uiso   1.00
C85    C     0.48442   0.16674   0.44668   0.00000  Uiso   1.00
C86    C     0.50493   0.15375   0.01408   0.00000  Uiso   1.00
C87    C     0.50759   0.11103   0.49727   0.00000  Uiso   1.00
C88    C     0.49582   0.09676   0.45724   0.00000  Uiso   1.00
C89    C     0.48542   0.12414   0.43204   0.00000  Uiso   1.00
H90    H     0.52961   0.07486   0.08605   0.00000  Uiso   1.00
H91    H     0.52154   0.31295   0.02095   0.00000  Uiso   1.00
H92    H     0.56883   0.26597   0.04171   0.00000  Uiso   1.00
H93    H     0.49339   0.30465   0.36007   0.00000  Uiso   1.00
H94    H     0.65249   0.13898   0.28962   0.00000  Uiso   1.00
H95    H     0.54015   0.00373   0.21183   0.00000  Uiso   1.00
H96    H     0.45803   0.33122   0.28864   0.00000  Uiso   1.00
H97    H     0.49393   0.06415   0.44496   0.00000  Uiso   1.00
H98    H     0.46608   0.22551   0.04621   0.00000  Uiso   1.00
H99    H     0.45220   0.27469   0.00159   0.00000  Uiso   1.00
H100   H     0.47587   0.11074   0.40208   0.00000  Uiso   1.00
H101   H     0.34888   0.19443   0.21048   0.00000  Uiso   1.00
O102   O     0.50000   0.16667   0.25000   0.00000  Uiso   1.00
O103   O     0.48784   0.12637   0.15458   0.00000  Uiso   1.00
O104   O     0.46274   0.20391   0.34968   0.00000  Uiso   1.00
O105   O     0.54157   0.17759   0.14606   0.00000  Uiso   1.00
O106   O     0.50785   0.15880   0.34968   0.00000  Uiso   1.00
O107   O     0.54495   0.03038   0.46687   0.00000  Uiso   1.00
O108   O     0.51411   0.00801   0.03566   0.00000  Uiso   1.00
O109   O     0.51793   0.23106   0.10086   0.00000  Uiso   1.00
O110   O     0.56157   0.23564   0.03111   0.00000  Uiso   1.00
O111   O     0.43754   0.29368   0.42686   0.00000  Uiso   1.00
O112   O     0.49803   0.27985   0.37443   0.00000  Uiso   1.00
O113   O     0.51264   0.08019   0.28213   0.00000  Uiso   1.00
O114   O     0.47965   0.26085   0.27013   0.00000  Uiso   1.00
O115   O     0.40745   0.13291   0.23413   0.00000  Uiso   1.00
O116   O     0.60026   0.19272   0.21360   0.00000  Uiso   1.00
O117   O     0.40405   0.18878   0.28213   0.00000  Uiso   1.00
O118   O     0.58824   0.15226   0.27013   0.00000  Uiso   1.00
O119   O     0.47093   0.06944   0.23413   0.00000  Uiso   1.00
O120   O     0.53678   0.25620   0.21360   0.00000  Uiso   1.00
Zn121  Zn    0.52672   0.13994   0.28734   0.00000  Uiso   1.00
Zn122  Zn    0.46713   0.12458   0.21875   0.00000  Uiso   1.00
Zn123  Zn    0.54389   0.19775   0.20657   0.00000  Uiso   1.00
Zn124  Zn    0.46226   0.20439   0.28733   0.00000  Uiso   1.00
C125   C     0.71937   0.15958   0.25995   0.00000  Uiso   1.00
C126   C     0.85159   0.16831   0.05398   0.00000  Uiso   1.00
C127   C     0.85771   0.09690   0.06497   0.00000  Uiso   1.00
C128   C     0.94739   0.17378   0.24004   0.00000  Uiso   1.00
C129   C     0.81086   0.19604   0.41951   0.00000  Uiso   1.00
C130   C     0.99323   0.17649   0.23605   0.00000  Uiso   1.00
C131   C     0.67411   0.15699   0.26373   0.00000  Uiso   1.00
C132   C     0.84700   0.32246   0.23667   0.00000  Uiso   1.00
C133   C     0.81824   0.01169   0.26371   0.00000  Uiso   1.00
C134   C     0.82264   0.05584   0.26021   0.00000  Uiso   1.00
C135   C     0.84319   0.27787   0.24022   0.00000  Uiso   1.00
C136   C     0.79562   0.24518   0.48534   0.00000  Uiso   1.00
C137   C     0.85127   0.14827   0.12930   0.00000  Uiso   1.00
C138   C     0.81566   0.18522   0.37091   0.00000  Uiso   1.00
C139   C     0.85301   0.08311   0.02218   0.00000  Uiso   1.00
C140   C     0.85649   0.13879   0.08122   0.00000  Uiso   1.00
C141   C     0.80147   0.23652   0.43927   0.00000  Uiso   1.00
C142   C     0.85993   0.03915   0.00578   0.00000  Uiso   1.00
C143   C     0.86574   0.21331   0.06428   0.00000  Uiso   1.00
C144   C     0.79942   0.27129   0.41324   0.00000  Uiso   1.00
C145   C     0.80551   0.21744   0.01065   0.00000  Uiso   1.00
C146   C     0.82171   0.18000   0.49059   0.00000  Uiso   1.00
C147   C     0.81775   0.16674   0.44668   0.00000  Uiso   1.00
C148   C     0.83827   0.15375   0.01408   0.00000  Uiso   1.00
C149   C     0.84092   0.11103   0.49727   0.00000  Uiso   1.00
C150   C     0.82915   0.09676   0.45724   0.00000  Uiso   1.00
C151   C     0.81875   0.12414   0.43204   0.00000  Uiso   1.00
H152   H     0.86295   0.07486   0.08605   0.00000  Uiso   1.00
H153   H     0.85487   0.31295   0.02095   0.00000  Uiso   1.00
H154   H     0.90217   0.26597   0.04171   0.00000  Uiso   1.00
H155   H     0.82672   0.30465   0.36007   0.00000  Uiso   1.00
H156   H     0.98582   0.13898   0.28962   0.00000  Uiso   1.00
H157   H     0.87348   0.00373   0.21183   0.00000  Uiso   1.00
H158   H     0.79136   0.33122   0.28864   0.00000  Uiso   1.00
H159   H     0.82727   0.06415   0.44496   0.00000  Uiso   1.00
H160   H     0.79941   0.22551   0.04621   0.00000  Uiso   1.00
H161   H     0.78554   0.27469   0.00159   0.00000  Uiso   1.00
H162   H     0.80921   0.11074   0.40208   0.00000  Uiso   1.00
H163   H     0.68221   0.19443   0.21048   0.00000  Uiso   1.00
O164   O     0.83333   0.16667   0.25000   0.00000  Uiso   1.00
O165   O     0.82118   0.12637   0.15458   0.00000  Uiso   1.00
O166   O     0.79607   0.20391   0.34968   0.00000  Uiso   1.00
O167   O     0.87491   0.17759   0.14606   0.00000  Uiso   1.00
O168   O     0.84118   0.15880   0.34968   0.00000  Uiso   1.00
O169   O     0.87828   0.03038   0.46687   0.00000  Uiso   1.00
O170   O     0.84744   0.00801   0.03566   0.00000  Uiso   1.00
O171   O     0.85126   0.23106   0.10086   0.00000  Uiso   1.00
O172   O     0.89490   0.23564   0.03111   0.00000  Uiso   1.00
O173   O     0.77088   0.29368   0.42686   0.00000  Uiso   1.00
O174   O     0.83136   0.27985   0.37443   0.00000  Uiso   1.00
O175   O     0.84597   0.08019   0.28213   0.00000  Uiso   1.00
O176   O     0.81298   0.26085   0.27013   0.00000  Uiso   1.00
O177   O     0.74078   0.13291   0.23413   0.00000  Uiso   1.00
O178   O     0.93360   0.19272   0.21360   0.00000  Uiso   1.00
O179   O     0.73738   0.18878   0.28213   0.00000  Uiso   1.00
O180   O     0.92158   0.15226   0.27013   0.00000  Uiso   1.00
O181   O     0.80426   0.06944   0.23413   0.00000  Uiso   1.00
O182   O     0.87012   0.25620   0.21360   0.00000  Uiso   1.00
Zn183  Zn    0.86005   0.13994   0.28734   0.00000  Uiso   1.00
Zn184  Zn    0.80046   0.12458   0.21875   0.00000  Uiso   1.00
Zn185  Zn    0.87723   0.19775   0.20657   0.00000  Uiso   1.00
Zn186  Zn    0.79560   0.20439   0.28733   0.00000  Uiso   1.00
C187   C     0.05270   0.49291   0.25995   0.00000  Uiso   1.00
C188   C     0.18492   0.50164   0.05398   0.00000  Uiso   1.00
C189   C     0.19104   0.43024   0.06497   0.00000  Uiso   1.00
C190   C     0.28072   0.50712   0.24004   0.00000  Uiso   1.00
C191   C     0.14419   0.52937   0.41951   0.00000  Uiso   1.00
C192   C     0.32657   0.50983   0.23605   0.00000  Uiso   1.00
C193   C     0.00744   0.49032   0.26373   0.00000  Uiso   1.00
C194   C     0.18033   0.65579   0.23667   0.00000  Uiso   1.00
C195   C     0.15158   0.34502   0.26371   0.00000  Uiso   1.00
C196   C     0.15597   0.38918   0.26021   0.00000  Uiso   1.00
C197   C     0.17652   0.61121   0.24022   0.00000  Uiso   1.00
C198   C     0.12895   0.57851   0.48534   0.00000  Uiso   1.00
C199   C     0.18461   0.48161   0.12930   0.00000  Uiso   1.00
C200   C     0.14899   0.51856   0.37091   0.00000  Uiso   1.00
C201   C     0.18634   0.41645   0.02218   0.00000  Uiso   1.00
C202   C     0.18982   0.47213   0.08122   0.00000  Uiso   1.00
C203   C     0.13480   0.56986   0.43927   0.00000  Uiso   1.00
C204   C     0.19327   0.37248   0.00578   0.00000  Uiso   1.00
C205   C     0.19907   0.54665   0.06428   0.00000  Uiso   1.00
C206   C     0.13276   0.60463   0.41324   0.00000  Uiso   1.00
C207   C     0.13885   0.55078   0.01065   0.00000  Uiso   1.00
C208   C     0.15505   0.51333   0.49059   0.00000  Uiso   1.00
C209   C     0.15109   0.50007   0.44668   0.00000  Uiso   1.00
C210   C     0.17160   0.48708   0.01408   0.00000  Uiso   1.00
C211   C     0.17425   0.44436   0.49727   0.00000  Uiso   1.00
C212   C     0.16249   0.43009   0.45724   0.00000  Uiso   1.00
C213   C     0.15208   0.45748   0.43204   0.00000  Uiso   1.00
H214   H     0.19628   0.40819   0.08605   0.00000  Uiso   1.00
H215   H     0.18821   0.64628   0.02095   0.00000  Uiso   1.00
H216   H     0.23550   0.59930   0.04171   0.00000  Uiso   1.00
H217   H     0.16006   0.63798   0.36007   0.00000  Uiso   1.00
H218   H     0.31916   0.47231   0.28962   0.00000  Uiso   1.00
H219   H     0.20681   0.33706   0.21183   0.00000  Uiso   1.00
H220   H     0.12470   0.66455   0.28864   0.00000  Uiso   1.00
H221   H     0.16060   0.39748   0.44496   0.00000  Uiso   1.00
H222   H     0.13274   0.55884   0.04621   0.00000  Uiso   1.00
H223   H     0.11887   0.60803   0.00159   0.00000  Uiso   1.00
H224   H     0.14254   0.44407   0.40208   0.00000  Uiso   1.00
H225   H     0.01554   0.52777   0.21048   0.00000  Uiso   1.00
O226   O     0.16667   0.50000   0.25000   0.00000  Uiso   1.00
O227   O     0.15451   0.45970   0.15458   0.00000  Uiso   1.00
O228   O     0.12940   0.53724   0.34968   0.00000  Uiso   1.00
O229   O     0.20824   0.51092   0.14606   0.00000  Uiso   1.00
O230   O     0.17451   0.49213   0.34968   0.00000  Uiso   1.00
O231   O     0.21161   0.36372   0.46687   0.00000  Uiso   1.00
O232   O     0.18077   0.34135   0.03566   0.00000  Uiso   1.00
O233   O     0.18459   0.56440   0.10086   0.00000  Uiso   1.00
O234   O     0.22824   0.56897   0.03111   0.00000  Uiso   1.00
O235   O     0.10421   0.62701   0.42686   0.00000  Uiso   1.00
O236   O     0.16469   0.61318   0.37443   0.00000  Uiso   1.00
O237   O     0.17930   0.41352   0.28213   0.00000  Uiso   1.00
O238   O     0.14632   0.59418   0.27013   0.00000  Uiso   1.00
O239   O     0.07412   0.46625   0.23413   0.00000  Uiso   1.00
O240   O     0.26693   0.52605   0.21360   0.00000  Uiso   1.00
O241   O     0.07071   0.52211   0.28213   0.00000  Uiso   1.00
O242   O     0.25491   0.48559   0.27013   0.00000  Uiso   1.00
O243   O     0.13760   0.40277   0.23413   0.00000  Uiso   1.00
O244   O     0.20345   0.58953   0.21360   0.00000  Uiso   1.00
Zn245  Zn    0.19338   0.47327   0.28734   0.00000  Uiso   1.00
Zn246  Zn    0.13379   0.45791   0.21875   0.00000  Uiso   1.00
Zn247  Zn    0.21056   0.53109   0.20657   0.00000  Uiso   1.00
Zn248  Zn    0.12893   0.53773   0.28733   0.00000  Uiso   1.00
C249   C     0.38603   0.49291   0.25995   0.00000  Uiso   1.00
C250   C     0.51826   0.50164   0.05398   0.00000  Uiso   1.00
C251   C     0.52437   0.43024   0.06497   0.00000  Uiso   1.00
C252   C     0.61406   0.50712   0.24004   0.00000  Uiso   1.00
C253   C     0.47752   0.52937   0.41951   0.00000  Uiso   1.00
C254   C     0.65990   0.50983   0.23605   0.00000  Uiso   1.00
C255   C     0.34077   0.49032   0.26373   0.00000  Uiso   1.00
C256   C     0.51366   0.65579   0.23667   0.00000  Uiso   1.00
C257   C     0.48491   0.34502   0.26371   0.00000  Uiso   1.00
C258   C     0.48931   0.38918   0.26021   0.00000  Uiso   1.00
C259   C     0.50986   0.61121   0.24022   0.00000  Uiso   1.00
C260   C     0.46229   0.57851   0.48534   0.00000  Uiso   1.00
C261   C     0.51794   0.48161   0.12930   0.00000  Uiso   1.00
C262   C     0.48233   0.51856   0.37091   0.00000  Uiso   1.00
C263   C     0.51967   0.41645   0.02218   0.00000  Uiso   1.00
C264   C     0.52316   0.47213   0.08122   0.00000  Uiso   1.00
C265   C     0.46814   0.56986   0.43927   0.00000  Uiso   1.00
C266   C     0.52660   0.37248   0.00578   0.00000  Uiso   1.00
C267   C     0.53240   0.54665   0.06428   0.00000  Uiso   1.00
C268   C     0.46609   0.60463   0.41324   0.00000  Uiso   1.00
C269   C     0.47218   0.55078   0.01065   0.00000  Uiso   1.00
C270   C     0.48838   0.51333   0.49059   0.00000  Uiso   1.00
C271   C     0.48442   0.50007   0.44668   0.00000  Uiso   1.00
C272   C     0.50493   0.48708   0.01408   0.00000  Uiso   1.00
C273   C     0.50759   0.44436   0.49727   0.00000  Uiso   1.00
C274   C     0.49582   0.43009   0.45724   0.00000  Uiso   1.00
C275   C     0.48542   0.45748   0.43204   0.00000  Uiso   1.00
H276   H     0.52961   0.40819   0.08605   0.00000  Uiso   1.00
H277   H     0.52154   0.64628   0.02095   0.00000  Uiso   1.00
H278   H     0.56883   0.59930   0.04171   0.00000  Uiso   1.00
H279   H     0.49339   0.63798   0.36007   0.00000  Uiso   1.00
H280   H     0.65249   0.47231   0.28962   0.00000  Uiso   1.00
H281   H     0.54015   0.33706   0.21183   0.00000  Uiso   1.00
H282   H     0.45803   0.66455   0.28864   0.00000  Uiso   1.00
H283   H     0.49393   0.39748   0.44496   0.00000  Uiso   1.00
H284   H     0.46608   0.55884   0.04621   0.00000  Uiso   1.00
H285   H     0.45220   0.60803   0.00159   0.00000  Uiso   1.00
H286   H     0.47587   0.44407   0.40208   0.00000  Uiso   1.00
H287   H     0.34888   0.52777   0.21048   0.00000  Uiso   1.00
O288   O     0.50000   0.50000   0.25000   0.00000  Uiso   1.00
O289   O     0.48784   0.45970   0.15458   0.00000  Uiso   1.00
O290   O     0.46274   0.53724   0.34968   0.00000  Uiso   1.00
O291   O     0.54157   0.51092   0.14606   0.00000  Uiso   1.00
O292   O     0.50785   0.49213   0.34968   0.00000  Uiso   1.00
O293   O     0.54495   0.36372   0.46687   0.00000  Uiso   1.00
O294   O     0.51411   0.34135   0.03566   0.00000  Uiso   1.00
O295   O     0.51793   0.56440   0.10086   0.00000  Uiso   1.00
O296   O     0.56157   0.56897   0.03111   0.00000  Uiso   1.00
O297   O     0.43754   0.62701   0.42686   0.00000  Uiso   1.00
O298   O     0.49803   0.61318   0.37443   0.00000  Uiso   1.00
O299   O     0.51264   0.41352   0.28213   0.00000  Uiso   1.00
O300   O     0.47965   0.59418   0.27013   0.00000  Uiso   1.00
O301   O     0.40745   0.46625   0.23413   0.00000  Uiso   1.00
O302   O     0.60026   0.52605   0.21360   0.00000  Uiso   1.00
O303   O     0.40405   0.52211   0.28213   0.00000  Uiso   1.00
O304   O     0.58824   0.48559   0.27013   0.00000  Uiso   1.00
O305   O     0.47093   0.40277   0.23413   0.00000  Uiso   1.00
O306   O     0.53678   0.58953   0.21360   0.00000  Uiso   1.00
Zn307  Zn    0.52672   0.47327   0.28734   0.00000  Uiso   1.00
Zn308  Zn    0.46713   0.45791   0.21875   0.00000  Uiso   1.00
Zn309  Zn    0.54389   0.53109   0.20657   0.00000  Uiso   1.00
Zn310  Zn    0.46226   0.53773   0.28733   0.00000  Uiso   1.00
C311   C     0.71937   0.49291   0.25995   0.00000  Uiso   1.00
C312   C     0.85159   0.50164   0.05398   0.00000  Uiso   1.00
C313   C     0.85771   0.43024   0.06497   0.00000  Uiso   1.00
C314   C     0.94739   0.50712   0.24004   0.00000  Uiso   1.00
C315   C     0.81086   0.52937   0.41951   0.00000  Uiso   1.00
C316   C     0.99323   0.50983   0.23605   0.00000  Uiso   1.00
C317   C     0.67411   0.49032   0.26373   0.00000  Uiso   1.00
C318   C     0.84700   0.65579   0.23667   0.00000  Uiso   1.00
C319   C     0.81824   0.34502   0.26371   0.00000  Uiso   1.00
C320   C     0.82264   0.38918   0.26021   0.00000  Uiso   1.00
C321   C     0.84319   0.61121   0.24022   0.00000  Uiso   1.00
C322   C     0.79562   0.57851   0.48534   0.00000  Uiso   1.00
C323   C     0.85127   0.48161   0.12930   0.00000  Uiso   1.00
C324   C     0.81566   0.51856   0.37091   0.00000  Uiso   1.00
C325   C     0.85301   0.41645   0.02218   0.00000  Uiso   1.00
C326   C     0.85649   0.47213   0.08122   0.00000  Uiso   1.00
C327   C     0.80147   0.56986   0.43927   0.00000  Uiso   1.00
C328   C     0.85993   0.37248   0.00578   0.00000  Uiso   1.00
C329   C     0.86574   0.54665   0.06428   0.00000  Uiso   1.00
C330   C     0.79942   0.60463   0.41324   0.00000  Uiso   1.00
C331   C     0.80551   0.55078   0.01065   0.00000  Uiso   1.00
C332   C     0.82171   0.51333   0.49059   0.00000  Uiso   1.00
C333   C     0.81775   0.50007   0.44668   0.00000  Uiso   1.00
C334   C     0.83827   0.48708   0.01408   0.00000  Uiso   1.00
C335   C     0.84092   0.44436   0.49727   0.00000  Uiso   1.00
C336   C     0.82915   0.43009   0.45724   0.00000  Uiso   1.00
C337   C     0.81875   0.45748   0.43204   0.00000  Uiso   1.00
H338   H     0.86295   0.40819   0.08605   0.00000  Uiso   1.00
H339   H     0.85487   0.64628   0.02095   0.00000  Uiso   1.00
H340   H     0.90217   0.59930   0.04171   0.00000  Uiso   1.00
H341   H     0.82672   0.63798   0.36007   0.00000  Uiso   1.00
H342   H     0.98582   0.47231   0.28962   0.00000  Uiso   1.00
H343   H     0.87348   0.33706   0.21183   0.00000  Uiso   1.00
H344   H     0.79136   0.66455   0.28864   0.00000  Uiso   1.00
H345   H     0.82727   0.39748   0.44496   0.00000  Uiso   1.00
H346   H     0.79941   0.55884   0.04621   0.00000  Uiso   1.00
H347   H     0.78554   0.60803   0.00159   0.00000  Uiso   1.00
H348   H     0.80921   0.44407   0.40208   0.00000  Uiso   1.00
H349   H     0.68221   0.52777   0.21048   0.00000  Uiso   1.00
O350   O     0.83333   0.50000   0.25000   0.00000  Uiso   1.00
O351   O     0.82118   0.45970   0.15458   0.00000  Uiso   1.00
O352   O     0.79607   0.53724   0.34968   0.00000  Uiso   1.00
O353   O     0.87491   0.51092   0.14606   0.00000  Uiso   1.00
O354   O     0.84118   0.49213   0.34968   0.00000  Uiso   1.00
O355   O     0.87828   0.36372   0.46687   0.00000  Uiso   1.00
O356   O     0.84744   0.34135   0.03566   0.00000  Uiso   1.00
O357   O     0.85126   0.56440   0.10086   0.00000  Uiso   1.00
O358   O     0.89490   0.56897   0.03111   0.00000  Uiso   1.00
O359   O     0.77088   0.62701   0.42686   0.00000  Uiso   1.00
O360   O     0.83136   0.61318   0.37443   0.00000  Uiso   1.00
O361   O     0.84597   0.41352   0.28213   0.00000  Uiso   1.00
O362   O     0.81298   0.59418   0.27013   0.00000  Uiso   1.00
O363   O     0.74078   0.46625   0.23413   0.00000  Uiso   1.00
O364   O     0.93360   0.52605   0.21360   0.00000  Uiso   1.00
O365   O     0.73738   0.52211   0.28213   0.00000  Uiso   1.00
O366   O     0.92158   0.48559   0.27013   0.00000  Uiso   1.00
O367   O     0.80426   0.40277   0.23413   0.00000  Uiso   1.00
O368   O     0.87012   0.58953   0.21360   0.00000  Uiso   1.00
Zn369  Zn    0.86005   0.47327   0.28734   0.00000  Uiso   1.00
Zn370  Zn    0.80046   0.45791   0.21875   0.00000  Uiso   1.00
Zn371  Zn    0.87723   0.53109   0.20657   0.00000  Uiso   1.00
Zn372  Zn    0.79560   0.53773   0.28733   0.00000  Uiso   1.00
C373   C     0.05270   0.82624   0.25995   0.00000  Uiso   1.00
C374   C     0.18492   0.83498   0.05398   0.00000  Uiso   1.00
C375   C     0.19104   0.76357   0.06497   0.00000  Uiso   1.00
C376   C     0.28072   0.84045   0.24004   0.00000  Uiso   1.00
C377   C     0.14419   0.86271   0.41951   0.00000  Uiso   1.00
C378   C     0.32657   0.84316   0.23605   0.00000  Uiso   1.00
C379   C     0.00744   0.82365   0.26373   0.00000  Uiso   1.00
C380   C     0.18033   0.98912   0.23667   0.00000  Uiso   1.00
C381   C     0.15158   0.67835   0.26371   0.00000  Uiso   1.00
C382   C     0.15597   0.72251   0.26021   0.00000  Uiso   1.00
C383   C     0.17652   0.94454   0.24022   0.00000  Uiso   1.00
C384   C     0.12895   0.91185   0.48534   0.00000  Uiso   1.00
C385   C     0.18461   0.81494   0.12930   0.00000  Uiso   1.00
C386   C     0.14899   0.85189   0.37091   0.00000  Uiso   1.00
C387   C     0.18634   0.74978   0.02218   0.00000  Uiso   1.00
C388   C     0.18982   0.80546   0.08122   0.00000  Uiso   1.00
C389   C     0.13480   0.90319   0.43927   0.00000  Uiso   1.00
C390   C     0.19327   0.70581   0.00578   0.00000  Uiso   1.00
C391   C     0.19907   0.87998   0.06428   0.00000  Uiso   1.00
C392   C     0.13276   0.93796   0.41324   0.00000  Uiso   1.00
C393   C     0.13885   0.88411   0.01065   0.00000  Uiso   1.00
C394   C     0.15505   0.84666   0.49059   0.00000  Uiso   1.00
C395   C     0.15109   0.83341   0.44668   0.00000  Uiso   1.00
C396   C     0.17160   0.82041   0.01408   0.00000  Uiso   1.00
C397   C     0.17425   0.77769   0.49727   0.00000  Uiso   1.00
C398   C     0.16249   0.76342   0.45724   0.00000  Uiso   1.00
C399   C     0.15208   0.79081   0.43204   0.00000  Uiso   1.00
H400   H     0.19628   0.74153   0.08605   0.00000  Uiso   1.00
H401   H     0.18821   0.97962   0.02095   0.00000  Uiso   1.00
H402   H     0.23550   0.93263   0.04171   0.00000  Uiso   1.00
H403   H     0.16006   0.97132   0.36007   0.00000  Uiso   1.00
H404   H     0.31916   0.80564   0.28962   0.00000  Uiso   1.00
H405   H     0.20681   0.67040   0.21183   0.00000  Uiso   1.00
H406   H     0.12470   0.99788   0.28864   0.00000  Uiso   1.00
H407   H     0.16060   0.73081   0.44496   0.00000  Uiso   1.00
H408   H     0.13274   0.89217   0.04621   0.00000  Uiso   1.00
H409   H     0.11887   0.94136   0.00159   0.00000  Uiso   1.00
H410   H     0.14254   0.77740   0.40208   0.00000  Uiso   1.00
H411   H     0.01554   0.86110   0.21048   0.00000  Uiso   1.00
O412   O     0.16667   0.83333   0.25000   0.00000  Uiso   1.00
O413   O     0.15451   0.79304   0.15458   0.00000  Uiso   1.00
O414   O     0.12940   0.87058   0.34968   0.00000  Uiso   1.00
O415   O     0.20824   0.84425   0.14606   0.00000  Uiso   1.00
O416   O     0.17451   0.82546   0.34968   0.00000  Uiso   1.00
O417   O     0.21161   0.69705   0.46687   0.00000  Uiso   1.00
O418   O     0.18077   0.67468   0.03566   0.00000  Uiso   1.00
O419   O     0.18459   0.89773   0.10086   0.00000  Uiso   1.00
O420   O     0.22824   0.90230   0.03111   0.00000  Uiso   1.00
O421   O     0.10421   0.96035   0.42686   0.00000  Uiso   1.00
O422   O     0.16469   0.94652   0.37443   0.00000  Uiso   1.00
O423   O     0.17930   0.74686   0.28213   0.00000  Uiso   1.00
O424   O     0.14632   0.92751   0.27013   0.00000  Uiso   1.00
O425   O     0.07412   0.79958   0.23413   0.00000  Uiso   1.00
O426   O     0.26693   0.85939   0.21360   0.00000  Uiso   1.00
O427   O     0.07071   0.85544   0.28213   0.00000  Uiso   1.00
O428   O     0.25491   0.81892   0.27013   0.00000  Uiso   1.00
O429   O     0.13760   0.73610   0.23413   0.00000  Uiso   1.00
O430   O     0.20345   0.92286   0.21360   0.00000  Uiso   1.00
Zn431  Zn    0.19338   0.80661   0.28734   0.00000  Uiso   1.00
Zn432  Zn    0.13379   0.79124   0.21875   0.00000  Uiso   1.00
Zn433  Zn    0.21056   0.86442   0.20657   0.00000  Uiso   1.00
Zn434  Zn    0.12893   0.87106   0.28733   0.00000  Uiso   1.00
C435   C     0.38603   0.82624   0.25995   0.00000  Uiso   1.00
C436   C     0.51826   0.83498   0.05398   0.00000  Uiso   1.00
C437   C     0.52437   0.76357   0.06497   0.00000  Uiso   1.00
C438   C     0.61406   0.84045   0.24004   0.00000  Uiso   1.00
C439   C     0.47752   0.86271   0.41951   0.00000  Uiso   1.00
C440   C     0.65990   0.84316   0.23605   0.00000  Uiso   1.00
C441   C     0.34077   0.82365   0.26373   0.00000  Uiso   1.00
C442   C     0.51366   0.98912   0.23667   0.00000  Uiso   1.00
C443   C     0.48491   0.67835   0.26371   0.00000  Uiso   1.00
C444   C     0.48931   0.72251   0.26021   0.00000  Uiso   1.00
C445   C     0.50986   0.94454   0.24022   0.00000  Uiso   1.00
C446   C     0.46229   0.91185   0.48534   0.00000  Uiso   1.00
C447   C     0.51794   0.81494   0.12930   0.00000  Uiso   1.00
C448   C     0.48233   0.85189   0.37091   0.00000  Uiso   1.00
C449   C     0.51967   0.74978   0.02218   0.00000  Uiso   1.00
C450   C     0.52316   0.80546   0.08122   0.00000  Uiso   1.00
C451   C     0.46814   0.90319   0.43927   0.00000  Uiso   1.00
C452   C     0.52660   0.70581   0.00578   0.00000  Uiso   1.00
C453   C     0.53240   0.87998   0.06428   0.00000  Uiso   1.00
C454   C     0.46609   0.93796   0.41324   0.00000  Uiso   1.00
C455   C     0.47218   0.88411   0.01065   0.00000  Uiso   1.00
C456   C     0.48838   0.84666   0.49059   0.00000  Uiso   1.00
C457   C     0.48442   0.83341   0.44668   0.00000  Uiso   1.00
C458   C     0.50493   0.82041   0.01408   0.00000  Uiso   1.00
C459   C     0.50759   0.77769   0.49727   0.00000  Uiso   1.00
C460   C     0.49582   0.76342   0.45724   0.00000  Uiso   1.00
C461   C     0.48542   0.79081   0.43204   0.00000  Uiso   1.00
H462   H     0.52961   0.74153   0.08605   0.00000  Uiso   1.00
H463   H     0.52154   0.97962   0.02095   0.00000  Uiso   1.00
H464   H     0.56883   0.93263   0.04171   0.00000  Uiso   1.00
H465   H     0.49339   0.97132   0.36007   0.00000  Uiso   1.00
H466   H     0.65249   0.80564   0.28962   0.00000  Uiso   1.00
H467   H     0.54015   0.67040   0.21183   0.00000  Uiso   1.00
H468   H     0.45803   0.99788   0.28864   0.00000  Uiso   1.00
H469   H     0.49393   0.73081   0.44496   0.00000  Uiso   1.00
H470   H     0.46608   0.89217   0.04621   0.00000  Uiso   1.00
H471   H     0.45220   0.94136   0.00159   0.00000  Uiso   1.00
H472   H     0.47587   0.77740   0.40208   0.00000  Uiso   1.00
H473   H     0.34888   0.86110   0.21048   0.00000  Uiso   1.00
O474   O     0.50000   0.83333   0.25000   0.00000  Uiso   1.00
O475   O     0.48784   0.79304   0.15458   0.00000  Uiso   1.00
O476   O     0.46274   0.87058   0.34968   0.00000  Uiso   1.00
O477   O     0.54157   0.84425   0.14606   0.00000  Uiso   1.00
O478   O     0.50785   0.82546   0.34968   0.00000  Uiso   1.00
O479   O     0.54495   0.69705   0.46687   0.00000  Uiso   1.00
O480   O     0.51411   0.67468   0.03566   0.00000  Uiso   1.00
O481   O     0.51793   0.89773   0.10086   0.00000  Uiso   1.00
O482   O     0.56157   0.90230   0.03111   0.00000  Uiso   1.00
O483   O     0.43754   0.96035   0.42686   0.00000  Uiso   1.00
O484   O     0.49803   0.94652   0.37443   0.00000  Uiso   1.00
O485   O     0.51264   0.74686   0.28213   0.00000  Uiso   1.00
O486   O     0.47965   0.92751   0.27013   0.00000  Uiso   1.00
O487   O     0.40745   0.79958   0.23413   0.00000  Uiso   1.00
O488   O     0.60026   0.85939   0.21360   0.00000  Uiso   1.00
O489   O     0.40405   0.85544   0.28213   0.00000  Uiso   1.00
O490   O     0.58824   0.81892   0.27013   0.00000  Uiso   1.00
O491   O     0.47093   0.73610   0.23413   0.00000  Uiso   1.00
O492   O     0.53678   0.92286   0.21360   0.00000  Uiso   1.00
Zn493  Zn    0.52672   0.80661   0.28734   0.00000  Uiso   1.00
Zn494  Zn    0.46713   0.79124   0.21875   0.00000  Uiso   1.00
Zn495  Zn    0.54389   0.86442   0.20657   0.00000  Uiso   1.00
Zn496  Zn    0.46226   0.87106   0.28733   0.00000  Uiso   1.00
C497   C     0.71937   0.82624   0.25995   0.00000  Uiso   1.00
C498   C     0.85159   0.83498   0.05398   0.00000  Uiso   1.00
C499   C     0.85771   0.76357   0.06497   0.00000  Uiso   1.00
C500   C     0.94739   0.84045   0.24004   0.00000  Uiso   1.00
C501   C     0.81086   0.86271   0.41951   0.00000  Uiso   1.00
C502   C     0.99323   0.84316   0.23605   0.00000  Uiso   1.00
C503   C     0.67411   0.82365   0.26373   0.00000  Uiso   1.00
C504   C     0.84700   0.98912   0.23667   0.00000  Uiso   1.00
C505   C     0.81824   0.67835   0.26371   0.00000  Uiso   1.00
C506   C     0.82264   0.72251   0.26021   0.00000  Uiso   1.00
C507   C     0.84319   0.94454   0.24022   0.00000  Uiso   1.00
C508   C     0.79562   0.91185   0.48534   0.00000  Uiso   1.00
C509   C     0.85127   0.81494   0.12930   0.00000  Uiso   1.00
C510   C     0.81566   0.85189   0.37091   0.00000  Uiso   1.00
C511   C     0.85301   0.74978   0.02218   0.00000  Uiso   1.00
C512   C     0.85649   0.80546   0.08122   0.00000  Uiso   1.00
C513   C     0.80147   0.90319   0.43927   0.00000  Uiso   1.00
C514   C     0.85993   0.70581   0.00578   0.00000  Uiso   1.00
C515   C     0.86574   0.87998   0.06428   0.00000  Uiso   1.00
C516   C     0.79942   0.93796   0.41324   0.00000  Uiso   1.00
C517   C     0.80551   0.88411   0.01065   0.00000  Uiso   1.00
C518   C     0.82171   0.84666   0.49059   0.00000  Uiso   1.00
C519   C     0.81775   0.83341   0.44668   0.00000  Uiso   1.00
C520   C     0.83827   0.82041   0.01408   0.00000  Uiso   1.00
C521   C     0.84092   0.77769   0.49727   0.00000  Uiso   1.00
C522   C     0.82915   0.76342   0.45724   0.00000  Uiso   1.00
C523   C     0.81875   0.79081   0.43204   0.00000  Uiso   1.00
H524   H     0.86295   0.74153   0.08605   0.00000  Uiso   1.00
H525   H     0.85487   0.97962   0.02095   0.00000  Uiso   1.00
H526   H     0.90217   0.93263   0.04171   0.00000  Uiso   1.00
H527   H     0.82672   0.97132   0.36007   0.00000  Uiso   1.00
H528   H     0.98582   0.80564   0.28962   0.00000  Uiso   1.00
H529   H     0.87348   0.67040   0.21183   0.00000  Uiso   1.00
H530   H     0.79136   0.99788   0.28864   0.00000  Uiso   1.00
H531   H     0.82727   0.73081   0.44496   0.00000  Uiso   1.00
H532   H     0.79941   0.89217   0.04621   0.00000  Uiso   1.00
H533   H     0.78554   0.94136   0.00159   0.00000  Uiso   1.00
H534   H     0.80921   0.77740   0.40208   0.00000  Uiso   1.00
H535   H     0.68221   0.86110   0.21048   0.00000  Uiso   1.00
O536   O     0.83333   0.83333   0.25000   0.00000  Uiso   1.00
O537   O     0.82118   0.79304   0.15458   0.00000  Uiso   1.00
O538   O     0.79607   0.87058   0.34968   0.00000  Uiso   1.00
O539   O     0.87491   0.84425   0.14606   0.00000  Uiso   1.00
O540   O     0.84118   0.82546   0.34968   0.00000  Uiso   1.00
O541   O     0.87828   0.69705   0.46687   0.00000  Uiso   1.00
O542   O     0.84744   0.67468   0.03566   0.00000  Uiso   1.00
O543   O     0.85126   0.89773   0.10086   0.00000  Uiso   1.00
O544   O     0.89490   0.90230   0.03111   0.00000  Uiso   1.00
O545   O     0.77088   0.96035   0.42686   0.00000  Uiso   1.00
O546   O     0.83136   0.94652   0.37443   0.00000  Uiso   1.00
O547   O     0.84597   0.74686   0.28213   0.00000  Uiso   1.00
O548   O     0.81298   0.92751   0.27013   0.00000  Uiso   1.00
O549   O     0.74078   0.79958   0.23413   0.00000  Uiso   1.00
O550   O     0.93360   0.85939   0.21360   0.00000  Uiso   1.00
O551   O     0.73738   0.85544   0.28213   0.00000  Uiso   1.00
O552   O     0.92158   0.81892   0.27013   0.00000  Uiso   1.00
O553   O     0.80426   0.73610   0.23413   0.00000  Uiso   1.00
O554   O     0.87012   0.92286   0.21360   0.00000  Uiso   1.00
Zn555  Zn    0.86005   0.80661   0.28734   0.00000  Uiso   1.00
Zn556  Zn    0.80046   0.79124   0.21875   0.00000  Uiso   1.00
Zn557  Zn    0.87723   0.86442   0.20657   0.00000  Uiso   1.00
Zn558  Zn    0.79560   0.87106   0.28733   0.00000  Uiso   1.00
C559   C     0.05270   0.15958   0.75995   0.00000  Uiso   1.00
C560   C     0.18492   0.16831   0.55398   0.00000  Uiso   1.00
C561   C     0.19104   0.09690   0.56497   0.00000  Uiso   1.00
C562   C     0.28072   0.17378   0.74004   0.00000  Uiso   1.00
C563   C     0.14419   0.19604   0.91951   0.00000  Uiso   1.00
C564   C     0.32657   0.17649   0.73605   0.00000  Uiso   1.00
C565   C     0.00744   0.15699   0.76373   0.00000  Uiso   1.00
C566   C     0.18033   0.32246   0.73667   0.00000  Uiso   1.00
C567   C     0.15158   0.01169   0.76371   0.00000  Uiso   1.00
C568   C     0.15597   0.05584   0.76021   0.00000  Uiso   1.00
C569   C     0.17652   0.27787   0.74022   0.00000  Uiso   1.00
C570   C     0.12895   0.24518   0.98534   0.00000  Uiso   1.00
C571   C     0.18461   0.14827   0.62930   0.00000  Uiso   1.00
C572   C     0.14899   0.18522   0.87091   0.00000  Uiso   1.00
C573   C     0.18634   0.08311   0.52218   0.00000  Uiso   1.00
C574   C     0.18982   0.13879   0.58122   0.00000  Uiso   1.00
C575   C     0.13480   0.23652   0.93927   0.00000  Uiso   1.00
C576   C     0.19327   0.03915   0.50578   0.00000  Uiso   1.00
C577   C     0.19907   0.21331   0.56428   0.00000  Uiso   1.00
C578   C     0.13276   0.27129   0.91324   0.00000  Uiso   1.00
C579   C     0.13885   0.21744   0.51065   0.00000  Uiso   1.00
C580   C     0.15505   0.18000   0.99059   0.00000  Uiso   1.00
C581   C     0.15109   0.16674   0.94668   0.00000  Uiso   1.00
C582   C     0.17160   0.15375   0.51408   0.00000  Uiso   1.00
C583   C     0.17425   0.11103   0.99727   0.00000  Uiso   1.00
C584   C     0.16249   0.09676   0.95724   0.00000  Uiso   1.00
C585   C     0.15208   0.12414   0.93204   0.00000  Uiso   1.00
H586   H     0.19628   0.07486   0.58605   0.00000  Uiso   1.00
H587   H     0.18821   0.31295   0.52095   0.00000  Uiso   1.00
H588   H     0.23550   0.26597   0.54171   0.00000  Uiso   1.00
H589   H     0.16006   0.30465   0.86007   0.00000  Uiso   1.00
H590   H     0.31916   0.13898   0.78962   0.00000  Uiso   1.00
H591   H     0.20681   0.00373   0.71183   0.00000  Uiso   1.00
H592   H     0.12470   0.33122   0.78864   0.00000  Uiso   1.00
H593   H     0.16060   0.06415   0.94496   0.00000  Uiso   1.00
H594   H     0.13274   0.22551   0.54621   0.00000  Uiso   1.00
H595   H     0.11887   0.27469   0.50159   0.00000  Uiso   1.00
H596   H     0.14254   0.11074   0.90208   0.00000  Uiso   1.00
H597   H     0.01554   0.19443   0.71048   0.00000  Uiso   1.00
O598   O     0.16667   0.16667   0.75000   0.00000  Uiso   1.00
O599   O     0.15451   0.12637   0.65458   0.00000  Uiso   1.00
O600   O     0.12940   0.20391   0.84968   0.00000  Uiso   1.00
O601   O     0.20824   0.17759   0.64606   0.00000  Uiso   1.00
O602   O     0.17451   0.15880   0.84968   0.00000  Uiso   1.00
O603   O     0.21161   0.03038   0.96687   0.00000  Uiso   1.00
O604   O     0.18077   0.00801   0.53566   0.00000  Uiso   1.00
O605   O     0.18459   0.23106   0.60086   0.00000  Uiso   1.00
O606   O     0.22824   0.23564   0.53111   0.00000  Uiso   1.00
O607   O     0.10421   0.29368   0.92686   0.00000  Uiso   1.00
O608   O     0.16469   0.27985   0.87443   0.00000  Uiso   1.00
O609   O     0.17930   0.08019   0.78213   0.00000  Uiso   1.00
O610   O     0.14632   0.26085   0.77013   0.00000  Uiso   1.00
O611   O     0.07412   0.13291   0.73413   0.00000  Uiso   1.00
O612   O     0.26693   0.19272   0.71360   0.00000  Uiso   1.00
O613   O     0.07071   0.18878   0.78213   0.00000  Uiso   1.00
O614   O     0.25491   0.15226   0.77013   0.00000  Uiso   1.00
O615   O     0.13760   0.06944   0.73413   0.00000  Uiso   1.00
O616   O     0.20345   0.25620   0.71360   0.00000  Uiso   1.00
Zn617  Zn    0.19338   0.13994   0.78734   0.00000  Uiso   1.00
Zn618  Zn    0.13379   0.12458   0.71875   0.00000  Uiso   1.00
Zn619  Zn    0.21056   0.19775   0.70657   0.00000  Uiso   1.00
Zn620  Zn    0.12893   0.20439   0.78733   0.00000  Uiso   1.00
C621   C     0.38603   0.15958   0.75995   0.00000  Uiso   1.00
C622   C     0.51826   0.16831   0.55398   0.00000  Uiso   1.00
C623   C     0.52437   0.09690   0.56497   0.00000  Uiso   1.00
C624   C     0.61406   0.17378   0.74004   0.00000  Uiso   1.00
C625   C     0.47752   0.19604   0.91951   0.00000  Uiso   1.00
C626   C     0.65990   0.17649   0.73605   0.00000  Uiso   1.00
C627   C     0.34077   0.15699   0.76373   0.00000  Uiso   1.00
C628   C     0.51366   0.32246   0.73667   0.00000  Uiso   1.00
C629   C     0.48491   0.01169   0.76371   0.00000  Uiso   1.00
C630   C     0.48931   0.05584   0.76021   0.00000  Uiso   1.00
C631   C     0.50986   0.27787   0.74022   0.00000  Uiso   1.00
C632   C     0.46229   0.24518   0.98534   0.00000  Uiso   1.00
C633   C     0.51794   0.14827   0.62930   0.00000  Uiso   1.00
C634   C     0.48233   0.18522   0.87091   0.00000  Uiso   1.00
C635   C     0.51967   0.08311   0.52218   0.00000  Uiso   1.00
C636   C     0.52316   0.13879   0.58122   0.00000  Uiso   1.00
C637   C     0.46814   0.23652   0.93927   0.00000  Uiso   1.00
C638   C     0.52660   0.03915   0.50578   0.00000  Uiso   1.00
C639   C     0.53240   0.21331   0.56428   0.00000  Uiso   1.00
C640   C     0.46609   0.27129   0.91324   0.00000  Uiso   1.00
C641   C     0.47218   0.21744   0.51065   0.00000  Uiso   1.00
C642   C     0.48838   0.18000   0.99059   0.00000  Uiso   1.00
C643   C     0.48442   0.16674   0.94668   0.00000  Uiso   1.00
C644   C     0.50493   0.15375   0.51408   0.00000  Uiso   1.00
C645   C     0.50759   0.11103   0.99727   0.00000  Uiso   1.00
C646   C     0.49582   0.09676   0.95724   0.00000  Uiso   1.00
C647   C     0.48542   0.12414   0.93204   0.00000  Uiso   1.00
H648   H     0.52961   0.07486   0.58605   0.00000  Uiso   1.00
H649   H     0.52154   0.31295   0.52095   0.00000  Uiso   1.00
H650   H     0.56883   0.26597   0.54171   0.00000  Uiso   1.00
H651   H     0.49339   0.30465   0.86007   0.00000  Uiso   1.00
H652   H     0.65249   0.13898   0.78962   0.00000  Uiso   1.00
H653   H     0.54015   0.00373   0.71183   0.00000  Uiso   1.00
H654   H     0.45803   0.33122   0.78864   0.00000  Uiso   1.00
H655   H     0.49393   0.06415   0.94496   0.00000  Uiso   1.00
H656   H     0.46608   0.22551   0.54621   0.00000  Uiso   1.00
H657   H     0.45220   0.27469   0.50159   0.00000  Uiso   1.00
H658   H     0.47587   0.11074   0.90208   0.00000  Uiso   1.00
H659   H     0.34888   0.19443   0.71048   0.00000  Uiso   1.00
O660   O     0.50000   0.16667   0.75000   0.00000  Uiso   1.00
O661   O     0.48784   0.12637   0.65458   0.00000  Uiso   1.00
O662   O     0.46274   0.20391   0.84968   0.00000  Uiso   1.00
O663   O     0.54157   0.17759   0.64606   0.00000  Uiso   1.00
O664   O     0.50785   0.15880   0.84968   0.00000  Uiso   1.00
O665   O     0.54495   0.03038   0.96687   0.00000  Uiso   1.00
O666   O     0.51411   0.00801   0.53566   0.00000  Uiso   1.00
O667   O     0.51793   0.23106   0.60086   0.00000  Uiso   1.00
O668   O     0.56157   0.23564   0.53111   0.00000  Uiso   1.00
O669   O     0.43754   0.29368   0.92686   0.00000  Uiso   1.00
O670   O     0.49803   0.27985   0.87443   0.00000  Uiso   1.00
O671   O     0.51264   0.08019   0.78213   0.00000  Uiso   1.00
O672   O     0.47965   0.26085   0.77013   0.00000  Uiso   1.00
O673   O     0.40745   0.13291   0.73413   0.00000  Uiso   1.00
O674   O     0.60026   0.19272   0.71360   0.00000  Uiso   1.00
O675   O     0.40405   0.18878   0.78213   0.00000  Uiso   1.00
O676   O     0.58824   0.15226   0.77013   0.00000  Uiso   1.00
O677   O     0.47093   0.06944   0.73413   0.00000  Uiso   1.00
O678   O     0.53678   0.25620   0.71360   0.00000  Uiso   1.00
Zn679  Zn    0.52672   0.13994   0.78734   0.00000  Uiso   1.00
Zn680  Zn    0.46713   0.12458   0.71875   0.00000  Uiso   1.00
Zn681  Zn    0.54389   0.19775   0.70657   0.00000  Uiso   1.00
Zn682  Zn    0.46226   0.20439   0.78733   0.00000  Uiso   1.00
C683   C     0.71937   0.15958   0.75995   0.00000  Uiso   1.00
C684   C     0.85159   0.16831   0.55398   0.00000  Uiso   1.00
C685   C     0.85771   0.09690   0.56497   0.00000  Uiso   1.00
C686   C     0.94739   0.17378   0.74004   0.00000  Uiso   1.00
C687   C     0.81086   0.19604   0.91951   0.00000  Uiso   1.00
C688   C     0.99323   0.17649   0.73605   0.00000  Uiso   1.00
C689   C     0.67411   0.15699   0.76373   0.00000  Uiso   1.00
C690   C     0.84700   0.32246   0.73667   0.00000  Uiso   1.00
C691   C     0.81824   0.01169   0.76371   0.00000  Uiso   1.00
C692   C     0.82264   0.05584   0.76021   0.00000  Uiso   1.00
C693   C     0.84319   0.27787   0.74022   0.00000  Uiso   1.00
C694   C     0.79562   0.24518   0.98534   0.00000  Uiso   1.00
C695   C     0.85127   0.14827   0.62930   0.00000  Uiso   1.00
C696   C     0.81566   0.18522   0.87091   0.00000  Uiso   1.00
C697   C     0.85301   0.08311   0.52218   0.00000  Uiso   1.00
C698   C     0.85649   0.13879   0.58122   0.00000  Uiso   1.00
C699   C     0.80147   0.23652   0.93927   0.00000  Uiso   1.00
C700   C     0.85993   0.03915   0.50578   0.00000  Uiso   1.00
C701   C     0.86574   0.21331   0.56428   0.00000  Uiso   1.00
C702   C     0.79942   0.27129   0.91324   0.00000  Uiso   1.00
C703   C     0.80551   0.21744   0.51065   0.00000  Uiso   1.00
C704   C     0.82171   0.18000   0.99059   0.00000  Uiso   1.00
C705   C     0.81775   0.16674   0.94668   0.00000  Uiso   1.00
C706   C     0.83827   0.15375   0.51408   0.00000  Uiso   1.00
C707   C     0.84092   0.11103   0.99727   0.00000  Uiso   1.00
C708   C     0.82915   0.09676   0.95724   0.00000  Uiso   1.00
C709   C     0.81875   0.12414   0.93204   0.00000  Uiso   1.00
H710   H     0.86295   0.07486   0.58605   0.00000  Uiso   1.00
H711   H     0.85487   0.31295   0.52095   0.00000  Uiso   1.00
H712   H     0.90217   0.26597   0.54171   0.00000  Uiso   1.00
H713   H     0.82672   0.30465   0.86007   0.00000  Uiso   1.00
H714   H     0.98582   0.13898   0.78962   0.00000  Uiso   1.00
H715   H     0.87348   0.00373   0.71183   0.00000  Uiso   1.00
H716   H     0.79136   0.33122   0.78864   0.00000  Uiso   1.00
H717   H     0.82727   0.06415   0.94496   0.00000  Uiso   1.00
H718   H     0.79941   0.22551   0.54621   0.00000  Uiso   1.00
H719   H     0.78554   0.27469   0.50159   0.00000  Uiso   1.00
H720   H     0.80921   0.11074   0.90208   0.00000  Uiso   1.00
H721   H     0.68221   0.19443   0.71048   0.00000  Uiso   1.00
O722   O     0.83333   0.16667   0.75000   0.00000  Uiso   1.00
O723   O     0.82118   0.12637   0.65458   0.00000  Uiso   1.00
O724   O     0.79607   0.20391   0.84968   0.00000  Uiso   1.00
O725   O     0.87491   0.17759   0.64606   0.00000  Uiso   1.00
O726   O     0.84118   0.15880   0.84968   0.00000  Uiso   1.00
O727   O     0.87828   0.03038   0.96687   0.00000  Uiso   1.00
O728   O     0.84744   0.00801   0.53566   0.00000  Uiso   1.00
O729   O     0.85126   0.23106   0.60086   0.00000  Uiso   1.00
O730   O     0.89490   0.23564   0.53111   0.00000  Uiso   1.00
O731   O     0.77088   0.29368   0.92686   0.00000  Uiso   1.00
O732   O     0.83136   0.27985   0.87443   0.00000  Uiso   1.00
O733   O     0.84597   0.08019   0.78213   0.00000  Uiso   1.00
O734   O     0.81298   0.26085   0.77013   0.00000  Uiso   1.00
O735   O     0.74078   0.13291   0.73413   0.00000  Uiso   1.00
O736   O     0.93360   0.19272   0.71360   0.00000  Uiso   1.00
O737   O     0.73738   0.18878   0.78213   0.00000  Uiso   1.00
O738   O     0.92158   0.15226   0.77013   0.00000  Uiso   1.00
O739   O     0.80426   0.06944   0.73413   0.00000  Uiso   1.00
O740   O     0.87012   0.25620   0.71360   0.00000  Uiso   1.00
Zn741  Zn    0.86005   0.13994   0.78734   0.00000  Uiso   1.00
Zn742  Zn    0.80046   0.12458   0.71875   0.00000  Uiso   1.00
Zn743  Zn    0.87723   0.19775   0.70657   0.00000  Uiso   1.00
Zn744  Zn    0.79560   0.20439   0.78733   0.00000  Uiso   1.00
C745   C     0.05270   0.49291   0.75995   0.00000  Uiso   1.00
C746   C     0.18492   0.50164   0.55398   0.00000  Uiso   1.00
C747   C     0.19104   0.43024   0.56497   0.00000  Uiso   1.00
C748   C     0.28072   0.50712   0.74004   0.00000  Uiso   1.00
C749   C     0.14419   0.52937   0.91951   0.00000  Uiso   1.00
C750   C     0.32657   0.50983   0.73605   0.00000  Uiso   1.00
C751   C     0.00744   0.49032   0.76373   0.00000  Uiso   1.00
C752   C     0.18033   0.65579   0.73667   0.00000  Uiso   1.00
C753   C     0.15158   0.34502   0.76371   0.00000  Uiso   1.00
C754   C     0.15597   0.38918   0.76021   0.00000  Uiso   1.00
C755   C     0.17652   0.61121   0.74022   0.00000  Uiso   1.00
C756   C     0.12895   0.57851   0.98534   0.00000  Uiso   1.00
C757   C     0.18461   0.48161   0.62930   0.00000  Uiso   1.00
C758   C     0.14899   0.51856   0.87091   0.00000  Uiso   1.00
C759   C     0.18634   0.41645   0.52218   0.00000  Uiso   1.00
C760   C     0.18982   0.47213   0.58122   0.00000  Uiso   1.00
C761   C     0.13480   0.56986   0.93927   0.00000  Uiso   1.00
C762   C     0.19327   0.37248   0.50578   0.00000  Uiso   1.00
C763   C     0.19907   0.54665   0.56428   0.00000  Uiso   1.00
C764   C     0.13276   0.60463   0.91324   0.00000  Uiso   1.00
C765   C     0.13885   0.55078   0.51065   0.00000  Uiso   1.00
C766   C     0.15505   0.51333   0.99059   0.00000  Uiso   1.00
C767   C     0.15109   0.50007   0.94668   0.00000  Uiso   1.00
C768   C     0.17160   0.48708   0.51408   0.00000  Uiso   1.00
C769   C     0.17425   0.44436   0.99727   0.00000  Uiso   1.00
C770   C     0.16249   0.43009   0.95724   0.00000  Uiso   1.00
C771   C     0.15208   0.45748   0.93204   0.00000  Uiso   1.00
H772   H     0.19628   0.40819   0.58605   0.00000  Uiso   1.00
H773   H     0.18821   0.64628   0.52095   0.00000  Uiso   1.00
H774   H     0.23550   0.59930   0.54171   0.00000  Uiso   1.00
H775   H     0.16006   0.63798   0.86007   0.00000  Uiso   1.00
H776   H     0.31916   0.47231   0.78962   0.00000  Uiso   1.00
H777   H     0.20681   0.33706   0.71183   0.00000  Uiso   1.00
H778   H     0.12470   0.66455   0.78864   0.00000  Uiso   1.00
H779   H     0.16060   0.39748   0.94496   0.00000  Uiso   1.00
H780   H     0.13274   0.55884   0.54621   0.00000  Uiso   1.00
H781   H     0.11887   0.60803   0.50159   0.00000  Uiso   1.00
H782   H     0.14254   0.44407   0.90208   0.00000  Uiso   1.00
H783   H     0.01554   0.52777   0.71048   0.00000  Uiso   1.00
O784   O     0.16667   0.50000   0.75000   0.00000  Uiso   1.00
O785   O     0.15451   0.45970   0.65458   0.00000  Uiso   1.00
O786   O     0.12940   0.53724   0.84968   0.00000  Uiso   1.00
O787   O     0.20824   0.51092   0.64606   0.00000  Uiso   1.00
O788   O     0.17451   0.49213   0.84968   0.00000  Uiso   1.00
O789   O     0.21161   0.36372   0.96687   0.00000  Uiso   1.00
O790   O     0.18077   0.34135   0.53566   0.00000  Uiso   1.00
O791   O     0.18459   0.56440   0.60086   0.00000  Uiso   1.00
O792   O     0.22824   0.56897   0.53111   0.00000  Uiso   1.00
O793   O     0.10421   0.62701   0.92686   0.00000  Uiso   1.00
O794   O     0.16469   0.61318   0.87443   0.00000  Uiso   1.00
O795   O     0.17930   0.41352   0.78213   0.00000  Uiso   1.00
O796   O     0.14632   0.59418   0.77013   0.00000  Uiso   1.00
O797   O     0.07412   0.46625   0.73413   0.00000  Uiso   1.00
O798   O     0.26693   0.52605   0.71360   0.00000  Uiso   1.00
O799   O     0.07071   0.52211   0.78213   0.00000  Uiso   1.00
O800   O     0.25491   0.48559   0.77013   0.00000  Uiso   1.00
O801   O     0.13760   0.40277   0.73413   0.00000  Uiso   1.00
O802   O     0.20345   0.58953   0.71360   0.00000  Uiso   1.00
Zn803  Zn    0.19338   0.47327   0.78734   0.00000  Uiso   1.00
Zn804  Zn    0.13379   0.45791   0.71875   0.00000  Uiso   1.00
Zn805  Zn    0.21056   0.53109   0.70657   0.00000  Uiso   1.00
Zn806  Zn    0.12893   0.53773   0.78733   0.00000  Uiso   1.00
C807   C     0.38603   0.49291   0.75995   0.00000  Uiso   1.00
C808   C     0.51826   0.50164   0.55398   0.00000  Uiso   1.00
C809   C     0.52437   0.43024   0.56497   0.00000  Uiso   1.00
C810   C     0.61406   0.50712   0.74004   0.00000  Uiso   1.00
C811   C     0.47752   0.52937   0.91951   0.00000  Uiso   1.00
C812   C     0.65990   0.50983   0.73605   0.00000  Uiso   1.00
C813   C     0.34077   0.49032   0.76373   0.00000  Uiso   1.00
C814   C     0.51366   0.65579   0.73667   0.00000  Uiso   1.00
C815   C     0.48491   0.34502   0.76371   0.00000  Uiso   1.00
C816   C     0.48931   0.38918   0.76021   0.00000  Uiso   1.00
C817   C     0.50986   0.61121   0.74022   0.00000  Uiso   1.00
C818   C     0.46229   0.57851   0.98534   0.00000  Uiso   1.00
C819   C     0.51794   0.48161   0.62930   0.00000  Uiso   1.00
C820   C     0.48233   0.51856   0.87091   0.00000  Uiso   1.00
C821   C     0.51967   0.41645   0.52218   0.00000  Uiso   1.00
C822   C     0.52316   0.47213   0.58122   0.00000  Uiso   1.00
C823   C     0.46814   0.56986   0.93927   0.00000  Uiso   1.00
C824   C     0.52660   0.37248   0.50578   0.00000  Uiso   1.00
C825   C     0.53240   0.54665   0.56428   0.00000  Uiso   1.00
C826   C     0.46609   0.60463   0.91324   0.00000  Uiso   1.00
C827   C     0.47218   0.55078   0.51065   0.00000  Uiso   1.00
C828   C     0.48838   0.51333   0.99059   0.00000  Uiso   1.00
C829   C     0.48442   0.50007   0.94668   0.00000  Uiso   1.00
C830   C     0.50493   0.48708   0.51408   0.00000  Uiso   1.00
C831   C     0.50759   0.44436   0.99727   0.00000  Uiso   1.00
C832   C     0.49582   0.43009   0.95724   0.00000  Uiso   1.00
C833   C     0.48542   0.45748   0.93204   0.00000  Uiso   1.00
H834   H     0.52961   0.40819   0.58605   0.00000  Uiso   1.00
H835   H     0.52154   0.64628   0.52095   0.00000  Uiso   1.00
H836   H     0.56883   0.59930   0.54171   0.00000  Uiso   1.00
H837   H     0.49339   0.63798   0.86007   0.00000  Uiso   1.00
H838   H     0.65249   0.47231   0.78962   0.00000  Uiso   1.00
H839   H     0.54015   0.33706   0.71183   0.00000  Uiso   1.00
H840   H     0.45803   0.66455   0.78864   0.00000  Uiso   1.00
H841   H     0.49393   0.39748   0.94496   0.00000  Uiso   1.00
H842   H     0.46608   0.55884   0.54621   0.00000  Uiso   1.00
H843   H     0.45220   0.60803   0.50159   0.00000  Uiso   1.00
H844   H     0.47587   0.44407   0.90208   0.00000  Uiso   1.00
H845   H     0.34888   0.52777   0.71048   0.00000  Uiso   1.00
O846   O     0.50000   0.50000   0.75000   0.00000  Uiso   1.00
O847   O     0.48784   0.45970   0.65458   0.00000  Uiso   1.00
O848   O     0.46274   0.53724   0.84968   0.00000  Uiso   1.00
O849   O     0.54157   0.51092   0.64606   0.00000  Uiso   1.00
O850   O     0.50785   0.49213   0.84968   0.00000  Uiso   1.00
O851   O     0.54495   0.36372   0.96687   0.00000  Uiso   1.00
O852   O     0.51411   0.34135   0.53566   0.00000  Uiso   1.00
O853   O     0.51793   0.56440   0.60086   0.00000  Uiso   1.00
O854   O     0.56157   0.56897   0.53111   0.00000  Uiso   1.00
O855   O     0.43754   0.62701   0.92686   0.00000  Uiso   1.00
O856   O     0.49803   0.61318   0.87443   0.00000  Uiso   1.00
O857   O     0.51264   0.41352   0.78213   0.00000  Uiso   1.00
O858   O     0.47965   0.59418   0.77013   0.00000  Uiso   1.00
O859   O     0.40745   0.46625   0.73413   0.00000  Uiso   1.00
O860   O     0.60026   0.52605   0.71360   0.00000  Uiso   1.00
O861   O     0.40405   0.52211   0.78213   0.00000  Uiso   1.00
O862   O     0.58824   0.48559   0.77013   0.00000  Uiso   1.00
O863   O     0.47093   0.40277   0.73413   0.00000  Uiso   1.00
O864   O     0.53678   0.58953   0.71360   0.00000  Uiso   1.00
Zn865  Zn    0.52672   0.47327   0.78734   0.00000  Uiso   1.00
Zn866  Zn    0.46713   0.45791   0.71875   0.00000  Uiso   1.00
Zn867  Zn    0.54389   0.53109   0.70657   0.00000  Uiso   1.00
Zn868  Zn    0.46226   0.53773   0.78733   0.00000  Uiso   1.00
C869   C     0.71937   0.49291   0.75995   0.00000  Uiso   1.00
C870   C     0.85159   0.50164   0.55398   0.00000  Uiso   1.00
C871   C     0.85771   0.43024   0.56497   0.00000  Uiso   1.00
C872   C     0.94739   0.50712   0.74004   0.00000  Uiso   1.00
C873   C     0.81086   0.52937   0.91951   0.00000  Uiso   1.00
C874   C     0.99323   0.50983   0.73605   0.00000  Uiso   1.00
C875   C     0.67411   0.49032   0.76373   0.00000  Uiso   1.00
C876   C     0.84700   0.65579   0.73667   0.00000  Uiso   1.00
C877   C     0.81824   0.34502   0.76371   0.00000  Uiso   1.00
C878   C     0.82264   0.38918   0.76021   0.00000  Uiso   1.00
C879   C     0.84319   0.61121   0.74022   0.00000  Uiso   1.00
C880   C     0.79562   0.57851   0.98534   0.00000  Uiso   1.00
C881   C     0.85127   0.48161   0.62930   0.00000  Uiso   1.00
C882   C     0.81566   0.51856   0.87091   0.00000  Uiso   1.00
C883   C     0.85301   0.41645   0.52218   0.00000  Uiso   1.00
C884   C     0.85649   0.47213   0.58122   0.00000  Uiso   1.00
C885   C     0.80147   0.56986   0.93927   0.00000  Uiso   1.00
C886   C     0.85993   0.37248   0.50578   0.00000  Uiso   1.00
C887   C     0.86574   0.54665   0.56428   0.00000  Uiso   1.00
C888   C     0.79942   0.60463   0.91324   0.00000  Uiso   1.00
C889   C     0.80551   0.55078   0.51065   0.00000  Uiso   1.00
C890   C     0.82171   0.51333   0.99059   0.00000  Uiso   1.00
C891   C     0.81775   0.50007   0.94668   0.00000  Uiso   1.00
C892   C     0.83827   0.48708   0.51408   0.00000  Uiso   1.00
C893   C     0.84092   0.44436   0.99727   0.00000  Uiso   1.00
C894   C     0.82915   0.43009   0.95724   0.00000  Uiso   1.00
C895   C     0.81875   0.45748   0.93204   0.00000  Uiso   1.00
H896   H     0.86295   0.40819   0.58605   0.00000  Uiso   1.00
H897   H     0.85487   0.64628   0.52095   0.00000  Uiso   1.00
H898   H     0.90217   0.59930   0.54171   0.00000  Uiso   1.00
H899   H     0.82672   0.63798   0.86007   0.00000  Uiso   1.00
H900   H     0.98582   0.47231   0.78962   0.00000  Uiso   1.00
H901   H     0.87348   0.33706   0.71183   0.00000  Uiso   1.00
H902   H     0.79136   0.66455   0.78864   0.00000  Uiso   1.00
H903   H     0.82727   0.39748   0.94496   0.00000  Uiso   1.00
H904   H     0.79941   0.55884   0.54621   0.00000  Uiso   1.00
H905   H     0.78554   0.60803   0.50159   0.00000  Uiso   1.00
H906   H     0.80921   0.44407   0.90208   0.00000  Uiso   1.00
H907   H     0.68221   0.52777   0.71048   0.00000  Uiso   1.00
O908   O     0.83333   0.50000   0.75000   0.00000  Uiso   1.00
O909   O     0.82118   0.45970   0.65458   0.00000  Uiso   1.00
O910   O     0.79607   0.53724   0.84968   0.00000  Uiso   1.00
O911   O     0.87491   0.51092   0.64606   0.00000  Uiso   1.00
O912   O     0.84118   0.49213   0.84968   0.00000  Uiso   1.00
O913   O     0.87828   0.36372   0.96687   0.00000  Uiso   1.00
O914   O     0.84744   0.34135   0.53566   0.00000  Uiso   1.00
O915   O     0.85126   0.56440   0.60086   0.00000  Uiso   1.00
O916   O     0.89490   0.56897   0.53111   0.00000  Uiso   1.00
O917   O     0.77088   0.62701   0.92686   0.00000  Uiso   1.00
O918   O     0.83136   0.61318   0.87443   0.00000  Uiso   1.00
O919   O     0.84597   0.41352   0.78213   0.00000  Uiso   1.00
O920   O     0.81298   0.59418   0.77013   0.00000  Uiso   1.00
O921   O     0.74078   0.46625   0.73413   0.00000  Uiso   1.00
O922   O     0.93360   0.52605   0.71360   0.00000  Uiso   1.00
O923   O     0.73738   0.52211   0.78213   0.00000  Uiso   1.00
O924   O     0.92158   0.48559   0.77013   0.00000  Uiso   1.00
O925   O     0.80426   0.40277   0.73413   0.00000  Uiso   1.00
O926   O     0.87012   0.58953   0.71360   0.00000  Uiso   1.00
Zn927  Zn    0.86005   0.47327   0.78734   0.00000  Uiso   1.00
Zn928  Zn    0.80046   0.45791   0.71875   0.00000  Uiso   1.00
Zn929  Zn    0.87723   0.53109   0.70657   0.00000  Uiso   1.00
Zn930  Zn    0.79560   0.53773   0.78733   0.00000  Uiso   1.00
C931   C     0.05270   0.82624   0.75995   0.00000  Uiso   1.00
C932   C     0.18492   0.83498   0.55398   0.00000  Uiso   1.00
C933   C     0.19104   0.76357   0.56497   0.00000  Uiso   1.00
C934   C     0.28072   0.84045   0.74004   0.00000  Uiso   1.00
C935   C     0.14419   0.86271   0.91951   0.00000  Uiso   1.00
C936   C     0.32657   0.84316   0.73605   0.00000  Uiso   1.00
C937   C     0.00744   0.82365   0.76373   0.00000  Uiso   1.00
C938   C     0.18033   0.98912   0.73667   0.00000  Uiso   1.00
C939   C     0.15158   0.67835   0.76371   0.00000  Uiso   1.00
C940   C     0.15597   0.72251   0.76021   0.00000  Uiso   1.00
C941   C     0.17652   0.94454   0.74022   0.00000  Uiso   1.00
C942   C     0.12895   0.91185   0.98534   0.00000  Uiso   1.00
C943   C     0.18461   0.81494   0.62930   0.00000  Uiso   1.00
C944   C     0.14899   0.85189   0.87091   0.00000  Uiso   1.00
C945   C     0.18634   0.74978   0.52218   0.00000  Uiso   1.00
C946   C     0.18982   0.80546   0.58122   0.00000  Uiso   1.00
C947   C     0.13480   0.90319   0.93927   0.00000  Uiso   1.00
C948   C     0.19327   0.70581   0.50578   0.00000  Uiso   1.00
C949   C     0.19907   0.87998   0.56428   0.00000  Uiso   1.00
C950   C     0.13276   0.93796   0.91324   0.00000  Uiso   1.00
C951   C     0.13885   0.88411   0.51065   0.00000  Uiso   1.00
C952   C     0.15505   0.84666   0.99059   0.00000  Uiso   1.00
C953   C     0.15109   0.83341   0.94668   0.00000  Uiso   1.00
C954   C     0.17160   0.82041   0.51408   0.00000  Uiso   1.00
C955   C     0.17425   0.77769   0.99727   0.00000  Uiso   1.00
C956   C     0.16249   0.76342   0.95724   0.00000  Uiso   1.00
C957   C     0.15208   0.79081   0.93204   0.00000  Uiso   1.00
H958   H     0.19628   0.74153   0.58605   0.00000  Uiso   1.00
H959   H     0.18821   0.97962   0.52095   0.00000  Uiso   1.00
H960   H     0.23550   0.93263   0.54171   0.00000  Uiso   1.00
H961   H     0.16006   0.97132   0.86007   0.00000  Uiso   1.00
H962   H     0.31916   0.80564   0.78962   0.00000  Uiso   1.00
H963   H     0.20681   0.67040   0.71183   0.00000  Uiso   1.00
H964   H     0.12470   0.99788   0.78864   0.00000  Uiso   1.00
H965   H     0.16060   0.73081   0.94496   0.00000  Uiso   1.00
H966   H     0.13274   0.89217   0.54621   0.00000  Uiso   1.00
H967   H     0.11887   0.94136   0.50159   0.00000  Uiso   1.00
H968   H     0.14254   0.77740   0.90208   0.00000  Uiso   1.00
H969   H     0.01554   0.86110   0.71048   0.00000  Uiso   1.00
O970   O     0.16667   0.83333   0.75000   0.00000  Uiso   1.00
O971   O     0.15451   0.79304   0.65458   0.00000  Uiso   1.00
O972   O     0.12940   0.87058   0.84968   0.00000  Uiso   1.00
O973   O     0.20824   0.84425   0.64606   0.00000  Uiso   1.00
O974   O     0.17451   0.82546   0.84968   0.00000  Uiso   1.00
O975   O     0.21161   0.69705   0.96687   0.00000  Uiso   1.00
O976   O     0.18077   0.67468   0.53566   0.00000  Uiso   1.00
O977   O     0.18459   0.89773   0.60086   0.00000  Uiso   1.00
O978   O     0.22824   0.90230   0.53111   0.00000  Uiso   1.00
O979   O     0.10421   0.96035   0.92686   0.00000  Uiso   1.00
O980   O     0.16469   0.94652   0.87443   0.00000  Uiso   1.00
O981   O     0.17930   0.74686   0.78213   0.00000  Uiso   1.00
O982   O     0.14632   0.92751   0.77013   0.00000  Uiso   1.00
O983   O     0.07412   0.79958   0.73413   0.00000  Uiso   1.00
O984   O     0.26693   0.85939   0.71360   0.00000  Uiso   1.00
O985   O     0.07071   0.85544   0.78213   0.00000  Uiso   1.00
O986   O     0.25491   0.81892   0.77013   0.00000  Uiso   1.00
O987   O     0.13760   0.73610   0.73413   0.00000  Uiso   1.00
O988   O     0.20345   0.92286   0.71360   0.00000  Uiso   1.00
Zn989  Zn    0.19338   0.80661   0.78734   0.00000  Uiso   1.00
Zn990  Zn    0.13379   0.79124   0.71875   0.00000  Uiso   1.00
Zn991  Zn    0.21056   0.86442   0.70657   0.00000  Uiso   1.00
Zn992  Zn    0.12893   0.87106   0.78733   0.00000  Uiso   1.00
C993   C     0.38603   0.82624   0.75995   0.00000  Uiso   1.00
C994   C     0.51826   0.83498   0.55398   0.00000  Uiso   1.00
C995   C     0.52437   0.76357   0.56497   0.00000  Uiso   1.00
C996   C     0.61406   0.84045   0.74004   0.00000  Uiso   1.00
C997   C     0.47752   0.86271   0.91951   0.00000  Uiso   1.00
C998   C     0.65990   0.84316   0.73605   0.00000  Uiso   1.00
C999   C     0.34077   0.82365   0.76373   0.00000  Uiso   1.00
C1000  C     0.51366   0.98912   0.73667   0.00000  Uiso   1.00
C1001  C     0.48491   0.67835   0.76371   0.00000  Uiso   1.00
C1002  C     0.48931   0.72251   0.76021   0.00000  Uiso   1.00
C1003  C     0.50986   0.94454   0.74022   0.00000  Uiso   1.00
C1004  C     0.46229   0.91185   0.98534   0.00000  Uiso   1.00
C1005  C     0.51794   0.81494   0.62930   0.00000  Uiso   1.00
C1006  C     0.48233   0.85189   0.87091   0.00000  Uiso   1.00
C1007  C     0.51967   0.74978   0.52218   0.00000  Uiso   1.00
C1008  C     0.52316   0.80546   0.58122   0.00000  Uiso   1.00
C1009  C     0.46814   0.90319   0.93927   0.00000  Uiso   1.00
C1010  C     0.52660   0.70581   0.50578   0.00000  Uiso   1.00
C1011  C     0.53240   0.87998   0.56428   0.00000  Uiso   1.00
C1012  C     0.46609   0.93796   0.91324   0.00000  Uiso   1.00
C1013  C     0.47218   0.88411   0.51065   0.00000  Uiso   1.00
C1014  C     0.48838   0.84666   0.99059   0.00000  Uiso   1.00
C1015  C     0.48442   0.83341   0.94668   0.00000  Uiso   1.00
C1016  C     0.50493   0.82041   0.51408   0.00000  Uiso   1.00
C1017  C     0.50759   0.77769   0.99727   0.00000  Uiso   1.00
C1018  C     0.49582   0.76342   0.95724   0.00000  Uiso   1.00
C1019  C     0.48542   0.79081   0.93204   0.00000  Uiso   1.00
H1020  H     0.52961   0.74153   0.58605   0.00000  Uiso   1.00
H1021  H     0.52154   0.97962   0.52095   0.00000  Uiso   1.00
H1022  H     0.56883   0.93263   0.54171   0.00000  Uiso   1.00
H1023  H     0.49339   0.97132   0.86007   0.00000  Uiso   1.00
H1024  H     0.65249   0.80564   0.78962   0.00000  Uiso   1.00
H1025  H     0.54015   0.67040   0.71183   0.00000  Uiso   1.00
H1026  H     0.45803   0.99788   0.78864   0.00000  Uiso   1.00
H1027  H     0.49393   0.73081   0.94496   0.00000  Uiso   1.00
H1028  H     0.46608   0.89217   0.54621   0.00000  Uiso   1.00
H1029  H     0.45220   0.94136   0.50159   0.00000  Uiso   1.00
H1030  H     0.47587   0.77740   0.90208   0.00000  Uiso   1.00
H1031  H     0.34888   0.86110   0.71048   0.00000  Uiso   1.00
O1032  O     0.50000   0.83333   0.75000   0.00000  Uiso   1.00
O1033  O     0.48784   0.79304   0.65458   0.00000  Uiso   1.00
O1034  O     0.46274   0.87058   0.84968   0.00000  Uiso   1.00
O1035  O     0.54157   0.84425   0.64606   0.00000  Uiso   1.00
O1036  O     0.50785   0.82546   0.84968   0.00000  Uiso   1.00
O1037  O     0.54495   0.69705   0.96687   0.00000  Uiso   1.00
O1038  O     0.51411   0.67468   0.53566   0.00000  Uiso   1.00
O1039  O     0.51793   0.89773   0.60086   0.00000  Uiso   1.00
O1040  O     0.56157   0.90230   0.53111   0.00000  Uiso   1.00
O1041  O     0.43754   0.96035   0.92686   0.00000  Uiso   1.00
O1042  O     0.49803   0.94652   0.87443   0.00000  Uiso   1.00
O1043  O     0.51264   0.74686   0.78213   0.00000  Uiso   1.00
O1044  O     0.47965   0.92751   0.77013   0.00000  Uiso   1.00
O1045  O     0.40745   0.79958   0.73413   0.00000  Uiso   1.00
O1046  O     0.60026   0.85939   0.71360   0.00000  Uiso   1.00
O1047  O     0.40405   0.85544   0.78213   0.00000  Uiso   1.00
O1048  O     0.58824   0.81892   0.77013   0.00000  Uiso   1.00
O1049  O     0.47093   0.73610   0.73413   0.00000  Uiso   1.00
O1050  O     0.53678   0.92286   0.71360   0.00000  Uiso   1.00
Zn1051 Zn    0.52672   0.80661   0.78734   0.00000  Uiso   1.00
Zn1052 Zn    0.46713   0.79124   0.71875   0.00000  Uiso   1.00
Zn1053 Zn    0.54389   0.86442   0.70657   0.00000  Uiso   1.00
Zn1054 Zn    0.46226   0.87106   0.78733   0.00000  Uiso   1.00
C1055  C     0.71937   0.82624   0.75995   0.00000  Uiso   1.00
C1056  C     0.85159   0.83498   0.55398   0.00000  Uiso   1.00
C1057  C     0.85771   0.76357   0.56497   0.00000  Uiso   1.00
C1058  C     0.94739   0.84045   0.74004   0.00000  Uiso   1.00
C1059  C     0.81086   0.86271   0.91951   0.00000  Uiso   1.00
C1060  C     0.99323   0.84316   0.73605   0.00000  Uiso   1.00
C1061  C     0.67411   0.82365   0.76373   0.00000  Uiso   1.00
C1062  C     0.84700   0.98912   0.73667   0.00000  Uiso   1.00
C1063  C     0.81824   0.67835   0.76371   0.00000  Uiso   1.00
C1064  C     0.82264   0.72251   0.76021   0.00000  Uiso   1.00
C1065  C     0.84319   0.94454   0.74022   0.00000  Uiso   1.00
C1066  C     0.79562   0.91185   0.98534   0.00000  Uiso   1.00
C1067  C     0.85127   0.81494   0.62930   0.00000  Uiso   1.00
C1068  C     0.81566   0.85189   0.87091   0.00000  Uiso   1.00
C1069  C     0.85301   0.74978   0.52218   0.00000  Uiso   1.00
C1070  C     0.85649   0.80546   0.58122   0.00000  Uiso   1.00
C1071  C     0.80147   0.90319   0.93927   0.00000  Uiso   1.00
C1072  C     0.85993   0.70581   0.50578   0.00000  Uiso   1.00
C1073  C     0.86574   0.87998   0.56428   0.00000  Uiso   1.00
C1074  C     0.79942   0.93796   0.91324   0.00000  Uiso   1.00
C1075  C     0.80551   0.88411   0.51065   0.00000  Uiso   1.00
C1076  C     0.82171   0.84666   0.99059   0.00000  Uiso   1.00
C1077  C     0.81775   0.83341   0.94668   0.00000  Uiso   1.00
C1078  C     0.83827   0.82041   0.51408   0.00000  Uiso   1.00
C1079  C     0.84092   0.77769   0.99727   0.00000  Uiso   1.00
C1080  C     0.82915   0.76342   0.95724   0.00000  Uiso   1.00
C1081  C     0.81875   0.79081   0.93204   0.00000  Uiso   1.00
H1082  H     0.86295   0.74153   0.58605   0.00000  Uiso   1.00
H1083  H     0.85487   0.97962   0.52095   0.00000  Uiso   1.00
H1084  H     0.90217   0.93263   0.54171   0.00000  Uiso   1.00
H1085  H     0.82672   0.97132   0.86007   0.00000  Uiso   1.00
H1086  H     0.98582   0.80564   0.78962   0.00000  Uiso   1.00
H1087  H     0.87348   0.67040   0.71183   0.00000  Uiso   1.00
H1088  H     0.79136   0.99788   0.78864   0.00000  Uiso   1.00
H1089  H     0.82727   0.73081   0.94496   0.00000  Uiso   1.00
H1090  H     0.79941   0.89217   0.54621   0.00000  Uiso   1.00
H1091  H     0.78554   0.94136   0.50159   0.00000  Uiso   1.00
H1092  H     0.80921   0.77740   0.90208   0.00000  Uiso   1.00
H1093  H     0.68221   0.86110   0.71048   0.00000  Uiso   1.00
O1094  O     0.83333   0.83333   0.75000   0.00000  Uiso   1.00
O1095  O     0.82118   0.79304   0.65458   0.00000  Uiso   1.00
O1096  O     0.79607   0.87058   0.84968   0.00000  Uiso   1.00
O1097  O     0.87491   0.84425   0.64606   0.00000  Uiso   1.00
O1098  O     0.84118   0.82546   0.84968   0.00000  Uiso   1.00
O1099  O     0.87828   0.69705   0.96687   0.00000  Uiso   1.00
O1100  O     0.84744   0.67468   0.53566   0.00000  Uiso   1.00
O1101  O     0.85126   0.89773   0.60086   0.00000  Uiso   1.00
O1102  O     0.89490   0.90230   0.53111   0.00000  Uiso   1.00
O1103  O     0.77088   0.96035   0.92686   0.00000  Uiso   1.00
O1104  O     0.83136   0.94652   0.87443   0.00000  Uiso   1.00
O1105  O     0.84597   0.74686   0.78213   0.00000  Uiso   1.00
O1106  O     0.81298   0.92751   0.77013   0.00000  Uiso   1.00
O1107  O     0.74078   0.79958   0.73413   0.00000  Uiso   1.00
O1108  O     0.93360   0.85939   0.71360   0.00000  Uiso   1.00
O1109  O     0.73738   0.85544   0.78213   0.00000  Uiso   1.00
O1110  O     0.92158   0.81892   0.77013   0.00000  Uiso   1.00
O1111  O     0.80426   0.73610   0.73413   0.00000  Uiso   1.00
O1112  O     0.87012   0.92286   0.71360   0.00000  Uiso   1.00
Zn1113 Zn    0.86005   0.80661   0.78734   0.00000  Uiso   1.00
Zn1114 Zn    0.80046   0.79124   0.71875   0.00000  Uiso   1.00
Zn1115 Zn    0.87723   0.86442   0.70657   0.00000  Uiso   1.00
Zn1116 Zn    0.79560   0.87106   0.78733   0.00000  Uiso   1.00
loop_
_geom_bond_atom_site_label_1
_geom_bond_atom_site_label_2
_geom_bond_distance
_geom_bond_site_symmetry_2
_ccdc_geom_bond_type
C1     O55     1.267   .     A
C1     O53     1.267   .     A
C1     C7      1.437   .     S
C2     C16     1.404   .     A
C2     C24     1.425   .     A
C2     C19     1.488   .     S
C3     C15     1.392   .     A
C3     H28     1.085   .     S
C3     C16     1.396   .     A
C4     O56     1.282   .     A
C4     C6      1.455   .     S
C4     O54     1.285   .     A
C5     C23     1.423   .     A
C5     C14     1.483   .     S
C5     C17     1.425   .     A
C6     C69     1.334   .     S
C6     H101    1.088   .     S
C7     C130    1.334   1_455 S
C7     H156    1.086   1_455 S
C8     C11     1.450   .     S
C8     C195    1.331   .     S
C8     H219    1.088   .     S
C9     C10     1.434   .     S
C9     C380    1.331   1_545 S
C9     H406    1.086   1_545 S
C10    O51     1.275   .     A
C10    O57     1.275   .     A
C11    O58     1.272   .     A
C11    O52     1.274   .     A
C12    C17     1.395   .     A
C12    C579    1.387   .     S
C12    H595    1.084   .     S
C13    O41     1.268   .     A
C13    O43     1.280   .     A
C13    C16     1.460   .     S
C14    O42     1.281   .     A
C14    O44     1.287   .     A
C15    C18     1.488   .     S
C15    C583    1.418   1_554 S
C17    C20     1.484   .     S
C18    O46     1.399   .     S
C18    O603    1.223   1_554 S
C19    O47     1.223   .     D
C19    O48     1.398   .     S
C20    O49     1.223   .     D
C20    O50     1.399   .     S
C21    H36     1.079   .     S
C21    C570    1.387   1_554 S
C21    C580    1.410   1_554 S
C22    C23     1.415   .     A
C22    C579    1.410   .     S
C22    C582    1.428   .     S
C23    C27     1.406   .     A
C24    C580    1.428   1_554 S
C24    C583    1.430   1_554 S
C25    C26     1.402   .     A
C25    C582    1.430   .     S
C25    C573    1.418   .     S
C26    C27     1.384   .     A
C26    H35     1.080   .     S
C27    H38     1.080   .     S
H29    O232    1.013   .     S
H30    O48     1.014   .     S
H31    O50     1.014   .     S
H32    C69     1.086   .     S
H33    C380    1.088   1_545 S
H34    C195    1.086   .     S
H37    C570    1.084   1_554 S
H39    C130    1.088   1_455 S
O40    Zn60    1.934   .     S
O40    Zn59    1.962   .     S
O40    Zn61    1.943   .     S
O40    Zn62    1.931   .     S
O41    Zn60    1.939   .     S
O42    Zn62    1.945   .     S
O43    Zn61    1.934   .     S
O44    Zn59    1.929   .     S
O45    C576    1.223   .     S
O46    H401    1.013   1_545 S
O51    Zn59    1.923   .     S
O52    Zn62    1.932   .     S
O53    Zn60    1.928   .     S
O54    Zn61    1.935   .     S
O55    Zn62    1.930   .     S
O56    Zn59    1.926   .     S
O57    Zn60    1.937   .     S
O58    Zn61    1.926   .     S
C63    O117    1.267   .     A
C63    O115    1.267   .     A
C63    C69     1.437   .     S
C64    C78     1.404   .     A
C64    C86     1.425   .     A
C64    C81     1.488   .     S
C65    C77     1.392   .     A
C65    H90     1.085   .     S
C65    C78     1.396   .     A
C66    O118    1.282   .     A
C66    C68     1.455   .     S
C66    O116    1.285   .     A
C67    C85     1.423   .     A
C67    C76     1.483   .     S
C67    C79     1.425   .     A
C68    C131    1.334   .     S
C68    H163    1.088   .     S
C70    C73     1.450   .     S
C70    C257    1.331   .     S
C70    H281    1.088   .     S
C71    C72     1.434   .     S
C71    C442    1.331   1_545 S
C71    H468    1.086   1_545 S
C72    O113    1.275   .     A
C72    O119    1.275   .     A
C73    O120    1.272   .     A
C73    O114    1.274   .     A
C74    C79     1.395   .     A
C74    C641    1.387   .     S
C74    H657    1.084   .     S
C75    O103    1.268   .     A
C75    O105    1.280   .     A
C75    C78     1.460   .     S
C76    O104    1.281   .     A
C76    O106    1.287   .     A
C77    C80     1.488   .     S
C77    C645    1.418   1_554 S
C79    C82     1.484   .     S
C80    O108    1.399   .     S
C80    O665    1.223   1_554 S
C81    O109    1.223   .     D
C81    O110    1.398   .     S
C82    O111    1.223   .     D
C82    O112    1.399   .     S
C83    H98     1.079   .     S
C83    C632    1.387   1_554 S
C83    C642    1.410   1_554 S
C84    C85     1.415   .     A
C84    C641    1.410   .     S
C84    C644    1.428   .     S
C85    C89     1.406   .     A
C86    C642    1.428   1_554 S
C86    C645    1.430   1_554 S
C87    C88     1.402   .     A
C87    C644    1.430   .     S
C87    C635    1.418   .     S
C88    C89     1.384   .     A
C88    H97     1.080   .     S
C89    H100    1.080   .     S
H91    O294    1.013   .     S
H92    O110    1.014   .     S
H93    O112    1.014   .     S
H94    C131    1.086   .     S
H95    C442    1.088   1_545 S
H96    C257    1.086   .     S
H99    C632    1.084   1_554 S
O102   Zn122   1.934   .     S
O102   Zn121   1.962   .     S
O102   Zn123   1.943   .     S
O102   Zn124   1.931   .     S
O103   Zn122   1.939   .     S
O104   Zn124   1.945   .     S
O105   Zn123   1.934   .     S
O106   Zn121   1.929   .     S
O107   C638    1.223   .     S
O108   H463    1.013   1_545 S
O113   Zn121   1.923   .     S
O114   Zn124   1.932   .     S
O115   Zn122   1.928   .     S
O116   Zn123   1.935   .     S
O117   Zn124   1.930   .     S
O118   Zn121   1.926   .     S
O119   Zn122   1.937   .     S
O120   Zn123   1.926   .     S
C125   O179    1.267   .     A
C125   O177    1.267   .     A
C125   C131    1.437   .     S
C126   C140    1.404   .     A
C126   C148    1.425   .     A
C126   C143    1.488   .     S
C127   C139    1.392   .     A
C127   H152    1.085   .     S
C127   C140    1.396   .     A
C128   O180    1.282   .     A
C128   C130    1.455   .     S
C128   O178    1.285   .     A
C129   C147    1.423   .     A
C129   C138    1.483   .     S
C129   C141    1.425   .     A
C130   C7      1.334   1_655 S
C130   H39     1.088   1_655 S
C132   C135    1.450   .     S
C132   C319    1.331   .     S
C132   H343    1.088   .     S
C133   C134    1.434   .     S
C133   C504    1.331   1_545 S
C133   H530    1.086   1_545 S
C134   O175    1.275   .     A
C134   O181    1.275   .     A
C135   O182    1.272   .     A
C135   O176    1.274   .     A
C136   C141    1.395   .     A
C136   C703    1.387   .     S
C136   H719    1.084   .     S
C137   O165    1.268   .     A
C137   O167    1.280   .     A
C137   C140    1.460   .     S
C138   O166    1.281   .     A
C138   O168    1.287   .     A
C139   C142    1.488   .     S
C139   C707    1.418   1_554 S
C141   C144    1.484   .     S
C142   O170    1.399   .     S
C142   O727    1.223   1_554 S
C143   O171    1.223   .     D
C143   O172    1.398   .     S
C144   O173    1.223   .     D
C144   O174    1.399   .     S
C145   H160    1.079   .     S
C145   C694    1.387   1_554 S
C145   C704    1.410   1_554 S
C146   C147    1.415   .     A
C146   C703    1.410   .     S
C146   C706    1.428   .     S
C147   C151    1.406   .     A
C148   C704    1.428   1_554 S
C148   C707    1.430   1_554 S
C149   C150    1.402   .     A
C149   C706    1.430   .     S
C149   C697    1.418   .     S
C150   C151    1.384   .     A
C150   H159    1.080   .     S
C151   H162    1.080   .     S
H153   O356    1.013   .     S
H154   O172    1.014   .     S
H155   O174    1.014   .     S
H156   C7      1.086   1_655 S
H157   C504    1.088   1_545 S
H158   C319    1.086   .     S
H161   C694    1.084   1_554 S
O164   Zn184   1.934   .     S
O164   Zn183   1.962   .     S
O164   Zn185   1.943   .     S
O164   Zn186   1.931   .     S
O165   Zn184   1.939   .     S
O166   Zn186   1.945   .     S
O167   Zn185   1.934   .     S
O168   Zn183   1.929   .     S
O169   C700    1.223   .     S
O170   H525    1.013   1_545 S
O175   Zn183   1.923   .     S
O176   Zn186   1.932   .     S
O177   Zn184   1.928   .     S
O178   Zn185   1.935   .     S
O179   Zn186   1.930   .     S
O180   Zn183   1.926   .     S
O181   Zn184   1.937   .     S
O182   Zn185   1.926   .     S
C187   O241    1.267   .     A
C187   O239    1.267   .     A
C187   C193    1.437   .     S
C188   C202    1.404   .     A
C188   C210    1.425   .     A
C188   C205    1.488   .     S
C189   C201    1.392   .     A
C189   H214    1.085   .     S
C189   C202    1.396   .     A
C190   O242    1.282   .     A
C190   C192    1.455   .     S
C190   O240    1.285   .     A
C191   C209    1.423   .     A
C191   C200    1.483   .     S
C191   C203    1.425   .     A
C192   C255    1.334   .     S
C192   H287    1.088   .     S
C193   C316    1.334   1_455 S
C193   H342    1.086   1_455 S
C194   C197    1.450   .     S
C194   C381    1.331   .     S
C194   H405    1.088   .     S
C195   C196    1.434   .     S
C196   O237    1.275   .     A
C196   O243    1.275   .     A
C197   O244    1.272   .     A
C197   O238    1.274   .     A
C198   C203    1.395   .     A
C198   C765    1.387   .     S
C198   H781    1.084   .     S
C199   O227    1.268   .     A
C199   O229    1.280   .     A
C199   C202    1.460   .     S
C200   O228    1.281   .     A
C200   O230    1.287   .     A
C201   C204    1.488   .     S
C201   C769    1.418   1_554 S
C203   C206    1.484   .     S
C204   O232    1.399   .     S
C204   O789    1.223   1_554 S
C205   O233    1.223   .     D
C205   O234    1.398   .     S
C206   O235    1.223   .     D
C206   O236    1.399   .     S
C207   H222    1.079   .     S
C207   C756    1.387   1_554 S
C207   C766    1.410   1_554 S
C208   C209    1.415   .     A
C208   C765    1.410   .     S
C208   C768    1.428   .     S
C209   C213    1.406   .     A
C210   C766    1.428   1_554 S
C210   C769    1.430   1_554 S
C211   C212    1.402   .     A
C211   C768    1.430   .     S
C211   C759    1.418   .     S
C212   C213    1.384   .     A
C212   H221    1.080   .     S
C213   H224    1.080   .     S
H215   O418    1.013   .     S
H216   O234    1.014   .     S
H217   O236    1.014   .     S
H218   C255    1.086   .     S
H220   C381    1.086   .     S
H223   C756    1.084   1_554 S
H225   C316    1.088   1_455 S
O226   Zn246   1.934   .     S
O226   Zn245   1.962   .     S
O226   Zn247   1.943   .     S
O226   Zn248   1.931   .     S
O227   Zn246   1.939   .     S
O228   Zn248   1.945   .     S
O229   Zn247   1.934   .     S
O230   Zn245   1.929   .     S
O231   C762    1.223   .     S
O237   Zn245   1.923   .     S
O238   Zn248   1.932   .     S
O239   Zn246   1.928   .     S
O240   Zn247   1.935   .     S
O241   Zn248   1.930   .     S
O242   Zn245   1.926   .     S
O243   Zn246   1.937   .     S
O244   Zn247   1.926   .     S
C249   O303    1.267   .     A
C249   O301    1.267   .     A
C249   C255    1.437   .     S
C250   C264    1.404   .     A
C250   C272    1.425   .     A
C250   C267    1.488   .     S
C251   C263    1.392   .     A
C251   H276    1.085   .     S
C251   C264    1.396   .     A
C252   O304    1.282   .     A
C252   C254    1.455   .     S
C252   O302    1.285   .     A
C253   C271    1.423   .     A
C253   C262    1.483   .     S
C253   C265    1.425   .     A
C254   C317    1.334   .     S
C254   H349    1.088   .     S
C256   C259    1.450   .     S
C256   C443    1.331   .     S
C256   H467    1.088   .     S
C257   C258    1.434   .     S
C258   O299    1.275   .     A
C258   O305    1.275   .     A
C259   O306    1.272   .     A
C259   O300    1.274   .     A
C260   C265    1.395   .     A
C260   C827    1.387   .     S
C260   H843    1.084   .     S
C261   O289    1.268   .     A
C261   O291    1.280   .     A
C261   C264    1.460   .     S
C262   O290    1.281   .     A
C262   O292    1.287   .     A
C263   C266    1.488   .     S
C263   C831    1.418   1_554 S
C265   C268    1.484   .     S
C266   O294    1.399   .     S
C266   O851    1.223   1_554 S
C267   O295    1.223   .     D
C267   O296    1.398   .     S
C268   O297    1.223   .     D
C268   O298    1.399   .     S
C269   H284    1.079   .     S
C269   C818    1.387   1_554 S
C269   C828    1.410   1_554 S
C270   C271    1.415   .     A
C270   C827    1.410   .     S
C270   C830    1.428   .     S
C271   C275    1.406   .     A
C272   C828    1.428   1_554 S
C272   C831    1.430   1_554 S
C273   C274    1.402   .     A
C273   C830    1.430   .     S
C273   C821    1.418   .     S
C274   C275    1.384   .     A
C274   H283    1.080   .     S
C275   H286    1.080   .     S
H277   O480    1.013   .     S
H278   O296    1.014   .     S
H279   O298    1.014   .     S
H280   C317    1.086   .     S
H282   C443    1.086   .     S
H285   C818    1.084   1_554 S
O288   Zn308   1.934   .     S
O288   Zn307   1.962   .     S
O288   Zn309   1.943   .     S
O288   Zn310   1.931   .     S
O289   Zn308   1.939   .     S
O290   Zn310   1.945   .     S
O291   Zn309   1.934   .     S
O292   Zn307   1.929   .     S
O293   C824    1.223   .     S
O299   Zn307   1.923   .     S
O300   Zn310   1.932   .     S
O301   Zn308   1.928   .     S
O302   Zn309   1.935   .     S
O303   Zn310   1.930   .     S
O304   Zn307   1.926   .     S
O305   Zn308   1.937   .     S
O306   Zn309   1.926   .     S
C311   O365    1.267   .     A
C311   O363    1.267   .     A
C311   C317    1.437   .     S
C312   C326    1.404   .     A
C312   C334    1.425   .     A
C312   C329    1.488   .     S
C313   C325    1.392   .     A
C313   H338    1.085   .     S
C313   C326    1.396   .     A
C314   O366    1.282   .     A
C314   C316    1.455   .     S
C314   O364    1.285   .     A
C315   C333    1.423   .     A
C315   C324    1.483   .     S
C315   C327    1.425   .     A
C316   C193    1.334   1_655 S
C316   H225    1.088   1_655 S
C318   C321    1.450   .     S
C318   C505    1.331   .     S
C318   H529    1.088   .     S
C319   C320    1.434   .     S
C320   O361    1.275   .     A
C320   O367    1.275   .     A
C321   O368    1.272   .     A
C321   O362    1.274   .     A
C322   C327    1.395   .     A
C322   C889    1.387   .     S
C322   H905    1.084   .     S
C323   O351    1.268   .     A
C323   O353    1.280   .     A
C323   C326    1.460   .     S
C324   O352    1.281   .     A
C324   O354    1.287   .     A
C325   C328    1.488   .     S
C325   C893    1.418   1_554 S
C327   C330    1.484   .     S
C328   O356    1.399   .     S
C328   O913    1.223   1_554 S
C329   O357    1.223   .     D
C329   O358    1.398   .     S
C330   O359    1.223   .     D
C330   O360    1.399   .     S
C331   H346    1.079   .     S
C331   C880    1.387   1_554 S
C331   C890    1.410   1_554 S
C332   C333    1.415   .     A
C332   C889    1.410   .     S
C332   C892    1.428   .     S
C333   C337    1.406   .     A
C334   C890    1.428   1_554 S
C334   C893    1.430   1_554 S
C335   C336    1.402   .     A
C335   C892    1.430   .     S
C335   C883    1.418   .     S
C336   C337    1.384   .     A
C336   H345    1.080   .     S
C337   H348    1.080   .     S
H339   O542    1.013   .     S
H340   O358    1.014   .     S
H341   O360    1.014   .     S
H342   C193    1.086   1_655 S
H344   C505    1.086   .     S
H347   C880    1.084   1_554 S
O350   Zn370   1.934   .     S
O350   Zn369   1.962   .     S
O350   Zn371   1.943   .     S
O350   Zn372   1.931   .     S
O351   Zn370   1.939   .     S
O352   Zn372   1.945   .     S
O353   Zn371   1.934   .     S
O354   Zn369   1.929   .     S
O355   C886    1.223   .     S
O361   Zn369   1.923   .     S
O362   Zn372   1.932   .     S
O363   Zn370   1.928   .     S
O364   Zn371   1.935   .     S
O365   Zn372   1.930   .     S
O366   Zn369   1.926   .     S
O367   Zn370   1.937   .     S
O368   Zn371   1.926   .     S
C373   O427    1.267   .     A
C373   O425    1.267   .     A
C373   C379    1.437   .     S
C374   C388    1.404   .     A
C374   C396    1.425   .     A
C374   C391    1.488   .     S
C375   C387    1.392   .     A
C375   H400    1.085   .     S
C375   C388    1.396   .     A
C376   O428    1.282   .     A
C376   C378    1.455   .     S
C376   O426    1.285   .     A
C377   C395    1.423   .     A
C377   C386    1.483   .     S
C377   C389    1.425   .     A
C378   C441    1.334   .     S
C378   H473    1.088   .     S
C379   C502    1.334   1_455 S
C379   H528    1.086   1_455 S
C380   C383    1.450   .     S
C380   C9      1.331   1_565 S
C380   H33     1.088   1_565 S
C381   C382    1.434   .     S
C382   O423    1.275   .     A
C382   O429    1.275   .     A
C383   O430    1.272   .     A
C383   O424    1.274   .     A
C384   C389    1.395   .     A
C384   C951    1.387   .     S
C384   H967    1.084   .     S
C385   O413    1.268   .     A
C385   O415    1.280   .     A
C385   C388    1.460   .     S
C386   O414    1.281   .     A
C386   O416    1.287   .     A
C387   C390    1.488   .     S
C387   C955    1.418   1_554 S
C389   C392    1.484   .     S
C390   O418    1.399   .     S
C390   O975    1.223   1_554 S
C391   O419    1.223   .     D
C391   O420    1.398   .     S
C392   O421    1.223   .     D
C392   O422    1.399   .     S
C393   H408    1.079   .     S
C393   C942    1.387   1_554 S
C393   C952    1.410   1_554 S
C394   C395    1.415   .     A
C394   C951    1.410   .     S
C394   C954    1.428   .     S
C395   C399    1.406   .     A
C396   C952    1.428   1_554 S
C396   C955    1.430   1_554 S
C397   C398    1.402   .     A
C397   C954    1.430   .     S
C397   C945    1.418   .     S
C398   C399    1.384   .     A
C398   H407    1.080   .     S
C399   H410    1.080   .     S
H401   O46     1.013   1_565 S
H402   O420    1.014   .     S
H403   O422    1.014   .     S
H404   C441    1.086   .     S
H406   C9      1.086   1_565 S
H409   C942    1.084   1_554 S
H411   C502    1.088   1_455 S
O412   Zn432   1.934   .     S
O412   Zn431   1.962   .     S
O412   Zn433   1.943   .     S
O412   Zn434   1.931   .     S
O413   Zn432   1.939   .     S
O414   Zn434   1.945   .     S
O415   Zn433   1.934   .     S
O416   Zn431   1.929   .     S
O417   C948    1.223   .     S
O423   Zn431   1.923   .     S
O424   Zn434   1.932   .     S
O425   Zn432   1.928   .     S
O426   Zn433   1.935   .     S
O427   Zn434   1.930   .     S
O428   Zn431   1.926   .     S
O429   Zn432   1.937   .     S
O430   Zn433   1.926   .     S
C435   O489    1.267   .     A
C435   O487    1.267   .     A
C435   C441    1.437   .     S
C436   C450    1.404   .     A
C436   C458    1.425   .     A
C436   C453    1.488   .     S
C437   C449    1.392   .     A
C437   H462    1.085   .     S
C437   C450    1.396   .     A
C438   O490    1.282   .     A
C438   C440    1.455   .     S
C438   O488    1.285   .     A
C439   C457    1.423   .     A
C439   C448    1.483   .     S
C439   C451    1.425   .     A
C440   C503    1.334   .     S
C440   H535    1.088   .     S
C442   C445    1.450   .     S
C442   C71     1.331   1_565 S
C442   H95     1.088   1_565 S
C443   C444    1.434   .     S
C444   O485    1.275   .     A
C444   O491    1.275   .     A
C445   O492    1.272   .     A
C445   O486    1.274   .     A
C446   C451    1.395   .     A
C446   C1013   1.387   .     S
C446   H1029   1.084   .     S
C447   O475    1.268   .     A
C447   O477    1.280   .     A
C447   C450    1.460   .     S
C448   O476    1.281   .     A
C448   O478    1.287   .     A
C449   C452    1.488   .     S
C449   C1017   1.418   1_554 S
C451   C454    1.484   .     S
C452   O480    1.399   .     S
C452   O1037   1.223   1_554 S
C453   O481    1.223   .     D
C453   O482    1.398   .     S
C454   O483    1.223   .     D
C454   O484    1.399   .     S
C455   H470    1.079   .     S
C455   C1004   1.387   1_554 S
C455   C1014   1.410   1_554 S
C456   C457    1.415   .     A
C456   C1013   1.410   .     S
C456   C1016   1.428   .     S
C457   C461    1.406   .     A
C458   C1014   1.428   1_554 S
C458   C1017   1.430   1_554 S
C459   C460    1.402   .     A
C459   C1016   1.430   .     S
C459   C1007   1.418   .     S
C460   C461    1.384   .     A
C460   H469    1.080   .     S
C461   H472    1.080   .     S
H463   O108    1.013   1_565 S
H464   O482    1.014   .     S
H465   O484    1.014   .     S
H466   C503    1.086   .     S
H468   C71     1.086   1_565 S
H471   C1004   1.084   1_554 S
O474   Zn494   1.934   .     S
O474   Zn493   1.962   .     S
O474   Zn495   1.943   .     S
O474   Zn496   1.931   .     S
O475   Zn494   1.939   .     S
O476   Zn496   1.945   .     S
O477   Zn495   1.934   .     S
O478   Zn493   1.929   .     S
O479   C1010   1.223   .     S
O485   Zn493   1.923   .     S
O486   Zn496   1.932   .     S
O487   Zn494   1.928   .     S
O488   Zn495   1.935   .     S
O489   Zn496   1.930   .     S
O490   Zn493   1.926   .     S
O491   Zn494   1.937   .     S
O492   Zn495   1.926   .     S
C497   O551    1.267   .     A
C497   O549    1.267   .     A
C497   C503    1.437   .     S
C498   C512    1.404   .     A
C498   C520    1.425   .     A
C498   C515    1.488   .     S
C499   C511    1.392   .     A
C499   H524    1.085   .     S
C499   C512    1.396   .     A
C500   O552    1.282   .     A
C500   C502    1.455   .     S
C500   O550    1.285   .     A
C501   C519    1.423   .     A
C501   C510    1.483   .     S
C501   C513    1.425   .     A
C502   C379    1.334   1_655 S
C502   H411    1.088   1_655 S
C504   C507    1.450   .     S
C504   C133    1.331   1_565 S
C504   H157    1.088   1_565 S
C505   C506    1.434   .     S
C506   O547    1.275   .     A
C506   O553    1.275   .     A
C507   O554    1.272   .     A
C507   O548    1.274   .     A
C508   C513    1.395   .     A
C508   C1075   1.387   .     S
C508   H1091   1.084   .     S
C509   O537    1.268   .     A
C509   O539    1.280   .     A
C509   C512    1.460   .     S
C510   O538    1.281   .     A
C510   O540    1.287   .     A
C511   C514    1.488   .     S
C511   C1079   1.418   1_554 S
C513   C516    1.484   .     S
C514   O542    1.399   .     S
C514   O1099   1.223   1_554 S
C515   O543    1.223   .     D
C515   O544    1.398   .     S
C516   O545    1.223   .     D
C516   O546    1.399   .     S
C517   H532    1.079   .     S
C517   C1066   1.387   1_554 S
C517   C1076   1.410   1_554 S
C518   C519    1.415   .     A
C518   C1075   1.410   .     S
C518   C1078   1.428   .     S
C519   C523    1.406   .     A
C520   C1076   1.428   1_554 S
C520   C1079   1.430   1_554 S
C521   C522    1.402   .     A
C521   C1078   1.430   .     S
C521   C1069   1.418   .     S
C522   C523    1.384   .     A
C522   H531    1.080   .     S
C523   H534    1.080   .     S
H525   O170    1.013   1_565 S
H526   O544    1.014   .     S
H527   O546    1.014   .     S
H528   C379    1.086   1_655 S
H530   C133    1.086   1_565 S
H533   C1066   1.084   1_554 S
O536   Zn556   1.934   .     S
O536   Zn555   1.962   .     S
O536   Zn557   1.943   .     S
O536   Zn558   1.931   .     S
O537   Zn556   1.939   .     S
O538   Zn558   1.945   .     S
O539   Zn557   1.934   .     S
O540   Zn555   1.929   .     S
O541   C1072   1.223   .     S
O547   Zn555   1.923   .     S
O548   Zn558   1.932   .     S
O549   Zn556   1.928   .     S
O550   Zn557   1.935   .     S
O551   Zn558   1.930   .     S
O552   Zn555   1.926   .     S
O553   Zn556   1.937   .     S
O554   Zn557   1.926   .     S
C559   O613    1.267   .     A
C559   O611    1.267   .     A
C559   C565    1.437   .     S
C560   C574    1.404   .     A
C560   C582    1.425   .     A
C560   C577    1.488   .     S
C561   C573    1.392   .     A
C561   H586    1.085   .     S
C561   C574    1.396   .     A
C562   O614    1.282   .     A
C562   C564    1.455   .     S
C562   O612    1.285   .     A
C563   C581    1.423   .     A
C563   C572    1.483   .     S
C563   C575    1.425   .     A
C564   C627    1.334   .     S
C564   H659    1.088   .     S
C565   C688    1.334   1_455 S
C565   H714    1.086   1_455 S
C566   C569    1.450   .     S
C566   C753    1.331   .     S
C566   H777    1.088   .     S
C567   C568    1.434   .     S
C567   C938    1.331   1_545 S
C567   H964    1.086   1_545 S
C568   O609    1.275   .     A
C568   O615    1.275   .     A
C569   O616    1.272   .     A
C569   O610    1.274   .     A
C570   C575    1.395   .     A
C570   C21     1.387   1_556 S
C570   H37     1.084   1_556 S
C571   O599    1.268   .     A
C571   O601    1.280   .     A
C571   C574    1.460   .     S
C572   O600    1.281   .     A
C572   O602    1.287   .     A
C573   C576    1.488   .     S
C575   C578    1.484   .     S
C576   O604    1.399   .     S
C577   O605    1.223   .     D
C577   O606    1.398   .     S
C578   O607    1.223   .     D
C578   O608    1.399   .     S
C579   H594    1.079   .     S
C580   C581    1.415   .     A
C580   C21     1.410   1_556 S
C580   C24     1.428   1_556 S
C581   C585    1.406   .     A
C583   C584    1.402   .     A
C583   C24     1.430   1_556 S
C583   C15     1.418   1_556 S
C584   C585    1.384   .     A
C584   H593    1.080   .     S
C585   H596    1.080   .     S
H587   O790    1.013   .     S
H588   O606    1.014   .     S
H589   O608    1.014   .     S
H590   C627    1.086   .     S
H591   C938    1.088   1_545 S
H592   C753    1.086   .     S
H597   C688    1.088   1_455 S
O598   Zn618   1.934   .     S
O598   Zn617   1.962   .     S
O598   Zn619   1.943   .     S
O598   Zn620   1.931   .     S
O599   Zn618   1.939   .     S
O600   Zn620   1.945   .     S
O601   Zn619   1.934   .     S
O602   Zn617   1.929   .     S
O603   C18     1.223   1_556 S
O604   H959    1.013   1_545 S
O609   Zn617   1.923   .     S
O610   Zn620   1.932   .     S
O611   Zn618   1.928   .     S
O612   Zn619   1.935   .     S
O613   Zn620   1.930   .     S
O614   Zn617   1.926   .     S
O615   Zn618   1.937   .     S
O616   Zn619   1.926   .     S
C621   O675    1.267   .     A
C621   O673    1.267   .     A
C621   C627    1.437   .     S
C622   C636    1.404   .     A
C622   C644    1.425   .     A
C622   C639    1.488   .     S
C623   C635    1.392   .     A
C623   H648    1.085   .     S
C623   C636    1.396   .     A
C624   O676    1.282   .     A
C624   C626    1.455   .     S
C624   O674    1.285   .     A
C625   C643    1.423   .     A
C625   C634    1.483   .     S
C625   C637    1.425   .     A
C626   C689    1.334   .     S
C626   H721    1.088   .     S
C628   C631    1.450   .     S
C628   C815    1.331   .     S
C628   H839    1.088   .     S
C629   C630    1.434   .     S
C629   C1000   1.331   1_545 S
C629   H1026   1.086   1_545 S
C630   O671    1.275   .     A
C630   O677    1.275   .     A
C631   O678    1.272   .     A
C631   O672    1.274   .     A
C632   C637    1.395   .     A
C632   C83     1.387   1_556 S
C632   H99     1.084   1_556 S
C633   O661    1.268   .     A
C633   O663    1.280   .     A
C633   C636    1.460   .     S
C634   O662    1.281   .     A
C634   O664    1.287   .     A
C635   C638    1.488   .     S
C637   C640    1.484   .     S
C638   O666    1.399   .     S
C639   O667    1.223   .     D
C639   O668    1.398   .     S
C640   O669    1.223   .     D
C640   O670    1.399   .     S
C641   H656    1.079   .     S
C642   C643    1.415   .     A
C642   C83     1.410   1_556 S
C642   C86     1.428   1_556 S
C643   C647    1.406   .     A
C645   C646    1.402   .     A
C645   C86     1.430   1_556 S
C645   C77     1.418   1_556 S
C646   C647    1.384   .     A
C646   H655    1.080   .     S
C647   H658    1.080   .     S
H649   O852    1.013   .     S
H650   O668    1.014   .     S
H651   O670    1.014   .     S
H652   C689    1.086   .     S
H653   C1000   1.088   1_545 S
H654   C815    1.086   .     S
O660   Zn680   1.934   .     S
O660   Zn679   1.962   .     S
O660   Zn681   1.943   .     S
O660   Zn682   1.931   .     S
O661   Zn680   1.939   .     S
O662   Zn682   1.945   .     S
O663   Zn681   1.934   .     S
O664   Zn679   1.929   .     S
O665   C80     1.223   1_556 S
O666   H1021   1.013   1_545 S
O671   Zn679   1.923   .     S
O672   Zn682   1.932   .     S
O673   Zn680   1.928   .     S
O674   Zn681   1.935   .     S
O675   Zn682   1.930   .     S
O676   Zn679   1.926   .     S
O677   Zn680   1.937   .     S
O678   Zn681   1.926   .     S
C683   O737    1.267   .     A
C683   O735    1.267   .     A
C683   C689    1.437   .     S
C684   C698    1.404   .     A
C684   C706    1.425   .     A
C684   C701    1.488   .     S
C685   C697    1.392   .     A
C685   H710    1.085   .     S
C685   C698    1.396   .     A
C686   O738    1.282   .     A
C686   C688    1.455   .     S
C686   O736    1.285   .     A
C687   C705    1.423   .     A
C687   C696    1.483   .     S
C687   C699    1.425   .     A
C688   C565    1.334   1_655 S
C688   H597    1.088   1_655 S
C690   C693    1.450   .     S
C690   C877    1.331   .     S
C690   H901    1.088   .     S
C691   C692    1.434   .     S
C691   C1062   1.331   1_545 S
C691   H1088   1.086   1_545 S
C692   O733    1.275   .     A
C692   O739    1.275   .     A
C693   O740    1.272   .     A
C693   O734    1.274   .     A
C694   C699    1.395   .     A
C694   C145    1.387   1_556 S
C694   H161    1.084   1_556 S
C695   O723    1.268   .     A
C695   O725    1.280   .     A
C695   C698    1.460   .     S
C696   O724    1.281   .     A
C696   O726    1.287   .     A
C697   C700    1.488   .     S
C699   C702    1.484   .     S
C700   O728    1.399   .     S
C701   O729    1.223   .     D
C701   O730    1.398   .     S
C702   O731    1.223   .     D
C702   O732    1.399   .     S
C703   H718    1.079   .     S
C704   C705    1.415   .     A
C704   C145    1.410   1_556 S
C704   C148    1.428   1_556 S
C705   C709    1.406   .     A
C707   C708    1.402   .     A
C707   C148    1.430   1_556 S
C707   C139    1.418   1_556 S
C708   C709    1.384   .     A
C708   H717    1.080   .     S
C709   H720    1.080   .     S
H711   O914    1.013   .     S
H712   O730    1.014   .     S
H713   O732    1.014   .     S
H714   C565    1.086   1_655 S
H715   C1062   1.088   1_545 S
H716   C877    1.086   .     S
O722   Zn742   1.934   .     S
O722   Zn741   1.962   .     S
O722   Zn743   1.943   .     S
O722   Zn744   1.931   .     S
O723   Zn742   1.939   .     S
O724   Zn744   1.945   .     S
O725   Zn743   1.934   .     S
O726   Zn741   1.929   .     S
O727   C142    1.223   1_556 S
O728   H1083   1.013   1_545 S
O733   Zn741   1.923   .     S
O734   Zn744   1.932   .     S
O735   Zn742   1.928   .     S
O736   Zn743   1.935   .     S
O737   Zn744   1.930   .     S
O738   Zn741   1.926   .     S
O739   Zn742   1.937   .     S
O740   Zn743   1.926   .     S
C745   O799    1.267   .     A
C745   O797    1.267   .     A
C745   C751    1.437   .     S
C746   C760    1.404   .     A
C746   C768    1.425   .     A
C746   C763    1.488   .     S
C747   C759    1.392   .     A
C747   H772    1.085   .     S
C747   C760    1.396   .     A
C748   O800    1.282   .     A
C748   C750    1.455   .     S
C748   O798    1.285   .     A
C749   C767    1.423   .     A
C749   C758    1.483   .     S
C749   C761    1.425   .     A
C750   C813    1.334   .     S
C750   H845    1.088   .     S
C751   C874    1.334   1_455 S
C751   H900    1.086   1_455 S
C752   C755    1.450   .     S
C752   C939    1.331   .     S
C752   H963    1.088   .     S
C753   C754    1.434   .     S
C754   O795    1.275   .     A
C754   O801    1.275   .     A
C755   O802    1.272   .     A
C755   O796    1.274   .     A
C756   C761    1.395   .     A
C756   C207    1.387   1_556 S
C756   H223    1.084   1_556 S
C757   O785    1.268   .     A
C757   O787    1.280   .     A
C757   C760    1.460   .     S
C758   O786    1.281   .     A
C758   O788    1.287   .     A
C759   C762    1.488   .     S
C761   C764    1.484   .     S
C762   O790    1.399   .     S
C763   O791    1.223   .     D
C763   O792    1.398   .     S
C764   O793    1.223   .     D
C764   O794    1.399   .     S
C765   H780    1.079   .     S
C766   C767    1.415   .     A
C766   C207    1.410   1_556 S
C766   C210    1.428   1_556 S
C767   C771    1.406   .     A
C769   C770    1.402   .     A
C769   C210    1.430   1_556 S
C769   C201    1.418   1_556 S
C770   C771    1.384   .     A
C770   H779    1.080   .     S
C771   H782    1.080   .     S
H773   O976    1.013   .     S
H774   O792    1.014   .     S
H775   O794    1.014   .     S
H776   C813    1.086   .     S
H778   C939    1.086   .     S
H783   C874    1.088   1_455 S
O784   Zn804   1.934   .     S
O784   Zn803   1.962   .     S
O784   Zn805   1.943   .     S
O784   Zn806   1.931   .     S
O785   Zn804   1.939   .     S
O786   Zn806   1.945   .     S
O787   Zn805   1.934   .     S
O788   Zn803   1.929   .     S
O789   C204    1.223   1_556 S
O795   Zn803   1.923   .     S
O796   Zn806   1.932   .     S
O797   Zn804   1.928   .     S
O798   Zn805   1.935   .     S
O799   Zn806   1.930   .     S
O800   Zn803   1.926   .     S
O801   Zn804   1.937   .     S
O802   Zn805   1.926   .     S
C807   O861    1.267   .     A
C807   O859    1.267   .     A
C807   C813    1.437   .     S
C808   C822    1.404   .     A
C808   C830    1.425   .     A
C808   C825    1.488   .     S
C809   C821    1.392   .     A
C809   H834    1.085   .     S
C809   C822    1.396   .     A
C810   O862    1.282   .     A
C810   C812    1.455   .     S
C810   O860    1.285   .     A
C811   C829    1.423   .     A
C811   C820    1.483   .     S
C811   C823    1.425   .     A
C812   C875    1.334   .     S
C812   H907    1.088   .     S
C814   C817    1.450   .     S
C814   C1001   1.331   .     S
C814   H1025   1.088   .     S
C815   C816    1.434   .     S
C816   O857    1.275   .     A
C816   O863    1.275   .     A
C817   O864    1.272   .     A
C817   O858    1.274   .     A
C818   C823    1.395   .     A
C818   C269    1.387   1_556 S
C818   H285    1.084   1_556 S
C819   O847    1.268   .     A
C819   O849    1.280   .     A
C819   C822    1.460   .     S
C820   O848    1.281   .     A
C820   O850    1.287   .     A
C821   C824    1.488   .     S
C823   C826    1.484   .     S
C824   O852    1.399   .     S
C825   O853    1.223   .     D
C825   O854    1.398   .     S
C826   O855    1.223   .     D
C826   O856    1.399   .     S
C827   H842    1.079   .     S
C828   C829    1.415   .     A
C828   C269    1.410   1_556 S
C828   C272    1.428   1_556 S
C829   C833    1.406   .     A
C831   C832    1.402   .     A
C831   C272    1.430   1_556 S
C831   C263    1.418   1_556 S
C832   C833    1.384   .     A
C832   H841    1.080   .     S
C833   H844    1.080   .     S
H835   O1038   1.013   .     S
H836   O854    1.014   .     S
H837   O856    1.014   .     S
H838   C875    1.086   .     S
H840   C1001   1.086   .     S
O846   Zn866   1.934   .     S
O846   Zn865   1.962   .     S
O846   Zn867   1.943   .     S
O846   Zn868   1.931   .     S
O847   Zn866   1.939   .     S
O848   Zn868   1.945   .     S
O849   Zn867   1.934   .     S
O850   Zn865   1.929   .     S
O851   C266    1.223   1_556 S
O857   Zn865   1.923   .     S
O858   Zn868   1.932   .     S
O859   Zn866   1.928   .     S
O860   Zn867   1.935   .     S
O861   Zn868   1.930   .     S
O862   Zn865   1.926   .     S
O863   Zn866   1.937   .     S
O864   Zn867   1.926   .     S
C869   O923    1.267   .     A
C869   O921    1.267   .     A
C869   C875    1.437   .     S
C870   C884    1.404   .     A
C870   C892    1.425   .     A
C870   C887    1.488   .     S
C871   C883    1.392   .     A
C871   H896    1.085   .     S
C871   C884    1.396   .     A
C872   O924    1.282   .     A
C872   C874    1.455   .     S
C872   O922    1.285   .     A
C873   C891    1.423   .     A
C873   C882    1.483   .     S
C873   C885    1.425   .     A
C874   C751    1.334   1_655 S
C874   H783    1.088   1_655 S
C876   C879    1.450   .     S
C876   C1063   1.331   .     S
C876   H1087   1.088   .     S
C877   C878    1.434   .     S
C878   O919    1.275   .     A
C878   O925    1.275   .     A
C879   O926    1.272   .     A
C879   O920    1.274   .     A
C880   C885    1.395   .     A
C880   C331    1.387   1_556 S
C880   H347    1.084   1_556 S
C881   O909    1.268   .     A
C881   O911    1.280   .     A
C881   C884    1.460   .     S
C882   O910    1.281   .     A
C882   O912    1.287   .     A
C883   C886    1.488   .     S
C885   C888    1.484   .     S
C886   O914    1.399   .     S
C887   O915    1.223   .     D
C887   O916    1.398   .     S
C888   O917    1.223   .     D
C888   O918    1.399   .     S
C889   H904    1.079   .     S
C890   C891    1.415   .     A
C890   C331    1.410   1_556 S
C890   C334    1.428   1_556 S
C891   C895    1.406   .     A
C893   C894    1.402   .     A
C893   C334    1.430   1_556 S
C893   C325    1.418   1_556 S
C894   C895    1.384   .     A
C894   H903    1.080   .     S
C895   H906    1.080   .     S
H897   O1100   1.013   .     S
H898   O916    1.014   .     S
H899   O918    1.014   .     S
H900   C751    1.086   1_655 S
H902   C1063   1.086   .     S
O908   Zn928   1.934   .     S
O908   Zn927   1.962   .     S
O908   Zn929   1.943   .     S
O908   Zn930   1.931   .     S
O909   Zn928   1.939   .     S
O910   Zn930   1.945   .     S
O911   Zn929   1.934   .     S
O912   Zn927   1.929   .     S
O913   C328    1.223   1_556 S
O919   Zn927   1.923   .     S
O920   Zn930   1.932   .     S
O921   Zn928   1.928   .     S
O922   Zn929   1.935   .     S
O923   Zn930   1.930   .     S
O924   Zn927   1.926   .     S
O925   Zn928   1.937   .     S
O926   Zn929   1.926   .     S
C931   O985    1.267   .     A
C931   O983    1.267   .     A
C931   C937    1.437   .     S
C932   C946    1.404   .     A
C932   C954    1.425   .     A
C932   C949    1.488   .     S
C933   C945    1.392   .     A
C933   H958    1.085   .     S
C933   C946    1.396   .     A
C934   O986    1.282   .     A
C934   C936    1.455   .     S
C934   O984    1.285   .     A
C935   C953    1.423   .     A
C935   C944    1.483   .     S
C935   C947    1.425   .     A
C936   C999    1.334   .     S
C936   H1031   1.088   .     S
C937   C1060   1.334   1_455 S
C937   H1086   1.086   1_455 S
C938   C941    1.450   .     S
C938   C567    1.331   1_565 S
C938   H591    1.088   1_565 S
C939   C940    1.434   .     S
C940   O981    1.275   .     A
C940   O987    1.275   .     A
C941   O988    1.272   .     A
C941   O982    1.274   .     A
C942   C947    1.395   .     A
C942   C393    1.387   1_556 S
C942   H409    1.084   1_556 S
C943   O971    1.268   .     A
C943   O973    1.280   .     A
C943   C946    1.460   .     S
C944   O972    1.281   .     A
C944   O974    1.287   .     A
C945   C948    1.488   .     S
C947   C950    1.484   .     S
C948   O976    1.399   .     S
C949   O977    1.223   .     D
C949   O978    1.398   .     S
C950   O979    1.223   .     D
C950   O980    1.399   .     S
C951   H966    1.079   .     S
C952   C953    1.415   .     A
C952   C393    1.410   1_556 S
C952   C396    1.428   1_556 S
C953   C957    1.406   .     A
C955   C956    1.402   .     A
C955   C396    1.430   1_556 S
C955   C387    1.418   1_556 S
C956   C957    1.384   .     A
C956   H965    1.080   .     S
C957   H968    1.080   .     S
H959   O604    1.013   1_565 S
H960   O978    1.014   .     S
H961   O980    1.014   .     S
H962   C999    1.086   .     S
H964   C567    1.086   1_565 S
H969   C1060   1.088   1_455 S
O970   Zn990   1.934   .     S
O970   Zn989   1.962   .     S
O970   Zn991   1.943   .     S
O970   Zn992   1.931   .     S
O971   Zn990   1.939   .     S
O972   Zn992   1.945   .     S
O973   Zn991   1.934   .     S
O974   Zn989   1.929   .     S
O975   C390    1.223   1_556 S
O981   Zn989   1.923   .     S
O982   Zn992   1.932   .     S
O983   Zn990   1.928   .     S
O984   Zn991   1.935   .     S
O985   Zn992   1.930   .     S
O986   Zn989   1.926   .     S
O987   Zn990   1.937   .     S
O988   Zn991   1.926   .     S
C993   O1047   1.267   .     A
C993   O1045   1.267   .     A
C993   C999    1.437   .     S
C994   C1008   1.404   .     A
C994   C1016   1.425   .     A
C994   C1011   1.488   .     S
C995   C1007   1.392   .     A
C995   H1020   1.085   .     S
C995   C1008   1.396   .     A
C996   O1048   1.282   .     A
C996   C998    1.455   .     S
C996   O1046   1.285   .     A
C997   C1015   1.423   .     A
C997   C1006   1.483   .     S
C997   C1009   1.425   .     A
C998   C1061   1.334   .     S
C998   H1093   1.088   .     S
C1000  C1003   1.450   .     S
C1000  C629    1.331   1_565 S
C1000  H653    1.088   1_565 S
C1001  C1002   1.434   .     S
C1002  O1043   1.275   .     A
C1002  O1049   1.275   .     A
C1003  O1050   1.272   .     A
C1003  O1044   1.274   .     A
C1004  C1009   1.395   .     A
C1004  C455    1.387   1_556 S
C1004  H471    1.084   1_556 S
C1005  O1033   1.268   .     A
C1005  O1035   1.280   .     A
C1005  C1008   1.460   .     S
C1006  O1034   1.281   .     A
C1006  O1036   1.287   .     A
C1007  C1010   1.488   .     S
C1009  C1012   1.484   .     S
C1010  O1038   1.399   .     S
C1011  O1039   1.223   .     D
C1011  O1040   1.398   .     S
C1012  O1041   1.223   .     D
C1012  O1042   1.399   .     S
C1013  H1028   1.079   .     S
C1014  C1015   1.415   .     A
C1014  C455    1.410   1_556 S
C1014  C458    1.428   1_556 S
C1015  C1019   1.406   .     A
C1017  C1018   1.402   .     A
C1017  C458    1.430   1_556 S
C1017  C449    1.418   1_556 S
C1018  C1019   1.384   .     A
C1018  H1027   1.080   .     S
C1019  H1030   1.080   .     S
H1021  O666    1.013   1_565 S
H1022  O1040   1.014   .     S
H1023  O1042   1.014   .     S
H1024  C1061   1.086   .     S
H1026  C629    1.086   1_565 S
O1032  Zn1052  1.934   .     S
O1032  Zn1051  1.962   .     S
O1032  Zn1053  1.943   .     S
O1032  Zn1054  1.931   .     S
O1033  Zn1052  1.939   .     S
O1034  Zn1054  1.945   .     S
O1035  Zn1053  1.934   .     S
O1036  Zn1051  1.929   .     S
O1037  C452    1.223   1_556 S
O1043  Zn1051  1.923   .     S
O1044  Zn1054  1.932   .     S
O1045  Zn1052  1.928   .     S
O1046  Zn1053  1.935   .     S
O1047  Zn1054  1.930   .     S
O1048  Zn1051  1.926   .     S
O1049  Zn1052  1.937   .     S
O1050  Zn1053  1.926   .     S
C1055  O1109   1.267   .     A
C1055  O1107   1.267   .     A
C1055  C1061   1.437   .     S
C1056  C1070   1.404   .     A
C1056  C1078   1.425   .     A
C1056  C1073   1.488   .     S
C1057  C1069   1.392   .     A
C1057  H1082   1.085   .     S
C1057  C1070   1.396   .     A
C1058  O1110   1.282   .     A
C1058  C1060   1.455   .     S
C1058  O1108   1.285   .     A
C1059  C1077   1.423   .     A
C1059  C1068   1.483   .     S
C1059  C1071   1.425   .     A
C1060  C937    1.334   1_655 S
C1060  H969    1.088   1_655 S
C1062  C1065   1.450   .     S
C1062  C691    1.331   1_565 S
C1062  H715    1.088   1_565 S
C1063  C1064   1.434   .     S
C1064  O1105   1.275   .     A
C1064  O1111   1.275   .     A
C1065  O1112   1.272   .     A
C1065  O1106   1.274   .     A
C1066  C1071   1.395   .     A
C1066  C517    1.387   1_556 S
C1066  H533    1.084   1_556 S
C1067  O1095   1.268   .     A
C1067  O1097   1.280   .     A
C1067  C1070   1.460   .     S
C1068  O1096   1.281   .     A
C1068  O1098   1.287   .     A
C1069  C1072   1.488   .     S
C1071  C1074   1.484   .     S
C1072  O1100   1.399   .     S
C1073  O1101   1.223   .     D
C1073  O1102   1.398   .     S
C1074  O1103   1.223   .     D
C1074  O1104   1.399   .     S
C1075  H1090   1.079   .     S
C1076  C1077   1.415   .     A
C1076  C517    1.410   1_556 S
C1076  C520    1.428   1_556 S
C1077  C1081   1.406   .     A
C1079  C1080   1.402   .     A
C1079  C520    1.430   1_556 S
C1079  C511    1.418   1_556 S
C1080  C1081   1.384   .     A
C1080  H1089   1.080   .     S
C1081  H1092   1.080   .     S
H1083  O728    1.013   1_565 S
H1084  O1102   1.014   .     S
H1085  O1104   1.014   .     S
H1086  C937    1.086   1_655 S
H1088  C691    1.086   1_565 S
O1094  Zn1114  1.934   .     S
O1094  Zn1113  1.962   .     S
O1094  Zn1115  1.943   .     S
O1094  Zn1116  1.931   .     S
O1095  Zn1114  1.939   .     S
O1096  Zn1116  1.945   .     S
O1097  Zn1115  1.934   .     S
O1098  Zn1113  1.929   .     S
O1099  C514    1.223   1_556 S
O1105  Zn1113  1.923   .     S
O1106  Zn1116  1.932   .     S
O1107  Zn1114  1.928   .     S
O1108  Zn1115  1.935   .     S
O1109  Zn1116  1.930   .     S
O1110  Zn1113  1.926   .     S
O1111  Zn1114  1.937   .     S
O1112  Zn1115  1.926   .     S
