data_str_m3_o2_o10_pcu_sym.232
_audit_creation_date              2020-01-03
_audit_creation_method            'Materials Studio'
_symmetry_space_group_name_H-M    'P1'
_symmetry_Int_Tables_number       1
_symmetry_cell_setting            triclinic
loop_
_symmetry_equiv_pos_as_xyz
  x,y,z
_cell_length_a                    25.7198
_cell_length_b                    29.8359
_cell_length_c                    28.5062
_cell_angle_alpha                 89.0580
_cell_angle_beta                  98.0388
_cell_angle_gamma                 90.9089
loop_
_atom_site_label
_atom_site_type_symbol
_atom_site_fract_x
_atom_site_fract_y
_atom_site_fract_z
_atom_site_U_iso_or_equiv
_atom_site_adp_type
_atom_site_occupancy
O1     O     0.16667   0.18454   0.28974   0.00000  Uiso   1.00
O2     O     0.16666   0.31546   0.21026   0.00000  Uiso   1.00
O3     O     0.16667   0.18453   0.21026   0.00000  Uiso   1.00
O4     O     0.16666   0.31547   0.28974   0.00000  Uiso   1.00
C5     C     0.16744   0.16405   0.25037   0.00000  Uiso   1.00
C6     C     0.16794   0.33605   0.24985   0.00000  Uiso   1.00
O7     O     0.09058   0.25000   0.28045   0.00000  Uiso   1.00
O8     O     0.24275   0.25000   0.21955   0.00000  Uiso   1.00
O9     O     0.09058   0.24999   0.20097   0.00000  Uiso   1.00
O10    O     0.24275   0.25001   0.29903   0.00000  Uiso   1.00
C11    C     0.06716   0.24848   0.23783   0.00000  Uiso   1.00
C12    C     0.26620   0.24962   0.26233   0.00000  Uiso   1.00
Zn13   Zn    0.16667   0.25001   0.30307   0.00000  Uiso   1.00
Zn14   Zn    0.16667   0.25000   0.19693   0.00000  Uiso   1.00
C15    C     0.01234   0.24401   0.23186   0.00000  Uiso   1.00
C16    C     0.32119   0.25034   0.26909   0.00000  Uiso   1.00
H17    H     0.32555   0.23502   0.19722   0.00000  Uiso   1.00
H18    H     0.00803   0.25770   0.30433   0.00000  Uiso   1.00
C19    C     0.13706   0.04461   0.27053   0.00000  Uiso   1.00
C20    C     0.14385   0.45440   0.21415   0.00000  Uiso   1.00
H21    H     0.10782   0.02460   0.28562   0.00000  Uiso   1.00
H22    H     0.11901   0.47320   0.18715   0.00000  Uiso   1.00
C23    C     0.13479   0.09071   0.27128   0.00000  Uiso   1.00
C24    C     0.14159   0.40821   0.21416   0.00000  Uiso   1.00
H25    H     0.10342   0.10640   0.28645   0.00000  Uiso   1.00
H26    H     0.11488   0.39129   0.18711   0.00000  Uiso   1.00
C27    C     0.17197   0.11634   0.25120   0.00000  Uiso   1.00
C28    C     0.17248   0.38406   0.24975   0.00000  Uiso   1.00
C29    C     0.21258   0.09640   0.23094   0.00000  Uiso   1.00
C30    C     0.20766   0.40580   0.28472   0.00000  Uiso   1.00
C31    C     0.21501   0.04956   0.23045   0.00000  Uiso   1.00
C32    C     0.21004   0.45272   0.28449   0.00000  Uiso   1.00
C33    C     0.17673   0.02437   0.25003   0.00000  Uiso   1.00
C34    C     0.17747   0.47630   0.24936   0.00000  Uiso   1.00
C35    C     0.12411   0.23131   0.04801   0.00000  Uiso   1.00
C36    C     0.17763   0.28948   0.44784   0.00000  Uiso   1.00
H37    H     0.09028   0.21662   0.02656   0.00000  Uiso   1.00
H38    H     0.18629   0.32091   0.46588   0.00000  Uiso   1.00
C39    C     0.12619   0.23017   0.09765   0.00000  Uiso   1.00
C40    C     0.17958   0.28811   0.39876   0.00000  Uiso   1.00
H41    H     0.09463   0.21406   0.11327   0.00000  Uiso   1.00
H42    H     0.19057   0.31810   0.38060   0.00000  Uiso   1.00
N43    N     0.16667   0.24999   0.12623   0.00000  Uiso   1.00
N44    N     0.16667   0.25001   0.37376   0.00000  Uiso   1.00
C45    C     0.20608   0.27169   0.10639   0.00000  Uiso   1.00
C46    C     0.15121   0.21234   0.39695   0.00000  Uiso   1.00
C47    C     0.20695   0.27124   0.05660   0.00000  Uiso   1.00
C48    C     0.15180   0.21158   0.44689   0.00000  Uiso   1.00
C49    C     0.16507   0.25133   0.02649   0.00000  Uiso   1.00
C50    C     0.16452   0.25083   0.47312   0.00000  Uiso   1.00
N51    N     0.25110   0.12395   0.21188   0.00000  Uiso   1.00
H52    H     0.25039   0.11641   0.17612   0.00000  Uiso   1.00
H53    H     0.28821   0.11649   0.22999   0.00000  Uiso   1.00
N54    N     0.24128   0.38006   0.31919   0.00000  Uiso   1.00
H55    H     0.23428   0.38896   0.35303   0.00000  Uiso   1.00
H56    H     0.28034   0.38792   0.31581   0.00000  Uiso   1.00
N57    N     0.25543   0.02722   0.21022   0.00000  Uiso   1.00
H58    H     0.29192   0.03715   0.22818   0.00000  Uiso   1.00
H59    H     0.25341   0.03707   0.17466   0.00000  Uiso   1.00
N60    N     0.24452   0.47678   0.31964   0.00000  Uiso   1.00
H61    H     0.28314   0.46732   0.31787   0.00000  Uiso   1.00
H62    H     0.23506   0.46803   0.35311   0.00000  Uiso   1.00
N63    N     0.24475   0.29783   0.13539   0.00000  Uiso   1.00
O64    O     0.29428   0.28972   0.13555   0.00000  Uiso   1.00
O65    O     0.23175   0.33682   0.14938   0.00000  Uiso   1.00
N66    N     0.13085   0.17418   0.37054   0.00000  Uiso   1.00
O67    O     0.08435   0.17583   0.34592   0.00000  Uiso   1.00
O68    O     0.15468   0.13596   0.37676   0.00000  Uiso   1.00
N69    N     0.25033   0.29082   0.03657   0.00000  Uiso   1.00
H70    H     0.28426   0.27305   0.04911   0.00000  Uiso   1.00
H71    H     0.25530   0.32415   0.04724   0.00000  Uiso   1.00
N72    N     0.13966   0.17094   0.47093   0.00000  Uiso   1.00
H73    H     0.16753   0.14696   0.46610   0.00000  Uiso   1.00
H74    H     0.10256   0.15932   0.45598   0.00000  Uiso   1.00
O75    O     0.50000   0.18454   0.28974   0.00000  Uiso   1.00
O76    O     0.50000   0.31546   0.21026   0.00000  Uiso   1.00
O77    O     0.50000   0.18453   0.21026   0.00000  Uiso   1.00
O78    O     0.50000   0.31547   0.28974   0.00000  Uiso   1.00
C79    C     0.50078   0.16405   0.25037   0.00000  Uiso   1.00
C80    C     0.50128   0.33605   0.24985   0.00000  Uiso   1.00
O81    O     0.42392   0.25000   0.28045   0.00000  Uiso   1.00
O82    O     0.57608   0.25000   0.21955   0.00000  Uiso   1.00
O83    O     0.42392   0.24999   0.20097   0.00000  Uiso   1.00
O84    O     0.57608   0.25001   0.29903   0.00000  Uiso   1.00
C85    C     0.40050   0.24848   0.23783   0.00000  Uiso   1.00
C86    C     0.59954   0.24962   0.26233   0.00000  Uiso   1.00
Zn87   Zn    0.50000   0.25001   0.30307   0.00000  Uiso   1.00
Zn88   Zn    0.50000   0.25000   0.19693   0.00000  Uiso   1.00
C89    C     0.34567   0.24401   0.23186   0.00000  Uiso   1.00
C90    C     0.65452   0.25034   0.26909   0.00000  Uiso   1.00
H91    H     0.65888   0.23502   0.19722   0.00000  Uiso   1.00
H92    H     0.34136   0.25770   0.30433   0.00000  Uiso   1.00
C93    C     0.47040   0.04461   0.27053   0.00000  Uiso   1.00
C94    C     0.47719   0.45440   0.21415   0.00000  Uiso   1.00
H95    H     0.44116   0.02460   0.28562   0.00000  Uiso   1.00
H96    H     0.45234   0.47320   0.18715   0.00000  Uiso   1.00
C97    C     0.46812   0.09071   0.27128   0.00000  Uiso   1.00
C98    C     0.47492   0.40821   0.21416   0.00000  Uiso   1.00
H99    H     0.43675   0.10640   0.28645   0.00000  Uiso   1.00
H100   H     0.44821   0.39129   0.18711   0.00000  Uiso   1.00
C101   C     0.50530   0.11634   0.25120   0.00000  Uiso   1.00
C102   C     0.50581   0.38406   0.24975   0.00000  Uiso   1.00
C103   C     0.54591   0.09640   0.23094   0.00000  Uiso   1.00
C104   C     0.54100   0.40580   0.28472   0.00000  Uiso   1.00
C105   C     0.54834   0.04956   0.23045   0.00000  Uiso   1.00
C106   C     0.54338   0.45272   0.28449   0.00000  Uiso   1.00
C107   C     0.51006   0.02437   0.25003   0.00000  Uiso   1.00
C108   C     0.51080   0.47630   0.24936   0.00000  Uiso   1.00
C109   C     0.45744   0.23131   0.04801   0.00000  Uiso   1.00
C110   C     0.51096   0.28948   0.44784   0.00000  Uiso   1.00
H111   H     0.42361   0.21662   0.02656   0.00000  Uiso   1.00
H112   H     0.51962   0.32091   0.46588   0.00000  Uiso   1.00
C113   C     0.45952   0.23017   0.09765   0.00000  Uiso   1.00
C114   C     0.51292   0.28811   0.39876   0.00000  Uiso   1.00
H115   H     0.42796   0.21406   0.11327   0.00000  Uiso   1.00
H116   H     0.52390   0.31810   0.38060   0.00000  Uiso   1.00
N117   N     0.50000   0.24999   0.12623   0.00000  Uiso   1.00
N118   N     0.50000   0.25001   0.37376   0.00000  Uiso   1.00
C119   C     0.53941   0.27169   0.10639   0.00000  Uiso   1.00
C120   C     0.48455   0.21234   0.39695   0.00000  Uiso   1.00
C121   C     0.54028   0.27124   0.05660   0.00000  Uiso   1.00
C122   C     0.48513   0.21158   0.44689   0.00000  Uiso   1.00
C123   C     0.49841   0.25133   0.02649   0.00000  Uiso   1.00
C124   C     0.49785   0.25083   0.47312   0.00000  Uiso   1.00
N125   N     0.58443   0.12395   0.21188   0.00000  Uiso   1.00
H126   H     0.58372   0.11641   0.17612   0.00000  Uiso   1.00
H127   H     0.62154   0.11649   0.22999   0.00000  Uiso   1.00
N128   N     0.57461   0.38006   0.31919   0.00000  Uiso   1.00
H129   H     0.56761   0.38896   0.35303   0.00000  Uiso   1.00
H130   H     0.61367   0.38792   0.31581   0.00000  Uiso   1.00
N131   N     0.58877   0.02722   0.21022   0.00000  Uiso   1.00
H132   H     0.62525   0.03715   0.22818   0.00000  Uiso   1.00
H133   H     0.58674   0.03707   0.17466   0.00000  Uiso   1.00
N134   N     0.57786   0.47678   0.31964   0.00000  Uiso   1.00
H135   H     0.61647   0.46732   0.31787   0.00000  Uiso   1.00
H136   H     0.56839   0.46803   0.35311   0.00000  Uiso   1.00
N137   N     0.57808   0.29783   0.13539   0.00000  Uiso   1.00
O138   O     0.62761   0.28972   0.13555   0.00000  Uiso   1.00
O139   O     0.56509   0.33682   0.14938   0.00000  Uiso   1.00
N140   N     0.46418   0.17418   0.37054   0.00000  Uiso   1.00
O141   O     0.41768   0.17583   0.34592   0.00000  Uiso   1.00
O142   O     0.48802   0.13596   0.37676   0.00000  Uiso   1.00
N143   N     0.58366   0.29082   0.03657   0.00000  Uiso   1.00
H144   H     0.61759   0.27305   0.04911   0.00000  Uiso   1.00
H145   H     0.58864   0.32415   0.04724   0.00000  Uiso   1.00
N146   N     0.47300   0.17094   0.47093   0.00000  Uiso   1.00
H147   H     0.50086   0.14696   0.46610   0.00000  Uiso   1.00
H148   H     0.43589   0.15932   0.45598   0.00000  Uiso   1.00
O149   O     0.83334   0.18454   0.28974   0.00000  Uiso   1.00
O150   O     0.83333   0.31546   0.21026   0.00000  Uiso   1.00
O151   O     0.83334   0.18453   0.21026   0.00000  Uiso   1.00
O152   O     0.83333   0.31547   0.28974   0.00000  Uiso   1.00
C153   C     0.83411   0.16405   0.25037   0.00000  Uiso   1.00
C154   C     0.83461   0.33605   0.24985   0.00000  Uiso   1.00
O155   O     0.75725   0.25000   0.28045   0.00000  Uiso   1.00
O156   O     0.90942   0.25000   0.21955   0.00000  Uiso   1.00
O157   O     0.75725   0.24999   0.20097   0.00000  Uiso   1.00
O158   O     0.90942   0.25001   0.29903   0.00000  Uiso   1.00
C159   C     0.73383   0.24848   0.23783   0.00000  Uiso   1.00
C160   C     0.93287   0.24962   0.26233   0.00000  Uiso   1.00
Zn161  Zn    0.83333   0.25001   0.30307   0.00000  Uiso   1.00
Zn162  Zn    0.83333   0.25000   0.19693   0.00000  Uiso   1.00
C163   C     0.67900   0.24401   0.23186   0.00000  Uiso   1.00
C164   C     0.98786   0.25034   0.26909   0.00000  Uiso   1.00
H165   H     0.99221   0.23502   0.19722   0.00000  Uiso   1.00
H166   H     0.67470   0.25770   0.30433   0.00000  Uiso   1.00
C167   C     0.80373   0.04461   0.27053   0.00000  Uiso   1.00
C168   C     0.81052   0.45440   0.21415   0.00000  Uiso   1.00
H169   H     0.77449   0.02460   0.28562   0.00000  Uiso   1.00
H170   H     0.78568   0.47320   0.18715   0.00000  Uiso   1.00
C171   C     0.80146   0.09071   0.27128   0.00000  Uiso   1.00
C172   C     0.80826   0.40821   0.21416   0.00000  Uiso   1.00
H173   H     0.77008   0.10640   0.28645   0.00000  Uiso   1.00
H174   H     0.78155   0.39129   0.18711   0.00000  Uiso   1.00
C175   C     0.83863   0.11634   0.25120   0.00000  Uiso   1.00
C176   C     0.83915   0.38406   0.24975   0.00000  Uiso   1.00
C177   C     0.87924   0.09640   0.23094   0.00000  Uiso   1.00
C178   C     0.87433   0.40580   0.28472   0.00000  Uiso   1.00
C179   C     0.88168   0.04956   0.23045   0.00000  Uiso   1.00
C180   C     0.87671   0.45272   0.28449   0.00000  Uiso   1.00
C181   C     0.84340   0.02437   0.25003   0.00000  Uiso   1.00
C182   C     0.84413   0.47630   0.24936   0.00000  Uiso   1.00
C183   C     0.79078   0.23131   0.04801   0.00000  Uiso   1.00
C184   C     0.84429   0.28948   0.44784   0.00000  Uiso   1.00
H185   H     0.75695   0.21662   0.02656   0.00000  Uiso   1.00
H186   H     0.85296   0.32091   0.46588   0.00000  Uiso   1.00
C187   C     0.79285   0.23017   0.09765   0.00000  Uiso   1.00
C188   C     0.84625   0.28811   0.39876   0.00000  Uiso   1.00
H189   H     0.76130   0.21406   0.11327   0.00000  Uiso   1.00
H190   H     0.85724   0.31810   0.38060   0.00000  Uiso   1.00
N191   N     0.83333   0.24999   0.12623   0.00000  Uiso   1.00
N192   N     0.83333   0.25001   0.37376   0.00000  Uiso   1.00
C193   C     0.87275   0.27169   0.10639   0.00000  Uiso   1.00
C194   C     0.81788   0.21234   0.39695   0.00000  Uiso   1.00
C195   C     0.87362   0.27124   0.05660   0.00000  Uiso   1.00
C196   C     0.81847   0.21158   0.44689   0.00000  Uiso   1.00
C197   C     0.83174   0.25133   0.02649   0.00000  Uiso   1.00
C198   C     0.83119   0.25083   0.47312   0.00000  Uiso   1.00
N199   N     0.91777   0.12395   0.21188   0.00000  Uiso   1.00
H200   H     0.91706   0.11641   0.17612   0.00000  Uiso   1.00
H201   H     0.95488   0.11649   0.22999   0.00000  Uiso   1.00
N202   N     0.90795   0.38006   0.31919   0.00000  Uiso   1.00
H203   H     0.90094   0.38896   0.35303   0.00000  Uiso   1.00
H204   H     0.94700   0.38792   0.31581   0.00000  Uiso   1.00
N205   N     0.92210   0.02722   0.21022   0.00000  Uiso   1.00
H206   H     0.95858   0.03715   0.22818   0.00000  Uiso   1.00
H207   H     0.92008   0.03707   0.17466   0.00000  Uiso   1.00
N208   N     0.91119   0.47678   0.31964   0.00000  Uiso   1.00
H209   H     0.94980   0.46732   0.31787   0.00000  Uiso   1.00
H210   H     0.90173   0.46803   0.35311   0.00000  Uiso   1.00
N211   N     0.91142   0.29783   0.13539   0.00000  Uiso   1.00
O212   O     0.96095   0.28972   0.13555   0.00000  Uiso   1.00
O213   O     0.89842   0.33682   0.14938   0.00000  Uiso   1.00
N214   N     0.79752   0.17418   0.37054   0.00000  Uiso   1.00
O215   O     0.75102   0.17583   0.34592   0.00000  Uiso   1.00
O216   O     0.82135   0.13596   0.37676   0.00000  Uiso   1.00
N217   N     0.91700   0.29082   0.03657   0.00000  Uiso   1.00
H218   H     0.95092   0.27305   0.04911   0.00000  Uiso   1.00
H219   H     0.92197   0.32415   0.04724   0.00000  Uiso   1.00
N220   N     0.80633   0.17094   0.47093   0.00000  Uiso   1.00
H221   H     0.83420   0.14696   0.46610   0.00000  Uiso   1.00
H222   H     0.76922   0.15932   0.45598   0.00000  Uiso   1.00
O223   O     0.16667   0.68454   0.28974   0.00000  Uiso   1.00
O224   O     0.16666   0.81546   0.21026   0.00000  Uiso   1.00
O225   O     0.16667   0.68453   0.21026   0.00000  Uiso   1.00
O226   O     0.16666   0.81547   0.28974   0.00000  Uiso   1.00
C227   C     0.16744   0.66405   0.25037   0.00000  Uiso   1.00
C228   C     0.16794   0.83605   0.24985   0.00000  Uiso   1.00
O229   O     0.09058   0.75000   0.28045   0.00000  Uiso   1.00
O230   O     0.24275   0.75000   0.21955   0.00000  Uiso   1.00
O231   O     0.09058   0.74999   0.20097   0.00000  Uiso   1.00
O232   O     0.24275   0.75001   0.29903   0.00000  Uiso   1.00
C233   C     0.06716   0.74848   0.23783   0.00000  Uiso   1.00
C234   C     0.26620   0.74962   0.26233   0.00000  Uiso   1.00
Zn235  Zn    0.16667   0.75001   0.30307   0.00000  Uiso   1.00
Zn236  Zn    0.16667   0.75000   0.19693   0.00000  Uiso   1.00
C237   C     0.01234   0.74401   0.23186   0.00000  Uiso   1.00
C238   C     0.32119   0.75034   0.26909   0.00000  Uiso   1.00
H239   H     0.32555   0.73502   0.19722   0.00000  Uiso   1.00
H240   H     0.00803   0.75770   0.30433   0.00000  Uiso   1.00
C241   C     0.13706   0.54461   0.27053   0.00000  Uiso   1.00
C242   C     0.14385   0.95440   0.21415   0.00000  Uiso   1.00
H243   H     0.10782   0.52460   0.28562   0.00000  Uiso   1.00
H244   H     0.11901   0.97320   0.18715   0.00000  Uiso   1.00
C245   C     0.13479   0.59071   0.27128   0.00000  Uiso   1.00
C246   C     0.14159   0.90821   0.21416   0.00000  Uiso   1.00
H247   H     0.10342   0.60640   0.28645   0.00000  Uiso   1.00
H248   H     0.11488   0.89129   0.18711   0.00000  Uiso   1.00
C249   C     0.17197   0.61634   0.25120   0.00000  Uiso   1.00
C250   C     0.17248   0.88406   0.24975   0.00000  Uiso   1.00
C251   C     0.21258   0.59640   0.23094   0.00000  Uiso   1.00
C252   C     0.20766   0.90580   0.28472   0.00000  Uiso   1.00
C253   C     0.21501   0.54956   0.23045   0.00000  Uiso   1.00
C254   C     0.21004   0.95272   0.28449   0.00000  Uiso   1.00
C255   C     0.17673   0.52437   0.25003   0.00000  Uiso   1.00
C256   C     0.17747   0.97630   0.24936   0.00000  Uiso   1.00
C257   C     0.12411   0.73131   0.04801   0.00000  Uiso   1.00
C258   C     0.17763   0.78948   0.44784   0.00000  Uiso   1.00
H259   H     0.09028   0.71662   0.02656   0.00000  Uiso   1.00
H260   H     0.18629   0.82091   0.46588   0.00000  Uiso   1.00
C261   C     0.12619   0.73017   0.09765   0.00000  Uiso   1.00
C262   C     0.17958   0.78811   0.39876   0.00000  Uiso   1.00
H263   H     0.09463   0.71406   0.11327   0.00000  Uiso   1.00
H264   H     0.19057   0.81810   0.38060   0.00000  Uiso   1.00
N265   N     0.16667   0.74999   0.12623   0.00000  Uiso   1.00
N266   N     0.16667   0.75001   0.37376   0.00000  Uiso   1.00
C267   C     0.20608   0.77169   0.10639   0.00000  Uiso   1.00
C268   C     0.15121   0.71234   0.39695   0.00000  Uiso   1.00
C269   C     0.20695   0.77124   0.05660   0.00000  Uiso   1.00
C270   C     0.15180   0.71158   0.44689   0.00000  Uiso   1.00
C271   C     0.16507   0.75133   0.02649   0.00000  Uiso   1.00
C272   C     0.16452   0.75083   0.47312   0.00000  Uiso   1.00
N273   N     0.25110   0.62395   0.21188   0.00000  Uiso   1.00
H274   H     0.25039   0.61641   0.17612   0.00000  Uiso   1.00
H275   H     0.28821   0.61649   0.22999   0.00000  Uiso   1.00
N276   N     0.24128   0.88006   0.31919   0.00000  Uiso   1.00
H277   H     0.23428   0.88896   0.35303   0.00000  Uiso   1.00
H278   H     0.28034   0.88792   0.31581   0.00000  Uiso   1.00
N279   N     0.25543   0.52722   0.21022   0.00000  Uiso   1.00
H280   H     0.29192   0.53715   0.22818   0.00000  Uiso   1.00
H281   H     0.25341   0.53707   0.17466   0.00000  Uiso   1.00
N282   N     0.24452   0.97678   0.31964   0.00000  Uiso   1.00
H283   H     0.28314   0.96732   0.31787   0.00000  Uiso   1.00
H284   H     0.23506   0.96803   0.35311   0.00000  Uiso   1.00
N285   N     0.24475   0.79783   0.13539   0.00000  Uiso   1.00
O286   O     0.29428   0.78972   0.13555   0.00000  Uiso   1.00
O287   O     0.23175   0.83682   0.14938   0.00000  Uiso   1.00
N288   N     0.13085   0.67418   0.37054   0.00000  Uiso   1.00
O289   O     0.08435   0.67583   0.34592   0.00000  Uiso   1.00
O290   O     0.15468   0.63596   0.37676   0.00000  Uiso   1.00
N291   N     0.25033   0.79082   0.03657   0.00000  Uiso   1.00
H292   H     0.28426   0.77305   0.04911   0.00000  Uiso   1.00
H293   H     0.25530   0.82415   0.04724   0.00000  Uiso   1.00
N294   N     0.13966   0.67094   0.47093   0.00000  Uiso   1.00
H295   H     0.16753   0.64696   0.46610   0.00000  Uiso   1.00
H296   H     0.10256   0.65932   0.45598   0.00000  Uiso   1.00
O297   O     0.50000   0.68454   0.28974   0.00000  Uiso   1.00
O298   O     0.50000   0.81546   0.21026   0.00000  Uiso   1.00
O299   O     0.50000   0.68453   0.21026   0.00000  Uiso   1.00
O300   O     0.50000   0.81547   0.28974   0.00000  Uiso   1.00
C301   C     0.50078   0.66405   0.25037   0.00000  Uiso   1.00
C302   C     0.50128   0.83605   0.24985   0.00000  Uiso   1.00
O303   O     0.42392   0.75000   0.28045   0.00000  Uiso   1.00
O304   O     0.57608   0.75000   0.21955   0.00000  Uiso   1.00
O305   O     0.42392   0.74999   0.20097   0.00000  Uiso   1.00
O306   O     0.57608   0.75001   0.29903   0.00000  Uiso   1.00
C307   C     0.40050   0.74848   0.23783   0.00000  Uiso   1.00
C308   C     0.59954   0.74962   0.26233   0.00000  Uiso   1.00
Zn309  Zn    0.50000   0.75001   0.30307   0.00000  Uiso   1.00
Zn310  Zn    0.50000   0.75000   0.19693   0.00000  Uiso   1.00
C311   C     0.34567   0.74401   0.23186   0.00000  Uiso   1.00
C312   C     0.65452   0.75034   0.26909   0.00000  Uiso   1.00
H313   H     0.65888   0.73502   0.19722   0.00000  Uiso   1.00
H314   H     0.34136   0.75770   0.30433   0.00000  Uiso   1.00
C315   C     0.47040   0.54461   0.27053   0.00000  Uiso   1.00
C316   C     0.47719   0.95440   0.21415   0.00000  Uiso   1.00
H317   H     0.44116   0.52460   0.28562   0.00000  Uiso   1.00
H318   H     0.45234   0.97320   0.18715   0.00000  Uiso   1.00
C319   C     0.46812   0.59071   0.27128   0.00000  Uiso   1.00
C320   C     0.47492   0.90821   0.21416   0.00000  Uiso   1.00
H321   H     0.43675   0.60640   0.28645   0.00000  Uiso   1.00
H322   H     0.44821   0.89129   0.18711   0.00000  Uiso   1.00
C323   C     0.50530   0.61634   0.25120   0.00000  Uiso   1.00
C324   C     0.50581   0.88406   0.24975   0.00000  Uiso   1.00
C325   C     0.54591   0.59640   0.23094   0.00000  Uiso   1.00
C326   C     0.54100   0.90580   0.28472   0.00000  Uiso   1.00
C327   C     0.54834   0.54956   0.23045   0.00000  Uiso   1.00
C328   C     0.54338   0.95272   0.28449   0.00000  Uiso   1.00
C329   C     0.51006   0.52437   0.25003   0.00000  Uiso   1.00
C330   C     0.51080   0.97630   0.24936   0.00000  Uiso   1.00
C331   C     0.45744   0.73131   0.04801   0.00000  Uiso   1.00
C332   C     0.51096   0.78948   0.44784   0.00000  Uiso   1.00
H333   H     0.42361   0.71662   0.02656   0.00000  Uiso   1.00
H334   H     0.51962   0.82091   0.46588   0.00000  Uiso   1.00
C335   C     0.45952   0.73017   0.09765   0.00000  Uiso   1.00
C336   C     0.51292   0.78811   0.39876   0.00000  Uiso   1.00
H337   H     0.42796   0.71406   0.11327   0.00000  Uiso   1.00
H338   H     0.52390   0.81810   0.38060   0.00000  Uiso   1.00
N339   N     0.50000   0.74999   0.12623   0.00000  Uiso   1.00
N340   N     0.50000   0.75001   0.37376   0.00000  Uiso   1.00
C341   C     0.53941   0.77169   0.10639   0.00000  Uiso   1.00
C342   C     0.48455   0.71234   0.39695   0.00000  Uiso   1.00
C343   C     0.54028   0.77124   0.05660   0.00000  Uiso   1.00
C344   C     0.48513   0.71158   0.44689   0.00000  Uiso   1.00
C345   C     0.49841   0.75133   0.02649   0.00000  Uiso   1.00
C346   C     0.49785   0.75083   0.47312   0.00000  Uiso   1.00
N347   N     0.58443   0.62395   0.21188   0.00000  Uiso   1.00
H348   H     0.58372   0.61641   0.17612   0.00000  Uiso   1.00
H349   H     0.62154   0.61649   0.22999   0.00000  Uiso   1.00
N350   N     0.57461   0.88006   0.31919   0.00000  Uiso   1.00
H351   H     0.56761   0.88896   0.35303   0.00000  Uiso   1.00
H352   H     0.61367   0.88792   0.31581   0.00000  Uiso   1.00
N353   N     0.58877   0.52722   0.21022   0.00000  Uiso   1.00
H354   H     0.62525   0.53715   0.22818   0.00000  Uiso   1.00
H355   H     0.58674   0.53707   0.17466   0.00000  Uiso   1.00
N356   N     0.57786   0.97678   0.31964   0.00000  Uiso   1.00
H357   H     0.61647   0.96732   0.31787   0.00000  Uiso   1.00
H358   H     0.56839   0.96803   0.35311   0.00000  Uiso   1.00
N359   N     0.57808   0.79783   0.13539   0.00000  Uiso   1.00
O360   O     0.62761   0.78972   0.13555   0.00000  Uiso   1.00
O361   O     0.56509   0.83682   0.14938   0.00000  Uiso   1.00
N362   N     0.46418   0.67418   0.37054   0.00000  Uiso   1.00
O363   O     0.41768   0.67583   0.34592   0.00000  Uiso   1.00
O364   O     0.48802   0.63596   0.37676   0.00000  Uiso   1.00
N365   N     0.58366   0.79082   0.03657   0.00000  Uiso   1.00
H366   H     0.61759   0.77305   0.04911   0.00000  Uiso   1.00
H367   H     0.58864   0.82415   0.04724   0.00000  Uiso   1.00
N368   N     0.47300   0.67094   0.47093   0.00000  Uiso   1.00
H369   H     0.50086   0.64696   0.46610   0.00000  Uiso   1.00
H370   H     0.43589   0.65932   0.45598   0.00000  Uiso   1.00
O371   O     0.83334   0.68454   0.28974   0.00000  Uiso   1.00
O372   O     0.83333   0.81546   0.21026   0.00000  Uiso   1.00
O373   O     0.83334   0.68453   0.21026   0.00000  Uiso   1.00
O374   O     0.83333   0.81547   0.28974   0.00000  Uiso   1.00
C375   C     0.83411   0.66405   0.25037   0.00000  Uiso   1.00
C376   C     0.83461   0.83605   0.24985   0.00000  Uiso   1.00
O377   O     0.75725   0.75000   0.28045   0.00000  Uiso   1.00
O378   O     0.90942   0.75000   0.21955   0.00000  Uiso   1.00
O379   O     0.75725   0.74999   0.20097   0.00000  Uiso   1.00
O380   O     0.90942   0.75001   0.29903   0.00000  Uiso   1.00
C381   C     0.73383   0.74848   0.23783   0.00000  Uiso   1.00
C382   C     0.93287   0.74962   0.26233   0.00000  Uiso   1.00
Zn383  Zn    0.83333   0.75001   0.30307   0.00000  Uiso   1.00
Zn384  Zn    0.83333   0.75000   0.19693   0.00000  Uiso   1.00
C385   C     0.67900   0.74401   0.23186   0.00000  Uiso   1.00
C386   C     0.98786   0.75034   0.26909   0.00000  Uiso   1.00
H387   H     0.99221   0.73502   0.19722   0.00000  Uiso   1.00
H388   H     0.67470   0.75770   0.30433   0.00000  Uiso   1.00
C389   C     0.80373   0.54461   0.27053   0.00000  Uiso   1.00
C390   C     0.81052   0.95440   0.21415   0.00000  Uiso   1.00
H391   H     0.77449   0.52460   0.28562   0.00000  Uiso   1.00
H392   H     0.78568   0.97320   0.18715   0.00000  Uiso   1.00
C393   C     0.80146   0.59071   0.27128   0.00000  Uiso   1.00
C394   C     0.80826   0.90821   0.21416   0.00000  Uiso   1.00
H395   H     0.77008   0.60640   0.28645   0.00000  Uiso   1.00
H396   H     0.78155   0.89129   0.18711   0.00000  Uiso   1.00
C397   C     0.83863   0.61634   0.25120   0.00000  Uiso   1.00
C398   C     0.83915   0.88406   0.24975   0.00000  Uiso   1.00
C399   C     0.87924   0.59640   0.23094   0.00000  Uiso   1.00
C400   C     0.87433   0.90580   0.28472   0.00000  Uiso   1.00
C401   C     0.88168   0.54956   0.23045   0.00000  Uiso   1.00
C402   C     0.87671   0.95272   0.28449   0.00000  Uiso   1.00
C403   C     0.84340   0.52437   0.25003   0.00000  Uiso   1.00
C404   C     0.84413   0.97630   0.24936   0.00000  Uiso   1.00
C405   C     0.79078   0.73131   0.04801   0.00000  Uiso   1.00
C406   C     0.84429   0.78948   0.44784   0.00000  Uiso   1.00
H407   H     0.75695   0.71662   0.02656   0.00000  Uiso   1.00
H408   H     0.85296   0.82091   0.46588   0.00000  Uiso   1.00
C409   C     0.79285   0.73017   0.09765   0.00000  Uiso   1.00
C410   C     0.84625   0.78811   0.39876   0.00000  Uiso   1.00
H411   H     0.76130   0.71406   0.11327   0.00000  Uiso   1.00
H412   H     0.85724   0.81810   0.38060   0.00000  Uiso   1.00
N413   N     0.83333   0.74999   0.12623   0.00000  Uiso   1.00
N414   N     0.83333   0.75001   0.37376   0.00000  Uiso   1.00
C415   C     0.87275   0.77169   0.10639   0.00000  Uiso   1.00
C416   C     0.81788   0.71234   0.39695   0.00000  Uiso   1.00
C417   C     0.87362   0.77124   0.05660   0.00000  Uiso   1.00
C418   C     0.81847   0.71158   0.44689   0.00000  Uiso   1.00
C419   C     0.83174   0.75133   0.02649   0.00000  Uiso   1.00
C420   C     0.83119   0.75083   0.47312   0.00000  Uiso   1.00
N421   N     0.91777   0.62395   0.21188   0.00000  Uiso   1.00
H422   H     0.91706   0.61641   0.17612   0.00000  Uiso   1.00
H423   H     0.95488   0.61649   0.22999   0.00000  Uiso   1.00
N424   N     0.90795   0.88006   0.31919   0.00000  Uiso   1.00
H425   H     0.90094   0.88896   0.35303   0.00000  Uiso   1.00
H426   H     0.94700   0.88792   0.31581   0.00000  Uiso   1.00
N427   N     0.92210   0.52722   0.21022   0.00000  Uiso   1.00
H428   H     0.95858   0.53715   0.22818   0.00000  Uiso   1.00
H429   H     0.92008   0.53707   0.17466   0.00000  Uiso   1.00
N430   N     0.91119   0.97678   0.31964   0.00000  Uiso   1.00
H431   H     0.94980   0.96732   0.31787   0.00000  Uiso   1.00
H432   H     0.90173   0.96803   0.35311   0.00000  Uiso   1.00
N433   N     0.91142   0.79783   0.13539   0.00000  Uiso   1.00
O434   O     0.96095   0.78972   0.13555   0.00000  Uiso   1.00
O435   O     0.89842   0.83682   0.14938   0.00000  Uiso   1.00
N436   N     0.79752   0.67418   0.37054   0.00000  Uiso   1.00
O437   O     0.75102   0.67583   0.34592   0.00000  Uiso   1.00
O438   O     0.82135   0.63596   0.37676   0.00000  Uiso   1.00
N439   N     0.91700   0.79082   0.03657   0.00000  Uiso   1.00
H440   H     0.95092   0.77305   0.04911   0.00000  Uiso   1.00
H441   H     0.92197   0.82415   0.04724   0.00000  Uiso   1.00
N442   N     0.80633   0.67094   0.47093   0.00000  Uiso   1.00
H443   H     0.83420   0.64696   0.46610   0.00000  Uiso   1.00
H444   H     0.76922   0.65932   0.45598   0.00000  Uiso   1.00
O445   O     0.16667   0.18454   0.78974   0.00000  Uiso   1.00
O446   O     0.16666   0.31546   0.71026   0.00000  Uiso   1.00
O447   O     0.16667   0.18453   0.71026   0.00000  Uiso   1.00
O448   O     0.16666   0.31547   0.78974   0.00000  Uiso   1.00
C449   C     0.16744   0.16405   0.75037   0.00000  Uiso   1.00
C450   C     0.16794   0.33605   0.74985   0.00000  Uiso   1.00
O451   O     0.09058   0.25000   0.78045   0.00000  Uiso   1.00
O452   O     0.24275   0.25000   0.71955   0.00000  Uiso   1.00
O453   O     0.09058   0.24999   0.70097   0.00000  Uiso   1.00
O454   O     0.24275   0.25001   0.79903   0.00000  Uiso   1.00
C455   C     0.06716   0.24848   0.73783   0.00000  Uiso   1.00
C456   C     0.26620   0.24962   0.76233   0.00000  Uiso   1.00
Zn457  Zn    0.16667   0.25001   0.80307   0.00000  Uiso   1.00
Zn458  Zn    0.16667   0.25000   0.69693   0.00000  Uiso   1.00
C459   C     0.01234   0.24401   0.73186   0.00000  Uiso   1.00
C460   C     0.32119   0.25034   0.76909   0.00000  Uiso   1.00
H461   H     0.32555   0.23502   0.69722   0.00000  Uiso   1.00
H462   H     0.00803   0.25770   0.80433   0.00000  Uiso   1.00
C463   C     0.13706   0.04461   0.77053   0.00000  Uiso   1.00
C464   C     0.14385   0.45440   0.71415   0.00000  Uiso   1.00
H465   H     0.10782   0.02460   0.78562   0.00000  Uiso   1.00
H466   H     0.11901   0.47320   0.68715   0.00000  Uiso   1.00
C467   C     0.13479   0.09071   0.77128   0.00000  Uiso   1.00
C468   C     0.14159   0.40821   0.71416   0.00000  Uiso   1.00
H469   H     0.10342   0.10640   0.78645   0.00000  Uiso   1.00
H470   H     0.11488   0.39129   0.68711   0.00000  Uiso   1.00
C471   C     0.17197   0.11634   0.75120   0.00000  Uiso   1.00
C472   C     0.17248   0.38406   0.74975   0.00000  Uiso   1.00
C473   C     0.21258   0.09640   0.73094   0.00000  Uiso   1.00
C474   C     0.20766   0.40580   0.78472   0.00000  Uiso   1.00
C475   C     0.21501   0.04956   0.73045   0.00000  Uiso   1.00
C476   C     0.21004   0.45272   0.78449   0.00000  Uiso   1.00
C477   C     0.17673   0.02437   0.75003   0.00000  Uiso   1.00
C478   C     0.17747   0.47630   0.74936   0.00000  Uiso   1.00
C479   C     0.12411   0.23131   0.54801   0.00000  Uiso   1.00
C480   C     0.17763   0.28948   0.94784   0.00000  Uiso   1.00
H481   H     0.09028   0.21662   0.52656   0.00000  Uiso   1.00
H482   H     0.18629   0.32091   0.96588   0.00000  Uiso   1.00
C483   C     0.12619   0.23017   0.59765   0.00000  Uiso   1.00
C484   C     0.17958   0.28811   0.89876   0.00000  Uiso   1.00
H485   H     0.09463   0.21406   0.61327   0.00000  Uiso   1.00
H486   H     0.19057   0.31810   0.88060   0.00000  Uiso   1.00
N487   N     0.16667   0.24999   0.62623   0.00000  Uiso   1.00
N488   N     0.16667   0.25001   0.87376   0.00000  Uiso   1.00
C489   C     0.20608   0.27169   0.60639   0.00000  Uiso   1.00
C490   C     0.15121   0.21234   0.89695   0.00000  Uiso   1.00
C491   C     0.20695   0.27124   0.55660   0.00000  Uiso   1.00
C492   C     0.15180   0.21158   0.94689   0.00000  Uiso   1.00
C493   C     0.16507   0.25133   0.52649   0.00000  Uiso   1.00
C494   C     0.16452   0.25083   0.97312   0.00000  Uiso   1.00
N495   N     0.25110   0.12395   0.71188   0.00000  Uiso   1.00
H496   H     0.25039   0.11641   0.67612   0.00000  Uiso   1.00
H497   H     0.28821   0.11649   0.72999   0.00000  Uiso   1.00
N498   N     0.24128   0.38006   0.81919   0.00000  Uiso   1.00
H499   H     0.23428   0.38896   0.85303   0.00000  Uiso   1.00
H500   H     0.28034   0.38792   0.81581   0.00000  Uiso   1.00
N501   N     0.25543   0.02722   0.71022   0.00000  Uiso   1.00
H502   H     0.29192   0.03715   0.72818   0.00000  Uiso   1.00
H503   H     0.25341   0.03707   0.67466   0.00000  Uiso   1.00
N504   N     0.24452   0.47678   0.81964   0.00000  Uiso   1.00
H505   H     0.28314   0.46732   0.81787   0.00000  Uiso   1.00
H506   H     0.23506   0.46803   0.85311   0.00000  Uiso   1.00
N507   N     0.24475   0.29783   0.63539   0.00000  Uiso   1.00
O508   O     0.29428   0.28972   0.63555   0.00000  Uiso   1.00
O509   O     0.23175   0.33682   0.64938   0.00000  Uiso   1.00
N510   N     0.13085   0.17418   0.87054   0.00000  Uiso   1.00
O511   O     0.08435   0.17583   0.84592   0.00000  Uiso   1.00
O512   O     0.15468   0.13596   0.87676   0.00000  Uiso   1.00
N513   N     0.25033   0.29082   0.53657   0.00000  Uiso   1.00
H514   H     0.28426   0.27305   0.54911   0.00000  Uiso   1.00
H515   H     0.25530   0.32415   0.54724   0.00000  Uiso   1.00
N516   N     0.13966   0.17094   0.97093   0.00000  Uiso   1.00
H517   H     0.16753   0.14696   0.96610   0.00000  Uiso   1.00
H518   H     0.10256   0.15932   0.95598   0.00000  Uiso   1.00
O519   O     0.50000   0.18454   0.78974   0.00000  Uiso   1.00
O520   O     0.50000   0.31546   0.71026   0.00000  Uiso   1.00
O521   O     0.50000   0.18453   0.71026   0.00000  Uiso   1.00
O522   O     0.50000   0.31547   0.78974   0.00000  Uiso   1.00
C523   C     0.50078   0.16405   0.75037   0.00000  Uiso   1.00
C524   C     0.50128   0.33605   0.74985   0.00000  Uiso   1.00
O525   O     0.42392   0.25000   0.78045   0.00000  Uiso   1.00
O526   O     0.57608   0.25000   0.71955   0.00000  Uiso   1.00
O527   O     0.42392   0.24999   0.70097   0.00000  Uiso   1.00
O528   O     0.57608   0.25001   0.79903   0.00000  Uiso   1.00
C529   C     0.40050   0.24848   0.73783   0.00000  Uiso   1.00
C530   C     0.59954   0.24962   0.76233   0.00000  Uiso   1.00
Zn531  Zn    0.50000   0.25001   0.80307   0.00000  Uiso   1.00
Zn532  Zn    0.50000   0.25000   0.69693   0.00000  Uiso   1.00
C533   C     0.34567   0.24401   0.73186   0.00000  Uiso   1.00
C534   C     0.65452   0.25034   0.76909   0.00000  Uiso   1.00
H535   H     0.65888   0.23502   0.69722   0.00000  Uiso   1.00
H536   H     0.34136   0.25770   0.80433   0.00000  Uiso   1.00
C537   C     0.47040   0.04461   0.77053   0.00000  Uiso   1.00
C538   C     0.47719   0.45440   0.71415   0.00000  Uiso   1.00
H539   H     0.44116   0.02460   0.78562   0.00000  Uiso   1.00
H540   H     0.45234   0.47320   0.68715   0.00000  Uiso   1.00
C541   C     0.46812   0.09071   0.77128   0.00000  Uiso   1.00
C542   C     0.47492   0.40821   0.71416   0.00000  Uiso   1.00
H543   H     0.43675   0.10640   0.78645   0.00000  Uiso   1.00
H544   H     0.44821   0.39129   0.68711   0.00000  Uiso   1.00
C545   C     0.50530   0.11634   0.75120   0.00000  Uiso   1.00
C546   C     0.50581   0.38406   0.74975   0.00000  Uiso   1.00
C547   C     0.54591   0.09640   0.73094   0.00000  Uiso   1.00
C548   C     0.54100   0.40580   0.78472   0.00000  Uiso   1.00
C549   C     0.54834   0.04956   0.73045   0.00000  Uiso   1.00
C550   C     0.54338   0.45272   0.78449   0.00000  Uiso   1.00
C551   C     0.51006   0.02437   0.75003   0.00000  Uiso   1.00
C552   C     0.51080   0.47630   0.74936   0.00000  Uiso   1.00
C553   C     0.45744   0.23131   0.54801   0.00000  Uiso   1.00
C554   C     0.51096   0.28948   0.94784   0.00000  Uiso   1.00
H555   H     0.42361   0.21662   0.52656   0.00000  Uiso   1.00
H556   H     0.51962   0.32091   0.96588   0.00000  Uiso   1.00
C557   C     0.45952   0.23017   0.59765   0.00000  Uiso   1.00
C558   C     0.51292   0.28811   0.89876   0.00000  Uiso   1.00
H559   H     0.42796   0.21406   0.61327   0.00000  Uiso   1.00
H560   H     0.52390   0.31810   0.88060   0.00000  Uiso   1.00
N561   N     0.50000   0.24999   0.62623   0.00000  Uiso   1.00
N562   N     0.50000   0.25001   0.87376   0.00000  Uiso   1.00
C563   C     0.53941   0.27169   0.60639   0.00000  Uiso   1.00
C564   C     0.48455   0.21234   0.89695   0.00000  Uiso   1.00
C565   C     0.54028   0.27124   0.55660   0.00000  Uiso   1.00
C566   C     0.48513   0.21158   0.94689   0.00000  Uiso   1.00
C567   C     0.49841   0.25133   0.52649   0.00000  Uiso   1.00
C568   C     0.49785   0.25083   0.97312   0.00000  Uiso   1.00
N569   N     0.58443   0.12395   0.71188   0.00000  Uiso   1.00
H570   H     0.58372   0.11641   0.67612   0.00000  Uiso   1.00
H571   H     0.62154   0.11649   0.72999   0.00000  Uiso   1.00
N572   N     0.57461   0.38006   0.81919   0.00000  Uiso   1.00
H573   H     0.56761   0.38896   0.85303   0.00000  Uiso   1.00
H574   H     0.61367   0.38792   0.81581   0.00000  Uiso   1.00
N575   N     0.58877   0.02722   0.71022   0.00000  Uiso   1.00
H576   H     0.62525   0.03715   0.72818   0.00000  Uiso   1.00
H577   H     0.58674   0.03707   0.67466   0.00000  Uiso   1.00
N578   N     0.57786   0.47678   0.81964   0.00000  Uiso   1.00
H579   H     0.61647   0.46732   0.81787   0.00000  Uiso   1.00
H580   H     0.56839   0.46803   0.85311   0.00000  Uiso   1.00
N581   N     0.57808   0.29783   0.63539   0.00000  Uiso   1.00
O582   O     0.62761   0.28972   0.63555   0.00000  Uiso   1.00
O583   O     0.56509   0.33682   0.64938   0.00000  Uiso   1.00
N584   N     0.46418   0.17418   0.87054   0.00000  Uiso   1.00
O585   O     0.41768   0.17583   0.84592   0.00000  Uiso   1.00
O586   O     0.48802   0.13596   0.87676   0.00000  Uiso   1.00
N587   N     0.58366   0.29082   0.53657   0.00000  Uiso   1.00
H588   H     0.61759   0.27305   0.54911   0.00000  Uiso   1.00
H589   H     0.58864   0.32415   0.54724   0.00000  Uiso   1.00
N590   N     0.47300   0.17094   0.97093   0.00000  Uiso   1.00
H591   H     0.50086   0.14696   0.96610   0.00000  Uiso   1.00
H592   H     0.43589   0.15932   0.95598   0.00000  Uiso   1.00
O593   O     0.83334   0.18454   0.78974   0.00000  Uiso   1.00
O594   O     0.83333   0.31546   0.71026   0.00000  Uiso   1.00
O595   O     0.83334   0.18453   0.71026   0.00000  Uiso   1.00
O596   O     0.83333   0.31547   0.78974   0.00000  Uiso   1.00
C597   C     0.83411   0.16405   0.75037   0.00000  Uiso   1.00
C598   C     0.83461   0.33605   0.74985   0.00000  Uiso   1.00
O599   O     0.75725   0.25000   0.78045   0.00000  Uiso   1.00
O600   O     0.90942   0.25000   0.71955   0.00000  Uiso   1.00
O601   O     0.75725   0.24999   0.70097   0.00000  Uiso   1.00
O602   O     0.90942   0.25001   0.79903   0.00000  Uiso   1.00
C603   C     0.73383   0.24848   0.73783   0.00000  Uiso   1.00
C604   C     0.93287   0.24962   0.76233   0.00000  Uiso   1.00
Zn605  Zn    0.83333   0.25001   0.80307   0.00000  Uiso   1.00
Zn606  Zn    0.83333   0.25000   0.69693   0.00000  Uiso   1.00
C607   C     0.67900   0.24401   0.73186   0.00000  Uiso   1.00
C608   C     0.98786   0.25034   0.76909   0.00000  Uiso   1.00
H609   H     0.99221   0.23502   0.69722   0.00000  Uiso   1.00
H610   H     0.67470   0.25770   0.80433   0.00000  Uiso   1.00
C611   C     0.80373   0.04461   0.77053   0.00000  Uiso   1.00
C612   C     0.81052   0.45440   0.71415   0.00000  Uiso   1.00
H613   H     0.77449   0.02460   0.78562   0.00000  Uiso   1.00
H614   H     0.78568   0.47320   0.68715   0.00000  Uiso   1.00
C615   C     0.80146   0.09071   0.77128   0.00000  Uiso   1.00
C616   C     0.80826   0.40821   0.71416   0.00000  Uiso   1.00
H617   H     0.77008   0.10640   0.78645   0.00000  Uiso   1.00
H618   H     0.78155   0.39129   0.68711   0.00000  Uiso   1.00
C619   C     0.83863   0.11634   0.75120   0.00000  Uiso   1.00
C620   C     0.83915   0.38406   0.74975   0.00000  Uiso   1.00
C621   C     0.87924   0.09640   0.73094   0.00000  Uiso   1.00
C622   C     0.87433   0.40580   0.78472   0.00000  Uiso   1.00
C623   C     0.88168   0.04956   0.73045   0.00000  Uiso   1.00
C624   C     0.87671   0.45272   0.78449   0.00000  Uiso   1.00
C625   C     0.84340   0.02437   0.75003   0.00000  Uiso   1.00
C626   C     0.84413   0.47630   0.74936   0.00000  Uiso   1.00
C627   C     0.79078   0.23131   0.54801   0.00000  Uiso   1.00
C628   C     0.84429   0.28948   0.94784   0.00000  Uiso   1.00
H629   H     0.75695   0.21662   0.52656   0.00000  Uiso   1.00
H630   H     0.85296   0.32091   0.96588   0.00000  Uiso   1.00
C631   C     0.79285   0.23017   0.59765   0.00000  Uiso   1.00
C632   C     0.84625   0.28811   0.89876   0.00000  Uiso   1.00
H633   H     0.76130   0.21406   0.61327   0.00000  Uiso   1.00
H634   H     0.85724   0.31810   0.88060   0.00000  Uiso   1.00
N635   N     0.83333   0.24999   0.62623   0.00000  Uiso   1.00
N636   N     0.83333   0.25001   0.87376   0.00000  Uiso   1.00
C637   C     0.87275   0.27169   0.60639   0.00000  Uiso   1.00
C638   C     0.81788   0.21234   0.89695   0.00000  Uiso   1.00
C639   C     0.87362   0.27124   0.55660   0.00000  Uiso   1.00
C640   C     0.81847   0.21158   0.94689   0.00000  Uiso   1.00
C641   C     0.83174   0.25133   0.52649   0.00000  Uiso   1.00
C642   C     0.83119   0.25083   0.97312   0.00000  Uiso   1.00
N643   N     0.91777   0.12395   0.71188   0.00000  Uiso   1.00
H644   H     0.91706   0.11641   0.67612   0.00000  Uiso   1.00
H645   H     0.95488   0.11649   0.72999   0.00000  Uiso   1.00
N646   N     0.90795   0.38006   0.81919   0.00000  Uiso   1.00
H647   H     0.90094   0.38896   0.85303   0.00000  Uiso   1.00
H648   H     0.94700   0.38792   0.81581   0.00000  Uiso   1.00
N649   N     0.92210   0.02722   0.71022   0.00000  Uiso   1.00
H650   H     0.95858   0.03715   0.72818   0.00000  Uiso   1.00
H651   H     0.92008   0.03707   0.67466   0.00000  Uiso   1.00
N652   N     0.91119   0.47678   0.81964   0.00000  Uiso   1.00
H653   H     0.94980   0.46732   0.81787   0.00000  Uiso   1.00
H654   H     0.90173   0.46803   0.85311   0.00000  Uiso   1.00
N655   N     0.91142   0.29783   0.63539   0.00000  Uiso   1.00
O656   O     0.96095   0.28972   0.63555   0.00000  Uiso   1.00
O657   O     0.89842   0.33682   0.64938   0.00000  Uiso   1.00
N658   N     0.79752   0.17418   0.87054   0.00000  Uiso   1.00
O659   O     0.75102   0.17583   0.84592   0.00000  Uiso   1.00
O660   O     0.82135   0.13596   0.87676   0.00000  Uiso   1.00
N661   N     0.91700   0.29082   0.53657   0.00000  Uiso   1.00
H662   H     0.95092   0.27305   0.54911   0.00000  Uiso   1.00
H663   H     0.92197   0.32415   0.54724   0.00000  Uiso   1.00
N664   N     0.80633   0.17094   0.97093   0.00000  Uiso   1.00
H665   H     0.83420   0.14696   0.96610   0.00000  Uiso   1.00
H666   H     0.76922   0.15932   0.95598   0.00000  Uiso   1.00
O667   O     0.16667   0.68454   0.78974   0.00000  Uiso   1.00
O668   O     0.16666   0.81546   0.71026   0.00000  Uiso   1.00
O669   O     0.16667   0.68453   0.71026   0.00000  Uiso   1.00
O670   O     0.16666   0.81547   0.78974   0.00000  Uiso   1.00
C671   C     0.16744   0.66405   0.75037   0.00000  Uiso   1.00
C672   C     0.16794   0.83605   0.74985   0.00000  Uiso   1.00
O673   O     0.09058   0.75000   0.78045   0.00000  Uiso   1.00
O674   O     0.24275   0.75000   0.71955   0.00000  Uiso   1.00
O675   O     0.09058   0.74999   0.70097   0.00000  Uiso   1.00
O676   O     0.24275   0.75001   0.79903   0.00000  Uiso   1.00
C677   C     0.06716   0.74848   0.73783   0.00000  Uiso   1.00
C678   C     0.26620   0.74962   0.76233   0.00000  Uiso   1.00
Zn679  Zn    0.16667   0.75001   0.80307   0.00000  Uiso   1.00
Zn680  Zn    0.16667   0.75000   0.69693   0.00000  Uiso   1.00
C681   C     0.01234   0.74401   0.73186   0.00000  Uiso   1.00
C682   C     0.32119   0.75034   0.76909   0.00000  Uiso   1.00
H683   H     0.32555   0.73502   0.69722   0.00000  Uiso   1.00
H684   H     0.00803   0.75770   0.80433   0.00000  Uiso   1.00
C685   C     0.13706   0.54461   0.77053   0.00000  Uiso   1.00
C686   C     0.14385   0.95440   0.71415   0.00000  Uiso   1.00
H687   H     0.10782   0.52460   0.78562   0.00000  Uiso   1.00
H688   H     0.11901   0.97320   0.68715   0.00000  Uiso   1.00
C689   C     0.13479   0.59071   0.77128   0.00000  Uiso   1.00
C690   C     0.14159   0.90821   0.71416   0.00000  Uiso   1.00
H691   H     0.10342   0.60640   0.78645   0.00000  Uiso   1.00
H692   H     0.11488   0.89129   0.68711   0.00000  Uiso   1.00
C693   C     0.17197   0.61634   0.75120   0.00000  Uiso   1.00
C694   C     0.17248   0.88406   0.74975   0.00000  Uiso   1.00
C695   C     0.21258   0.59640   0.73094   0.00000  Uiso   1.00
C696   C     0.20766   0.90580   0.78472   0.00000  Uiso   1.00
C697   C     0.21501   0.54956   0.73045   0.00000  Uiso   1.00
C698   C     0.21004   0.95272   0.78449   0.00000  Uiso   1.00
C699   C     0.17673   0.52437   0.75003   0.00000  Uiso   1.00
C700   C     0.17747   0.97630   0.74936   0.00000  Uiso   1.00
C701   C     0.12411   0.73131   0.54801   0.00000  Uiso   1.00
C702   C     0.17763   0.78948   0.94784   0.00000  Uiso   1.00
H703   H     0.09028   0.71662   0.52656   0.00000  Uiso   1.00
H704   H     0.18629   0.82091   0.96588   0.00000  Uiso   1.00
C705   C     0.12619   0.73017   0.59765   0.00000  Uiso   1.00
C706   C     0.17958   0.78811   0.89876   0.00000  Uiso   1.00
H707   H     0.09463   0.71406   0.61327   0.00000  Uiso   1.00
H708   H     0.19057   0.81810   0.88060   0.00000  Uiso   1.00
N709   N     0.16667   0.74999   0.62623   0.00000  Uiso   1.00
N710   N     0.16667   0.75001   0.87376   0.00000  Uiso   1.00
C711   C     0.20608   0.77169   0.60639   0.00000  Uiso   1.00
C712   C     0.15121   0.71234   0.89695   0.00000  Uiso   1.00
C713   C     0.20695   0.77124   0.55660   0.00000  Uiso   1.00
C714   C     0.15180   0.71158   0.94689   0.00000  Uiso   1.00
C715   C     0.16507   0.75133   0.52649   0.00000  Uiso   1.00
C716   C     0.16452   0.75083   0.97312   0.00000  Uiso   1.00
N717   N     0.25110   0.62395   0.71188   0.00000  Uiso   1.00
H718   H     0.25039   0.61641   0.67612   0.00000  Uiso   1.00
H719   H     0.28821   0.61649   0.72999   0.00000  Uiso   1.00
N720   N     0.24128   0.88006   0.81919   0.00000  Uiso   1.00
H721   H     0.23428   0.88896   0.85303   0.00000  Uiso   1.00
H722   H     0.28034   0.88792   0.81581   0.00000  Uiso   1.00
N723   N     0.25543   0.52722   0.71022   0.00000  Uiso   1.00
H724   H     0.29192   0.53715   0.72818   0.00000  Uiso   1.00
H725   H     0.25341   0.53707   0.67466   0.00000  Uiso   1.00
N726   N     0.24452   0.97678   0.81964   0.00000  Uiso   1.00
H727   H     0.28314   0.96732   0.81787   0.00000  Uiso   1.00
H728   H     0.23506   0.96803   0.85311   0.00000  Uiso   1.00
N729   N     0.24475   0.79783   0.63539   0.00000  Uiso   1.00
O730   O     0.29428   0.78972   0.63555   0.00000  Uiso   1.00
O731   O     0.23175   0.83682   0.64938   0.00000  Uiso   1.00
N732   N     0.13085   0.67418   0.87054   0.00000  Uiso   1.00
O733   O     0.08435   0.67583   0.84592   0.00000  Uiso   1.00
O734   O     0.15468   0.63596   0.87676   0.00000  Uiso   1.00
N735   N     0.25033   0.79082   0.53657   0.00000  Uiso   1.00
H736   H     0.28426   0.77305   0.54911   0.00000  Uiso   1.00
H737   H     0.25530   0.82415   0.54724   0.00000  Uiso   1.00
N738   N     0.13966   0.67094   0.97093   0.00000  Uiso   1.00
H739   H     0.16753   0.64696   0.96610   0.00000  Uiso   1.00
H740   H     0.10256   0.65932   0.95598   0.00000  Uiso   1.00
O741   O     0.50000   0.68454   0.78974   0.00000  Uiso   1.00
O742   O     0.50000   0.81546   0.71026   0.00000  Uiso   1.00
O743   O     0.50000   0.68453   0.71026   0.00000  Uiso   1.00
O744   O     0.50000   0.81547   0.78974   0.00000  Uiso   1.00
C745   C     0.50078   0.66405   0.75037   0.00000  Uiso   1.00
C746   C     0.50128   0.83605   0.74985   0.00000  Uiso   1.00
O747   O     0.42392   0.75000   0.78045   0.00000  Uiso   1.00
O748   O     0.57608   0.75000   0.71955   0.00000  Uiso   1.00
O749   O     0.42392   0.74999   0.70097   0.00000  Uiso   1.00
O750   O     0.57608   0.75001   0.79903   0.00000  Uiso   1.00
C751   C     0.40050   0.74848   0.73783   0.00000  Uiso   1.00
C752   C     0.59954   0.74962   0.76233   0.00000  Uiso   1.00
Zn753  Zn    0.50000   0.75001   0.80307   0.00000  Uiso   1.00
Zn754  Zn    0.50000   0.75000   0.69693   0.00000  Uiso   1.00
C755   C     0.34567   0.74401   0.73186   0.00000  Uiso   1.00
C756   C     0.65452   0.75034   0.76909   0.00000  Uiso   1.00
H757   H     0.65888   0.73502   0.69722   0.00000  Uiso   1.00
H758   H     0.34136   0.75770   0.80433   0.00000  Uiso   1.00
C759   C     0.47040   0.54461   0.77053   0.00000  Uiso   1.00
C760   C     0.47719   0.95440   0.71415   0.00000  Uiso   1.00
H761   H     0.44116   0.52460   0.78562   0.00000  Uiso   1.00
H762   H     0.45234   0.97320   0.68715   0.00000  Uiso   1.00
C763   C     0.46812   0.59071   0.77128   0.00000  Uiso   1.00
C764   C     0.47492   0.90821   0.71416   0.00000  Uiso   1.00
H765   H     0.43675   0.60640   0.78645   0.00000  Uiso   1.00
H766   H     0.44821   0.89129   0.68711   0.00000  Uiso   1.00
C767   C     0.50530   0.61634   0.75120   0.00000  Uiso   1.00
C768   C     0.50581   0.88406   0.74975   0.00000  Uiso   1.00
C769   C     0.54591   0.59640   0.73094   0.00000  Uiso   1.00
C770   C     0.54100   0.90580   0.78472   0.00000  Uiso   1.00
C771   C     0.54834   0.54956   0.73045   0.00000  Uiso   1.00
C772   C     0.54338   0.95272   0.78449   0.00000  Uiso   1.00
C773   C     0.51006   0.52437   0.75003   0.00000  Uiso   1.00
C774   C     0.51080   0.97630   0.74936   0.00000  Uiso   1.00
C775   C     0.45744   0.73131   0.54801   0.00000  Uiso   1.00
C776   C     0.51096   0.78948   0.94784   0.00000  Uiso   1.00
H777   H     0.42361   0.71662   0.52656   0.00000  Uiso   1.00
H778   H     0.51962   0.82091   0.96588   0.00000  Uiso   1.00
C779   C     0.45952   0.73017   0.59765   0.00000  Uiso   1.00
C780   C     0.51292   0.78811   0.89876   0.00000  Uiso   1.00
H781   H     0.42796   0.71406   0.61327   0.00000  Uiso   1.00
H782   H     0.52390   0.81810   0.88060   0.00000  Uiso   1.00
N783   N     0.50000   0.74999   0.62623   0.00000  Uiso   1.00
N784   N     0.50000   0.75001   0.87376   0.00000  Uiso   1.00
C785   C     0.53941   0.77169   0.60639   0.00000  Uiso   1.00
C786   C     0.48455   0.71234   0.89695   0.00000  Uiso   1.00
C787   C     0.54028   0.77124   0.55660   0.00000  Uiso   1.00
C788   C     0.48513   0.71158   0.94689   0.00000  Uiso   1.00
C789   C     0.49841   0.75133   0.52649   0.00000  Uiso   1.00
C790   C     0.49785   0.75083   0.97312   0.00000  Uiso   1.00
N791   N     0.58443   0.62395   0.71188   0.00000  Uiso   1.00
H792   H     0.58372   0.61641   0.67612   0.00000  Uiso   1.00
H793   H     0.62154   0.61649   0.72999   0.00000  Uiso   1.00
N794   N     0.57461   0.88006   0.81919   0.00000  Uiso   1.00
H795   H     0.56761   0.88896   0.85303   0.00000  Uiso   1.00
H796   H     0.61367   0.88792   0.81581   0.00000  Uiso   1.00
N797   N     0.58877   0.52722   0.71022   0.00000  Uiso   1.00
H798   H     0.62525   0.53715   0.72818   0.00000  Uiso   1.00
H799   H     0.58674   0.53707   0.67466   0.00000  Uiso   1.00
N800   N     0.57786   0.97678   0.81964   0.00000  Uiso   1.00
H801   H     0.61647   0.96732   0.81787   0.00000  Uiso   1.00
H802   H     0.56839   0.96803   0.85311   0.00000  Uiso   1.00
N803   N     0.57808   0.79783   0.63539   0.00000  Uiso   1.00
O804   O     0.62761   0.78972   0.63555   0.00000  Uiso   1.00
O805   O     0.56509   0.83682   0.64938   0.00000  Uiso   1.00
N806   N     0.46418   0.67418   0.87054   0.00000  Uiso   1.00
O807   O     0.41768   0.67583   0.84592   0.00000  Uiso   1.00
O808   O     0.48802   0.63596   0.87676   0.00000  Uiso   1.00
N809   N     0.58366   0.79082   0.53657   0.00000  Uiso   1.00
H810   H     0.61759   0.77305   0.54911   0.00000  Uiso   1.00
H811   H     0.58864   0.82415   0.54724   0.00000  Uiso   1.00
N812   N     0.47300   0.67094   0.97093   0.00000  Uiso   1.00
H813   H     0.50086   0.64696   0.96610   0.00000  Uiso   1.00
H814   H     0.43589   0.65932   0.95598   0.00000  Uiso   1.00
O815   O     0.83334   0.68454   0.78974   0.00000  Uiso   1.00
O816   O     0.83333   0.81546   0.71026   0.00000  Uiso   1.00
O817   O     0.83334   0.68453   0.71026   0.00000  Uiso   1.00
O818   O     0.83333   0.81547   0.78974   0.00000  Uiso   1.00
C819   C     0.83411   0.66405   0.75037   0.00000  Uiso   1.00
C820   C     0.83461   0.83605   0.74985   0.00000  Uiso   1.00
O821   O     0.75725   0.75000   0.78045   0.00000  Uiso   1.00
O822   O     0.90942   0.75000   0.71955   0.00000  Uiso   1.00
O823   O     0.75725   0.74999   0.70097   0.00000  Uiso   1.00
O824   O     0.90942   0.75001   0.79903   0.00000  Uiso   1.00
C825   C     0.73383   0.74848   0.73783   0.00000  Uiso   1.00
C826   C     0.93287   0.74962   0.76233   0.00000  Uiso   1.00
Zn827  Zn    0.83333   0.75001   0.80307   0.00000  Uiso   1.00
Zn828  Zn    0.83333   0.75000   0.69693   0.00000  Uiso   1.00
C829   C     0.67900   0.74401   0.73186   0.00000  Uiso   1.00
C830   C     0.98786   0.75034   0.76909   0.00000  Uiso   1.00
H831   H     0.99221   0.73502   0.69722   0.00000  Uiso   1.00
H832   H     0.67470   0.75770   0.80433   0.00000  Uiso   1.00
C833   C     0.80373   0.54461   0.77053   0.00000  Uiso   1.00
C834   C     0.81052   0.95440   0.71415   0.00000  Uiso   1.00
H835   H     0.77449   0.52460   0.78562   0.00000  Uiso   1.00
H836   H     0.78568   0.97320   0.68715   0.00000  Uiso   1.00
C837   C     0.80146   0.59071   0.77128   0.00000  Uiso   1.00
C838   C     0.80826   0.90821   0.71416   0.00000  Uiso   1.00
H839   H     0.77008   0.60640   0.78645   0.00000  Uiso   1.00
H840   H     0.78155   0.89129   0.68711   0.00000  Uiso   1.00
C841   C     0.83863   0.61634   0.75120   0.00000  Uiso   1.00
C842   C     0.83915   0.88406   0.74975   0.00000  Uiso   1.00
C843   C     0.87924   0.59640   0.73094   0.00000  Uiso   1.00
C844   C     0.87433   0.90580   0.78472   0.00000  Uiso   1.00
C845   C     0.88168   0.54956   0.73045   0.00000  Uiso   1.00
C846   C     0.87671   0.95272   0.78449   0.00000  Uiso   1.00
C847   C     0.84340   0.52437   0.75003   0.00000  Uiso   1.00
C848   C     0.84413   0.97630   0.74936   0.00000  Uiso   1.00
C849   C     0.79078   0.73131   0.54801   0.00000  Uiso   1.00
C850   C     0.84429   0.78948   0.94784   0.00000  Uiso   1.00
H851   H     0.75695   0.71662   0.52656   0.00000  Uiso   1.00
H852   H     0.85296   0.82091   0.96588   0.00000  Uiso   1.00
C853   C     0.79285   0.73017   0.59765   0.00000  Uiso   1.00
C854   C     0.84625   0.78811   0.89876   0.00000  Uiso   1.00
H855   H     0.76130   0.71406   0.61327   0.00000  Uiso   1.00
H856   H     0.85724   0.81810   0.88060   0.00000  Uiso   1.00
N857   N     0.83333   0.74999   0.62623   0.00000  Uiso   1.00
N858   N     0.83333   0.75001   0.87376   0.00000  Uiso   1.00
C859   C     0.87275   0.77169   0.60639   0.00000  Uiso   1.00
C860   C     0.81788   0.71234   0.89695   0.00000  Uiso   1.00
C861   C     0.87362   0.77124   0.55660   0.00000  Uiso   1.00
C862   C     0.81847   0.71158   0.94689   0.00000  Uiso   1.00
C863   C     0.83174   0.75133   0.52649   0.00000  Uiso   1.00
C864   C     0.83119   0.75083   0.97312   0.00000  Uiso   1.00
N865   N     0.91777   0.62395   0.71188   0.00000  Uiso   1.00
H866   H     0.91706   0.61641   0.67612   0.00000  Uiso   1.00
H867   H     0.95488   0.61649   0.72999   0.00000  Uiso   1.00
N868   N     0.90795   0.88006   0.81919   0.00000  Uiso   1.00
H869   H     0.90094   0.88896   0.85303   0.00000  Uiso   1.00
H870   H     0.94700   0.88792   0.81581   0.00000  Uiso   1.00
N871   N     0.92210   0.52722   0.71022   0.00000  Uiso   1.00
H872   H     0.95858   0.53715   0.72818   0.00000  Uiso   1.00
H873   H     0.92008   0.53707   0.67466   0.00000  Uiso   1.00
N874   N     0.91119   0.97678   0.81964   0.00000  Uiso   1.00
H875   H     0.94980   0.96732   0.81787   0.00000  Uiso   1.00
H876   H     0.90173   0.96803   0.85311   0.00000  Uiso   1.00
N877   N     0.91142   0.79783   0.63539   0.00000  Uiso   1.00
O878   O     0.96095   0.78972   0.63555   0.00000  Uiso   1.00
O879   O     0.89842   0.83682   0.64938   0.00000  Uiso   1.00
N880   N     0.79752   0.67418   0.87054   0.00000  Uiso   1.00
O881   O     0.75102   0.67583   0.84592   0.00000  Uiso   1.00
O882   O     0.82135   0.63596   0.87676   0.00000  Uiso   1.00
N883   N     0.91700   0.79082   0.53657   0.00000  Uiso   1.00
H884   H     0.95092   0.77305   0.54911   0.00000  Uiso   1.00
H885   H     0.92197   0.82415   0.54724   0.00000  Uiso   1.00
N886   N     0.80633   0.67094   0.97093   0.00000  Uiso   1.00
H887   H     0.83420   0.64696   0.96610   0.00000  Uiso   1.00
H888   H     0.76922   0.65932   0.95598   0.00000  Uiso   1.00
loop_
_geom_bond_atom_site_label_1
_geom_bond_atom_site_label_2
_geom_bond_distance
_geom_bond_site_symmetry_2
_ccdc_geom_bond_type
O1     C5      1.289   .     A
O1     Zn13    1.996   .     S
O2     C6      1.290   .     A
O2     Zn14    1.996   .     S
O3     C5      1.285   .     A
O3     Zn14    1.984   .     S
O4     C6      1.288   .     A
O4     Zn13    1.984   .     S
C5     C27     1.430   .     S
C6     C28     1.435   .     S
O7     C11     1.280   .     A
O7     Zn13    1.973   .     S
O8     C12     1.283   .     A
O8     Zn14    1.973   .     S
O9     Zn14    1.976   .     S
O9     C11     1.282   .     A
O10    C12     1.279   .     A
O10    Zn13    1.976   .     S
C11    C15     1.401   .     S
C12    C16     1.400   .     S
Zn13   N44     2.015   .     S
Zn14   N43     2.015   .     S
C15    C164    1.325   1_455 S
C15    H165    1.085   1_455 S
C16    C89     1.325   .     S
C16    H92     1.088   .     S
H17    C89     1.085   .     S
H18    C164    1.088   1_455 S
C19    H21     1.084   .     S
C19    C33     1.395   .     A
C19    C23     1.378   .     A
C20    H22     1.084   .     S
C20    C34     1.394   .     A
C20    C24     1.379   .     A
C23    C27     1.394   .     A
C23    H25     1.083   .     S
C24    C28     1.396   .     A
C24    H26     1.084   .     S
C27    C29     1.407   .     A
C28    C30     1.408   .     A
C29    N51     1.436   .     S
C29    C31     1.400   .     A
C30    N54     1.436   .     S
C30    C32     1.400   .     A
C31    N57     1.435   .     S
C31    C33     1.401   .     A
C32    N60     1.436   .     S
C32    C34     1.400   .     A
C33    C256    1.435   1_545 S
C34    C255    1.435   .     S
C35    C49     1.411   .     A
C35    C39     1.408   .     A
C35    H37     1.082   .     S
C36    C50     1.411   .     A
C36    H38     1.082   .     S
C36    C40     1.408   .     A
C39    H41     1.082   .     S
C39    N43     1.363   .     A
C40    N44     1.363   .     A
C40    H42     1.080   .     S
N43    C45     1.376   .     A
N44    C46     1.376   .     A
C45    C47     1.423   .     A
C45    N63     1.431   .     S
C46    N66     1.427   .     S
C46    C48     1.421   .     A
C47    C49     1.410   .     A
C47    N69     1.435   .     S
C48    C50     1.409   .     A
C48    N72     1.435   .     S
C49    C494    1.520   1_554 S
C50    C493    1.520   .     S
N51    H52     1.045   .     S
N51    H53     1.045   .     S
N54    H55     1.045   .     S
N54    H56     1.045   .     S
N57    H58     1.045   .     S
N57    H59     1.045   .     S
N60    H61     1.045   .     S
N60    H62     1.045   .     S
N63    O65     1.300   .     A
N63    O64     1.300   .     A
N66    O68     1.301   .     A
N66    O67     1.301   .     A
N69    H71     1.045   .     S
N69    H70     1.045   .     S
N72    H74     1.046   .     S
N72    H73     1.045   .     S
O75    C79     1.289   .     A
O75    Zn87    1.996   .     S
O76    C80     1.290   .     A
O76    Zn88    1.996   .     S
O77    C79     1.285   .     A
O77    Zn88    1.984   .     S
O78    C80     1.288   .     A
O78    Zn87    1.984   .     S
C79    C101    1.430   .     S
C80    C102    1.435   .     S
O81    C85     1.280   .     A
O81    Zn87    1.973   .     S
O82    C86     1.283   .     A
O82    Zn88    1.973   .     S
O83    Zn88    1.976   .     S
O83    C85     1.282   .     A
O84    C86     1.279   .     A
O84    Zn87    1.976   .     S
C85    C89     1.401   .     S
C86    C90     1.400   .     S
Zn87   N118    2.015   .     S
Zn88   N117    2.015   .     S
C90    C163    1.325   .     S
C90    H166    1.088   .     S
H91    C163    1.085   .     S
C93    H95     1.084   .     S
C93    C107    1.395   .     A
C93    C97     1.378   .     A
C94    H96     1.084   .     S
C94    C108    1.394   .     A
C94    C98     1.379   .     A
C97    C101    1.394   .     A
C97    H99     1.083   .     S
C98    C102    1.396   .     A
C98    H100    1.084   .     S
C101   C103    1.407   .     A
C102   C104    1.408   .     A
C103   N125    1.436   .     S
C103   C105    1.400   .     A
C104   N128    1.436   .     S
C104   C106    1.400   .     A
C105   N131    1.435   .     S
C105   C107    1.401   .     A
C106   N134    1.436   .     S
C106   C108    1.400   .     A
C107   C330    1.435   1_545 S
C108   C329    1.435   .     S
C109   C123    1.411   .     A
C109   C113    1.408   .     A
C109   H111    1.082   .     S
C110   C124    1.411   .     A
C110   H112    1.082   .     S
C110   C114    1.408   .     A
C113   H115    1.082   .     S
C113   N117    1.363   .     A
C114   N118    1.363   .     A
C114   H116    1.080   .     S
N117   C119    1.376   .     A
N118   C120    1.376   .     A
C119   C121    1.423   .     A
C119   N137    1.431   .     S
C120   N140    1.427   .     S
C120   C122    1.421   .     A
C121   C123    1.410   .     A
C121   N143    1.435   .     S
C122   C124    1.409   .     A
C122   N146    1.435   .     S
C123   C568    1.520   1_554 S
C124   C567    1.520   .     S
N125   H126    1.045   .     S
N125   H127    1.045   .     S
N128   H129    1.045   .     S
N128   H130    1.045   .     S
N131   H132    1.045   .     S
N131   H133    1.045   .     S
N134   H135    1.045   .     S
N134   H136    1.045   .     S
N137   O139    1.300   .     A
N137   O138    1.300   .     A
N140   O142    1.301   .     A
N140   O141    1.301   .     A
N143   H145    1.045   .     S
N143   H144    1.045   .     S
N146   H148    1.046   .     S
N146   H147    1.045   .     S
O149   C153    1.289   .     A
O149   Zn161   1.996   .     S
O150   C154    1.290   .     A
O150   Zn162   1.996   .     S
O151   C153    1.285   .     A
O151   Zn162   1.984   .     S
O152   C154    1.288   .     A
O152   Zn161   1.984   .     S
C153   C175    1.430   .     S
C154   C176    1.435   .     S
O155   C159    1.280   .     A
O155   Zn161   1.973   .     S
O156   C160    1.283   .     A
O156   Zn162   1.973   .     S
O157   Zn162   1.976   .     S
O157   C159    1.282   .     A
O158   C160    1.279   .     A
O158   Zn161   1.976   .     S
C159   C163    1.401   .     S
C160   C164    1.400   .     S
Zn161  N192    2.015   .     S
Zn162  N191    2.015   .     S
C164   C15     1.325   1_655 S
C164   H18     1.088   1_655 S
H165   C15     1.085   1_655 S
C167   H169    1.084   .     S
C167   C181    1.395   .     A
C167   C171    1.378   .     A
C168   H170    1.084   .     S
C168   C182    1.394   .     A
C168   C172    1.379   .     A
C171   C175    1.394   .     A
C171   H173    1.083   .     S
C172   C176    1.396   .     A
C172   H174    1.084   .     S
C175   C177    1.407   .     A
C176   C178    1.408   .     A
C177   N199    1.436   .     S
C177   C179    1.400   .     A
C178   N202    1.436   .     S
C178   C180    1.400   .     A
C179   N205    1.435   .     S
C179   C181    1.401   .     A
C180   N208    1.436   .     S
C180   C182    1.400   .     A
C181   C404    1.435   1_545 S
C182   C403    1.435   .     S
C183   C197    1.411   .     A
C183   C187    1.408   .     A
C183   H185    1.082   .     S
C184   C198    1.411   .     A
C184   H186    1.082   .     S
C184   C188    1.408   .     A
C187   H189    1.082   .     S
C187   N191    1.363   .     A
C188   N192    1.363   .     A
C188   H190    1.080   .     S
N191   C193    1.376   .     A
N192   C194    1.376   .     A
C193   C195    1.423   .     A
C193   N211    1.431   .     S
C194   N214    1.427   .     S
C194   C196    1.421   .     A
C195   C197    1.410   .     A
C195   N217    1.435   .     S
C196   C198    1.409   .     A
C196   N220    1.435   .     S
C197   C642    1.520   1_554 S
C198   C641    1.520   .     S
N199   H200    1.045   .     S
N199   H201    1.045   .     S
N202   H203    1.045   .     S
N202   H204    1.045   .     S
N205   H206    1.045   .     S
N205   H207    1.045   .     S
N208   H209    1.045   .     S
N208   H210    1.045   .     S
N211   O213    1.300   .     A
N211   O212    1.300   .     A
N214   O216    1.301   .     A
N214   O215    1.301   .     A
N217   H219    1.045   .     S
N217   H218    1.045   .     S
N220   H222    1.046   .     S
N220   H221    1.045   .     S
O223   C227    1.289   .     A
O223   Zn235   1.996   .     S
O224   C228    1.290   .     A
O224   Zn236   1.996   .     S
O225   C227    1.285   .     A
O225   Zn236   1.984   .     S
O226   C228    1.288   .     A
O226   Zn235   1.984   .     S
C227   C249    1.430   .     S
C228   C250    1.435   .     S
O229   C233    1.280   .     A
O229   Zn235   1.973   .     S
O230   C234    1.283   .     A
O230   Zn236   1.973   .     S
O231   Zn236   1.976   .     S
O231   C233    1.282   .     A
O232   C234    1.279   .     A
O232   Zn235   1.976   .     S
C233   C237    1.401   .     S
C234   C238    1.400   .     S
Zn235  N266    2.015   .     S
Zn236  N265    2.015   .     S
C237   C386    1.325   1_455 S
C237   H387    1.085   1_455 S
C238   C311    1.325   .     S
C238   H314    1.088   .     S
H239   C311    1.085   .     S
H240   C386    1.088   1_455 S
C241   H243    1.084   .     S
C241   C255    1.395   .     A
C241   C245    1.378   .     A
C242   H244    1.084   .     S
C242   C256    1.394   .     A
C242   C246    1.379   .     A
C245   C249    1.394   .     A
C245   H247    1.083   .     S
C246   C250    1.396   .     A
C246   H248    1.084   .     S
C249   C251    1.407   .     A
C250   C252    1.408   .     A
C251   N273    1.436   .     S
C251   C253    1.400   .     A
C252   N276    1.436   .     S
C252   C254    1.400   .     A
C253   N279    1.435   .     S
C253   C255    1.401   .     A
C254   N282    1.436   .     S
C254   C256    1.400   .     A
C256   C33     1.435   1_565 S
C257   C271    1.411   .     A
C257   C261    1.408   .     A
C257   H259    1.082   .     S
C258   C272    1.411   .     A
C258   H260    1.082   .     S
C258   C262    1.408   .     A
C261   H263    1.082   .     S
C261   N265    1.363   .     A
C262   N266    1.363   .     A
C262   H264    1.080   .     S
N265   C267    1.376   .     A
N266   C268    1.376   .     A
C267   C269    1.423   .     A
C267   N285    1.431   .     S
C268   N288    1.427   .     S
C268   C270    1.421   .     A
C269   C271    1.410   .     A
C269   N291    1.435   .     S
C270   C272    1.409   .     A
C270   N294    1.435   .     S
C271   C716    1.520   1_554 S
C272   C715    1.520   .     S
N273   H274    1.045   .     S
N273   H275    1.045   .     S
N276   H277    1.045   .     S
N276   H278    1.045   .     S
N279   H280    1.045   .     S
N279   H281    1.045   .     S
N282   H283    1.045   .     S
N282   H284    1.045   .     S
N285   O287    1.300   .     A
N285   O286    1.300   .     A
N288   O290    1.301   .     A
N288   O289    1.301   .     A
N291   H293    1.045   .     S
N291   H292    1.045   .     S
N294   H296    1.046   .     S
N294   H295    1.045   .     S
O297   C301    1.289   .     A
O297   Zn309   1.996   .     S
O298   C302    1.290   .     A
O298   Zn310   1.996   .     S
O299   C301    1.285   .     A
O299   Zn310   1.984   .     S
O300   C302    1.288   .     A
O300   Zn309   1.984   .     S
C301   C323    1.430   .     S
C302   C324    1.435   .     S
O303   C307    1.280   .     A
O303   Zn309   1.973   .     S
O304   C308    1.283   .     A
O304   Zn310   1.973   .     S
O305   Zn310   1.976   .     S
O305   C307    1.282   .     A
O306   C308    1.279   .     A
O306   Zn309   1.976   .     S
C307   C311    1.401   .     S
C308   C312    1.400   .     S
Zn309  N340    2.015   .     S
Zn310  N339    2.015   .     S
C312   C385    1.325   .     S
C312   H388    1.088   .     S
H313   C385    1.085   .     S
C315   H317    1.084   .     S
C315   C329    1.395   .     A
C315   C319    1.378   .     A
C316   H318    1.084   .     S
C316   C330    1.394   .     A
C316   C320    1.379   .     A
C319   C323    1.394   .     A
C319   H321    1.083   .     S
C320   C324    1.396   .     A
C320   H322    1.084   .     S
C323   C325    1.407   .     A
C324   C326    1.408   .     A
C325   N347    1.436   .     S
C325   C327    1.400   .     A
C326   N350    1.436   .     S
C326   C328    1.400   .     A
C327   N353    1.435   .     S
C327   C329    1.401   .     A
C328   N356    1.436   .     S
C328   C330    1.400   .     A
C330   C107    1.435   1_565 S
C331   C345    1.411   .     A
C331   C335    1.408   .     A
C331   H333    1.082   .     S
C332   C346    1.411   .     A
C332   H334    1.082   .     S
C332   C336    1.408   .     A
C335   H337    1.082   .     S
C335   N339    1.363   .     A
C336   N340    1.363   .     A
C336   H338    1.080   .     S
N339   C341    1.376   .     A
N340   C342    1.376   .     A
C341   C343    1.423   .     A
C341   N359    1.431   .     S
C342   N362    1.427   .     S
C342   C344    1.421   .     A
C343   C345    1.410   .     A
C343   N365    1.435   .     S
C344   C346    1.409   .     A
C344   N368    1.435   .     S
C345   C790    1.520   1_554 S
C346   C789    1.520   .     S
N347   H348    1.045   .     S
N347   H349    1.045   .     S
N350   H351    1.045   .     S
N350   H352    1.045   .     S
N353   H354    1.045   .     S
N353   H355    1.045   .     S
N356   H357    1.045   .     S
N356   H358    1.045   .     S
N359   O361    1.300   .     A
N359   O360    1.300   .     A
N362   O364    1.301   .     A
N362   O363    1.301   .     A
N365   H367    1.045   .     S
N365   H366    1.045   .     S
N368   H370    1.046   .     S
N368   H369    1.045   .     S
O371   C375    1.289   .     A
O371   Zn383   1.996   .     S
O372   C376    1.290   .     A
O372   Zn384   1.996   .     S
O373   C375    1.285   .     A
O373   Zn384   1.984   .     S
O374   C376    1.288   .     A
O374   Zn383   1.984   .     S
C375   C397    1.430   .     S
C376   C398    1.435   .     S
O377   C381    1.280   .     A
O377   Zn383   1.973   .     S
O378   C382    1.283   .     A
O378   Zn384   1.973   .     S
O379   Zn384   1.976   .     S
O379   C381    1.282   .     A
O380   C382    1.279   .     A
O380   Zn383   1.976   .     S
C381   C385    1.401   .     S
C382   C386    1.400   .     S
Zn383  N414    2.015   .     S
Zn384  N413    2.015   .     S
C386   C237    1.325   1_655 S
C386   H240    1.088   1_655 S
H387   C237    1.085   1_655 S
C389   H391    1.084   .     S
C389   C403    1.395   .     A
C389   C393    1.378   .     A
C390   H392    1.084   .     S
C390   C404    1.394   .     A
C390   C394    1.379   .     A
C393   C397    1.394   .     A
C393   H395    1.083   .     S
C394   C398    1.396   .     A
C394   H396    1.084   .     S
C397   C399    1.407   .     A
C398   C400    1.408   .     A
C399   N421    1.436   .     S
C399   C401    1.400   .     A
C400   N424    1.436   .     S
C400   C402    1.400   .     A
C401   N427    1.435   .     S
C401   C403    1.401   .     A
C402   N430    1.436   .     S
C402   C404    1.400   .     A
C404   C181    1.435   1_565 S
C405   C419    1.411   .     A
C405   C409    1.408   .     A
C405   H407    1.082   .     S
C406   C420    1.411   .     A
C406   H408    1.082   .     S
C406   C410    1.408   .     A
C409   H411    1.082   .     S
C409   N413    1.363   .     A
C410   N414    1.363   .     A
C410   H412    1.080   .     S
N413   C415    1.376   .     A
N414   C416    1.376   .     A
C415   C417    1.423   .     A
C415   N433    1.431   .     S
C416   N436    1.427   .     S
C416   C418    1.421   .     A
C417   C419    1.410   .     A
C417   N439    1.435   .     S
C418   C420    1.409   .     A
C418   N442    1.435   .     S
C419   C864    1.520   1_554 S
C420   C863    1.520   .     S
N421   H422    1.045   .     S
N421   H423    1.045   .     S
N424   H425    1.045   .     S
N424   H426    1.045   .     S
N427   H428    1.045   .     S
N427   H429    1.045   .     S
N430   H431    1.045   .     S
N430   H432    1.045   .     S
N433   O435    1.300   .     A
N433   O434    1.300   .     A
N436   O438    1.301   .     A
N436   O437    1.301   .     A
N439   H441    1.045   .     S
N439   H440    1.045   .     S
N442   H444    1.046   .     S
N442   H443    1.045   .     S
O445   C449    1.289   .     A
O445   Zn457   1.996   .     S
O446   C450    1.290   .     A
O446   Zn458   1.996   .     S
O447   C449    1.285   .     A
O447   Zn458   1.984   .     S
O448   C450    1.288   .     A
O448   Zn457   1.984   .     S
C449   C471    1.430   .     S
C450   C472    1.435   .     S
O451   C455    1.280   .     A
O451   Zn457   1.973   .     S
O452   C456    1.283   .     A
O452   Zn458   1.973   .     S
O453   Zn458   1.976   .     S
O453   C455    1.282   .     A
O454   C456    1.279   .     A
O454   Zn457   1.976   .     S
C455   C459    1.401   .     S
C456   C460    1.400   .     S
Zn457  N488    2.015   .     S
Zn458  N487    2.015   .     S
C459   C608    1.325   1_455 S
C459   H609    1.085   1_455 S
C460   C533    1.325   .     S
C460   H536    1.088   .     S
H461   C533    1.085   .     S
H462   C608    1.088   1_455 S
C463   H465    1.084   .     S
C463   C477    1.395   .     A
C463   C467    1.378   .     A
C464   H466    1.084   .     S
C464   C478    1.394   .     A
C464   C468    1.379   .     A
C467   C471    1.394   .     A
C467   H469    1.083   .     S
C468   C472    1.396   .     A
C468   H470    1.084   .     S
C471   C473    1.407   .     A
C472   C474    1.408   .     A
C473   N495    1.436   .     S
C473   C475    1.400   .     A
C474   N498    1.436   .     S
C474   C476    1.400   .     A
C475   N501    1.435   .     S
C475   C477    1.401   .     A
C476   N504    1.436   .     S
C476   C478    1.400   .     A
C477   C700    1.435   1_545 S
C478   C699    1.435   .     S
C479   C493    1.411   .     A
C479   C483    1.408   .     A
C479   H481    1.082   .     S
C480   C494    1.411   .     A
C480   H482    1.082   .     S
C480   C484    1.408   .     A
C483   H485    1.082   .     S
C483   N487    1.363   .     A
C484   N488    1.363   .     A
C484   H486    1.080   .     S
N487   C489    1.376   .     A
N488   C490    1.376   .     A
C489   C491    1.423   .     A
C489   N507    1.431   .     S
C490   N510    1.427   .     S
C490   C492    1.421   .     A
C491   C493    1.410   .     A
C491   N513    1.435   .     S
C492   C494    1.409   .     A
C492   N516    1.435   .     S
C494   C49     1.520   1_556 S
N495   H496    1.045   .     S
N495   H497    1.045   .     S
N498   H499    1.045   .     S
N498   H500    1.045   .     S
N501   H502    1.045   .     S
N501   H503    1.045   .     S
N504   H505    1.045   .     S
N504   H506    1.045   .     S
N507   O509    1.300   .     A
N507   O508    1.300   .     A
N510   O512    1.301   .     A
N510   O511    1.301   .     A
N513   H515    1.045   .     S
N513   H514    1.045   .     S
N516   H518    1.046   .     S
N516   H517    1.045   .     S
O519   C523    1.289   .     A
O519   Zn531   1.996   .     S
O520   C524    1.290   .     A
O520   Zn532   1.996   .     S
O521   C523    1.285   .     A
O521   Zn532   1.984   .     S
O522   C524    1.288   .     A
O522   Zn531   1.984   .     S
C523   C545    1.430   .     S
C524   C546    1.435   .     S
O525   C529    1.280   .     A
O525   Zn531   1.973   .     S
O526   C530    1.283   .     A
O526   Zn532   1.973   .     S
O527   Zn532   1.976   .     S
O527   C529    1.282   .     A
O528   C530    1.279   .     A
O528   Zn531   1.976   .     S
C529   C533    1.401   .     S
C530   C534    1.400   .     S
Zn531  N562    2.015   .     S
Zn532  N561    2.015   .     S
C534   C607    1.325   .     S
C534   H610    1.088   .     S
H535   C607    1.085   .     S
C537   H539    1.084   .     S
C537   C551    1.395   .     A
C537   C541    1.378   .     A
C538   H540    1.084   .     S
C538   C552    1.394   .     A
C538   C542    1.379   .     A
C541   C545    1.394   .     A
C541   H543    1.083   .     S
C542   C546    1.396   .     A
C542   H544    1.084   .     S
C545   C547    1.407   .     A
C546   C548    1.408   .     A
C547   N569    1.436   .     S
C547   C549    1.400   .     A
C548   N572    1.436   .     S
C548   C550    1.400   .     A
C549   N575    1.435   .     S
C549   C551    1.401   .     A
C550   N578    1.436   .     S
C550   C552    1.400   .     A
C551   C774    1.435   1_545 S
C552   C773    1.435   .     S
C553   C567    1.411   .     A
C553   C557    1.408   .     A
C553   H555    1.082   .     S
C554   C568    1.411   .     A
C554   H556    1.082   .     S
C554   C558    1.408   .     A
C557   H559    1.082   .     S
C557   N561    1.363   .     A
C558   N562    1.363   .     A
C558   H560    1.080   .     S
N561   C563    1.376   .     A
N562   C564    1.376   .     A
C563   C565    1.423   .     A
C563   N581    1.431   .     S
C564   N584    1.427   .     S
C564   C566    1.421   .     A
C565   C567    1.410   .     A
C565   N587    1.435   .     S
C566   C568    1.409   .     A
C566   N590    1.435   .     S
C568   C123    1.520   1_556 S
N569   H570    1.045   .     S
N569   H571    1.045   .     S
N572   H573    1.045   .     S
N572   H574    1.045   .     S
N575   H576    1.045   .     S
N575   H577    1.045   .     S
N578   H579    1.045   .     S
N578   H580    1.045   .     S
N581   O583    1.300   .     A
N581   O582    1.300   .     A
N584   O586    1.301   .     A
N584   O585    1.301   .     A
N587   H589    1.045   .     S
N587   H588    1.045   .     S
N590   H592    1.046   .     S
N590   H591    1.045   .     S
O593   C597    1.289   .     A
O593   Zn605   1.996   .     S
O594   C598    1.290   .     A
O594   Zn606   1.996   .     S
O595   C597    1.285   .     A
O595   Zn606   1.984   .     S
O596   C598    1.288   .     A
O596   Zn605   1.984   .     S
C597   C619    1.430   .     S
C598   C620    1.435   .     S
O599   C603    1.280   .     A
O599   Zn605   1.973   .     S
O600   C604    1.283   .     A
O600   Zn606   1.973   .     S
O601   Zn606   1.976   .     S
O601   C603    1.282   .     A
O602   C604    1.279   .     A
O602   Zn605   1.976   .     S
C603   C607    1.401   .     S
C604   C608    1.400   .     S
Zn605  N636    2.015   .     S
Zn606  N635    2.015   .     S
C608   C459    1.325   1_655 S
C608   H462    1.088   1_655 S
H609   C459    1.085   1_655 S
C611   H613    1.084   .     S
C611   C625    1.395   .     A
C611   C615    1.378   .     A
C612   H614    1.084   .     S
C612   C626    1.394   .     A
C612   C616    1.379   .     A
C615   C619    1.394   .     A
C615   H617    1.083   .     S
C616   C620    1.396   .     A
C616   H618    1.084   .     S
C619   C621    1.407   .     A
C620   C622    1.408   .     A
C621   N643    1.436   .     S
C621   C623    1.400   .     A
C622   N646    1.436   .     S
C622   C624    1.400   .     A
C623   N649    1.435   .     S
C623   C625    1.401   .     A
C624   N652    1.436   .     S
C624   C626    1.400   .     A
C625   C848    1.435   1_545 S
C626   C847    1.435   .     S
C627   C641    1.411   .     A
C627   C631    1.408   .     A
C627   H629    1.082   .     S
C628   C642    1.411   .     A
C628   H630    1.082   .     S
C628   C632    1.408   .     A
C631   H633    1.082   .     S
C631   N635    1.363   .     A
C632   N636    1.363   .     A
C632   H634    1.080   .     S
N635   C637    1.376   .     A
N636   C638    1.376   .     A
C637   C639    1.423   .     A
C637   N655    1.431   .     S
C638   N658    1.427   .     S
C638   C640    1.421   .     A
C639   C641    1.410   .     A
C639   N661    1.435   .     S
C640   C642    1.409   .     A
C640   N664    1.435   .     S
C642   C197    1.520   1_556 S
N643   H644    1.045   .     S
N643   H645    1.045   .     S
N646   H647    1.045   .     S
N646   H648    1.045   .     S
N649   H650    1.045   .     S
N649   H651    1.045   .     S
N652   H653    1.045   .     S
N652   H654    1.045   .     S
N655   O657    1.300   .     A
N655   O656    1.300   .     A
N658   O660    1.301   .     A
N658   O659    1.301   .     A
N661   H663    1.045   .     S
N661   H662    1.045   .     S
N664   H666    1.046   .     S
N664   H665    1.045   .     S
O667   C671    1.289   .     A
O667   Zn679   1.996   .     S
O668   C672    1.290   .     A
O668   Zn680   1.996   .     S
O669   C671    1.285   .     A
O669   Zn680   1.984   .     S
O670   C672    1.288   .     A
O670   Zn679   1.984   .     S
C671   C693    1.430   .     S
C672   C694    1.435   .     S
O673   C677    1.280   .     A
O673   Zn679   1.973   .     S
O674   C678    1.283   .     A
O674   Zn680   1.973   .     S
O675   Zn680   1.976   .     S
O675   C677    1.282   .     A
O676   C678    1.279   .     A
O676   Zn679   1.976   .     S
C677   C681    1.401   .     S
C678   C682    1.400   .     S
Zn679  N710    2.015   .     S
Zn680  N709    2.015   .     S
C681   C830    1.325   1_455 S
C681   H831    1.085   1_455 S
C682   C755    1.325   .     S
C682   H758    1.088   .     S
H683   C755    1.085   .     S
H684   C830    1.088   1_455 S
C685   H687    1.084   .     S
C685   C699    1.395   .     A
C685   C689    1.378   .     A
C686   H688    1.084   .     S
C686   C700    1.394   .     A
C686   C690    1.379   .     A
C689   C693    1.394   .     A
C689   H691    1.083   .     S
C690   C694    1.396   .     A
C690   H692    1.084   .     S
C693   C695    1.407   .     A
C694   C696    1.408   .     A
C695   N717    1.436   .     S
C695   C697    1.400   .     A
C696   N720    1.436   .     S
C696   C698    1.400   .     A
C697   N723    1.435   .     S
C697   C699    1.401   .     A
C698   N726    1.436   .     S
C698   C700    1.400   .     A
C700   C477    1.435   1_565 S
C701   C715    1.411   .     A
C701   C705    1.408   .     A
C701   H703    1.082   .     S
C702   C716    1.411   .     A
C702   H704    1.082   .     S
C702   C706    1.408   .     A
C705   H707    1.082   .     S
C705   N709    1.363   .     A
C706   N710    1.363   .     A
C706   H708    1.080   .     S
N709   C711    1.376   .     A
N710   C712    1.376   .     A
C711   C713    1.423   .     A
C711   N729    1.431   .     S
C712   N732    1.427   .     S
C712   C714    1.421   .     A
C713   C715    1.410   .     A
C713   N735    1.435   .     S
C714   C716    1.409   .     A
C714   N738    1.435   .     S
C716   C271    1.520   1_556 S
N717   H718    1.045   .     S
N717   H719    1.045   .     S
N720   H721    1.045   .     S
N720   H722    1.045   .     S
N723   H724    1.045   .     S
N723   H725    1.045   .     S
N726   H727    1.045   .     S
N726   H728    1.045   .     S
N729   O731    1.300   .     A
N729   O730    1.300   .     A
N732   O734    1.301   .     A
N732   O733    1.301   .     A
N735   H737    1.045   .     S
N735   H736    1.045   .     S
N738   H740    1.046   .     S
N738   H739    1.045   .     S
O741   C745    1.289   .     A
O741   Zn753   1.996   .     S
O742   C746    1.290   .     A
O742   Zn754   1.996   .     S
O743   C745    1.285   .     A
O743   Zn754   1.984   .     S
O744   C746    1.288   .     A
O744   Zn753   1.984   .     S
C745   C767    1.430   .     S
C746   C768    1.435   .     S
O747   C751    1.280   .     A
O747   Zn753   1.973   .     S
O748   C752    1.283   .     A
O748   Zn754   1.973   .     S
O749   Zn754   1.976   .     S
O749   C751    1.282   .     A
O750   C752    1.279   .     A
O750   Zn753   1.976   .     S
C751   C755    1.401   .     S
C752   C756    1.400   .     S
Zn753  N784    2.015   .     S
Zn754  N783    2.015   .     S
C756   C829    1.325   .     S
C756   H832    1.088   .     S
H757   C829    1.085   .     S
C759   H761    1.084   .     S
C759   C773    1.395   .     A
C759   C763    1.378   .     A
C760   H762    1.084   .     S
C760   C774    1.394   .     A
C760   C764    1.379   .     A
C763   C767    1.394   .     A
C763   H765    1.083   .     S
C764   C768    1.396   .     A
C764   H766    1.084   .     S
C767   C769    1.407   .     A
C768   C770    1.408   .     A
C769   N791    1.436   .     S
C769   C771    1.400   .     A
C770   N794    1.436   .     S
C770   C772    1.400   .     A
C771   N797    1.435   .     S
C771   C773    1.401   .     A
C772   N800    1.436   .     S
C772   C774    1.400   .     A
C774   C551    1.435   1_565 S
C775   C789    1.411   .     A
C775   C779    1.408   .     A
C775   H777    1.082   .     S
C776   C790    1.411   .     A
C776   H778    1.082   .     S
C776   C780    1.408   .     A
C779   H781    1.082   .     S
C779   N783    1.363   .     A
C780   N784    1.363   .     A
C780   H782    1.080   .     S
N783   C785    1.376   .     A
N784   C786    1.376   .     A
C785   C787    1.423   .     A
C785   N803    1.431   .     S
C786   N806    1.427   .     S
C786   C788    1.421   .     A
C787   C789    1.410   .     A
C787   N809    1.435   .     S
C788   C790    1.409   .     A
C788   N812    1.435   .     S
C790   C345    1.520   1_556 S
N791   H792    1.045   .     S
N791   H793    1.045   .     S
N794   H795    1.045   .     S
N794   H796    1.045   .     S
N797   H798    1.045   .     S
N797   H799    1.045   .     S
N800   H801    1.045   .     S
N800   H802    1.045   .     S
N803   O805    1.300   .     A
N803   O804    1.300   .     A
N806   O808    1.301   .     A
N806   O807    1.301   .     A
N809   H811    1.045   .     S
N809   H810    1.045   .     S
N812   H814    1.046   .     S
N812   H813    1.045   .     S
O815   C819    1.289   .     A
O815   Zn827   1.996   .     S
O816   C820    1.290   .     A
O816   Zn828   1.996   .     S
O817   C819    1.285   .     A
O817   Zn828   1.984   .     S
O818   C820    1.288   .     A
O818   Zn827   1.984   .     S
C819   C841    1.430   .     S
C820   C842    1.435   .     S
O821   C825    1.280   .     A
O821   Zn827   1.973   .     S
O822   C826    1.283   .     A
O822   Zn828   1.973   .     S
O823   Zn828   1.976   .     S
O823   C825    1.282   .     A
O824   C826    1.279   .     A
O824   Zn827   1.976   .     S
C825   C829    1.401   .     S
C826   C830    1.400   .     S
Zn827  N858    2.015   .     S
Zn828  N857    2.015   .     S
C830   C681    1.325   1_655 S
C830   H684    1.088   1_655 S
H831   C681    1.085   1_655 S
C833   H835    1.084   .     S
C833   C847    1.395   .     A
C833   C837    1.378   .     A
C834   H836    1.084   .     S
C834   C848    1.394   .     A
C834   C838    1.379   .     A
C837   C841    1.394   .     A
C837   H839    1.083   .     S
C838   C842    1.396   .     A
C838   H840    1.084   .     S
C841   C843    1.407   .     A
C842   C844    1.408   .     A
C843   N865    1.436   .     S
C843   C845    1.400   .     A
C844   N868    1.436   .     S
C844   C846    1.400   .     A
C845   N871    1.435   .     S
C845   C847    1.401   .     A
C846   N874    1.436   .     S
C846   C848    1.400   .     A
C848   C625    1.435   1_565 S
C849   C863    1.411   .     A
C849   C853    1.408   .     A
C849   H851    1.082   .     S
C850   C864    1.411   .     A
C850   H852    1.082   .     S
C850   C854    1.408   .     A
C853   H855    1.082   .     S
C853   N857    1.363   .     A
C854   N858    1.363   .     A
C854   H856    1.080   .     S
N857   C859    1.376   .     A
N858   C860    1.376   .     A
C859   C861    1.423   .     A
C859   N877    1.431   .     S
C860   N880    1.427   .     S
C860   C862    1.421   .     A
C861   C863    1.410   .     A
C861   N883    1.435   .     S
C862   C864    1.409   .     A
C862   N886    1.435   .     S
C864   C419    1.520   1_556 S
N865   H866    1.045   .     S
N865   H867    1.045   .     S
N868   H869    1.045   .     S
N868   H870    1.045   .     S
N871   H872    1.045   .     S
N871   H873    1.045   .     S
N874   H875    1.045   .     S
N874   H876    1.045   .     S
N877   O879    1.300   .     A
N877   O878    1.300   .     A
N880   O882    1.301   .     A
N880   O881    1.301   .     A
N883   H885    1.045   .     S
N883   H884    1.045   .     S
N886   H888    1.046   .     S
N886   H887    1.045   .     S
