data_str_m3_o10_o18_pcu_sym.91
_audit_creation_date              2020-01-03
_audit_creation_method            'Materials Studio'
_symmetry_space_group_name_H-M    'P1'
_symmetry_Int_Tables_number       1
_symmetry_cell_setting            triclinic
loop_
_symmetry_equiv_pos_as_xyz
  x,y,z
_cell_length_a                    23.4984
_cell_length_b                    25.6822
_cell_length_c                    27.2595
_cell_angle_alpha                 93.4117
_cell_angle_beta                  92.7706
_cell_angle_gamma                 94.2557
loop_
_atom_site_label
_atom_site_type_symbol
_atom_site_fract_x
_atom_site_fract_y
_atom_site_fract_z
_atom_site_U_iso_or_equiv
_atom_site_adp_type
_atom_site_occupancy
C1     C     0.01505   0.26490   0.24861   0.00000  Uiso   1.00
C2     C     0.31229   0.16125   0.15862   0.00000  Uiso   1.00
C3     C     0.03321   0.18520   0.39414   0.00000  Uiso   1.00
C4     C     0.30310   0.15622   0.10516   0.00000  Uiso   1.00
C5     C     0.03194   0.24410   0.46699   0.00000  Uiso   1.00
C6     C     0.31921   0.11829   0.02397   0.00000  Uiso   1.00
C7     C     0.00657   0.22446   0.42153   0.00000  Uiso   1.00
C8     C     0.00141   0.12427   0.07420   0.00000  Uiso   1.00
C9     C     0.08219   0.16542   0.41381   0.00000  Uiso   1.00
C10    C     0.25889   0.18276   0.08527   0.00000  Uiso   1.00
C11    C     0.11168   0.18962   0.45566   0.00000  Uiso   1.00
C12    C     0.31825   0.06842   0.25119   0.00000  Uiso   1.00
C13    C     0.24144   0.17528   0.03553   0.00000  Uiso   1.00
C14    C     0.08484   0.22814   0.48350   0.00000  Uiso   1.00
C15    C     0.27132   0.14126   0.00507   0.00000  Uiso   1.00
C16    C     0.16714   0.17643   0.47032   0.00000  Uiso   1.00
C17    C     0.19151   0.19645   0.01674   0.00000  Uiso   1.00
C18    C     0.10225   0.11207   0.08478   0.00000  Uiso   1.00
C19    C     0.29758   0.29646   0.38413   0.00000  Uiso   1.00
C20    C     0.16420   0.23566   0.04336   0.00000  Uiso   1.00
C21    C     0.19943   0.14465   0.43979   0.00000  Uiso   1.00
C22    C     0.11178   0.25126   0.02678   0.00000  Uiso   1.00
C23    C     0.25123   0.12819   0.45678   0.00000  Uiso   1.00
C24    C     0.02287   0.31947   0.24772   0.00000  Uiso   1.00
C25    C     0.31040   0.01383   0.25185   0.00000  Uiso   1.00
C26    C     0.02116   0.17251   0.34143   0.00000  Uiso   1.00
H27    H     0.09221   0.28152   0.04802   0.00000  Uiso   1.00
H28    H     0.26729   0.32998   0.25587   0.00000  Uiso   1.00
H29    H     0.16235   0.12465   0.21352   0.00000  Uiso   1.00
H30    H     0.17099   0.20869   0.28647   0.00000  Uiso   1.00
H31    H     0.03862   0.08000   0.12753   0.00000  Uiso   1.00
H32    H     0.10797   0.11474   0.04480   0.00000  Uiso   1.00
H33    H     0.13226   0.08438   0.09895   0.00000  Uiso   1.00
H34    H     0.11269   0.15109   0.10429   0.00000  Uiso   1.00
H35    H     0.25927   0.22042   0.38452   0.00000  Uiso   1.00
H36    H     0.25561   0.31041   0.37278   0.00000  Uiso   1.00
H37    H     0.32396   0.29369   0.35152   0.00000  Uiso   1.00
H38    H     0.27437   0.10324   0.43262   0.00000  Uiso   1.00
H39    H     0.31913   0.32543   0.41221   0.00000  Uiso   1.00
H40    H     0.23567   0.20606   0.11041   0.00000  Uiso   1.00
H41    H     0.09823   0.13249   0.39390   0.00000  Uiso   1.00
H42    H     0.01142   0.27364   0.48837   0.00000  Uiso   1.00
H43    H     0.00861   0.09234   0.00041   0.00000  Uiso   1.00
H44    H     0.18316   0.25614   0.07654   0.00000  Uiso   1.00
H45    H     0.18648   0.13292   0.40203   0.00000  Uiso   1.00
H46    H     0.06599   0.00333   0.24375   0.00000  Uiso   1.00
N47    N     0.14695   0.15216   0.23739   0.00000  Uiso   1.00
N48    N     0.18638   0.18117   0.26260   0.00000  Uiso   1.00
N49    N     0.04422   0.09322   0.09302   0.00000  Uiso   1.00
N50    N     0.28900   0.24581   0.40425   0.00000  Uiso   1.00
O51    O     0.29719   0.24631   0.25309   0.00000  Uiso   1.00
O52    O     0.03614   0.08702   0.24690   0.00000  Uiso   1.00
O53    O     0.05822   0.23702   0.24501   0.00000  Uiso   1.00
O54    O     0.27512   0.09632   0.25498   0.00000  Uiso   1.00
O55    O     0.30328   0.17397   0.32247   0.00000  Uiso   1.00
O56    O     0.03005   0.15937   0.17753   0.00000  Uiso   1.00
O57    O     0.06431   0.16467   0.31439   0.00000  Uiso   1.00
O58    O     0.26902   0.16866   0.18561   0.00000  Uiso   1.00
Zn59   Zn    0.27033   0.17287   0.25539   0.00000  Uiso   1.00
Zn60   Zn    0.06300   0.16046   0.24460   0.00000  Uiso   1.00
C61    C     0.34839   0.26490   0.24861   0.00000  Uiso   1.00
C62    C     0.64562   0.16125   0.15862   0.00000  Uiso   1.00
C63    C     0.36654   0.18520   0.39414   0.00000  Uiso   1.00
C64    C     0.63643   0.15622   0.10516   0.00000  Uiso   1.00
C65    C     0.36527   0.24410   0.46699   0.00000  Uiso   1.00
C66    C     0.65254   0.11829   0.02397   0.00000  Uiso   1.00
C67    C     0.33990   0.22446   0.42153   0.00000  Uiso   1.00
C68    C     0.33474   0.12427   0.07420   0.00000  Uiso   1.00
C69    C     0.41552   0.16542   0.41381   0.00000  Uiso   1.00
C70    C     0.59222   0.18276   0.08527   0.00000  Uiso   1.00
C71    C     0.44502   0.18962   0.45566   0.00000  Uiso   1.00
C72    C     0.65158   0.06842   0.25119   0.00000  Uiso   1.00
C73    C     0.57477   0.17528   0.03553   0.00000  Uiso   1.00
C74    C     0.41818   0.22814   0.48350   0.00000  Uiso   1.00
C75    C     0.60465   0.14126   0.00507   0.00000  Uiso   1.00
C76    C     0.50047   0.17643   0.47032   0.00000  Uiso   1.00
C77    C     0.52484   0.19645   0.01674   0.00000  Uiso   1.00
C78    C     0.43558   0.11207   0.08478   0.00000  Uiso   1.00
C79    C     0.63091   0.29646   0.38413   0.00000  Uiso   1.00
C80    C     0.49754   0.23566   0.04336   0.00000  Uiso   1.00
C81    C     0.53276   0.14465   0.43979   0.00000  Uiso   1.00
C82    C     0.44511   0.25126   0.02678   0.00000  Uiso   1.00
C83    C     0.58456   0.12819   0.45678   0.00000  Uiso   1.00
C84    C     0.35620   0.31947   0.24772   0.00000  Uiso   1.00
C85    C     0.64373   0.01383   0.25185   0.00000  Uiso   1.00
C86    C     0.35449   0.17251   0.34143   0.00000  Uiso   1.00
H87    H     0.42555   0.28152   0.04802   0.00000  Uiso   1.00
H88    H     0.60062   0.32998   0.25587   0.00000  Uiso   1.00
H89    H     0.49568   0.12465   0.21352   0.00000  Uiso   1.00
H90    H     0.50432   0.20869   0.28647   0.00000  Uiso   1.00
H91    H     0.37195   0.08000   0.12753   0.00000  Uiso   1.00
H92    H     0.44130   0.11474   0.04480   0.00000  Uiso   1.00
H93    H     0.46560   0.08438   0.09895   0.00000  Uiso   1.00
H94    H     0.44603   0.15109   0.10429   0.00000  Uiso   1.00
H95    H     0.59260   0.22042   0.38452   0.00000  Uiso   1.00
H96    H     0.58894   0.31041   0.37278   0.00000  Uiso   1.00
H97    H     0.65729   0.29369   0.35152   0.00000  Uiso   1.00
H98    H     0.60771   0.10324   0.43262   0.00000  Uiso   1.00
H99    H     0.65246   0.32543   0.41221   0.00000  Uiso   1.00
H100   H     0.56900   0.20606   0.11041   0.00000  Uiso   1.00
H101   H     0.43156   0.13249   0.39390   0.00000  Uiso   1.00
H102   H     0.34475   0.27364   0.48837   0.00000  Uiso   1.00
H103   H     0.34194   0.09234   0.00041   0.00000  Uiso   1.00
H104   H     0.51649   0.25614   0.07654   0.00000  Uiso   1.00
H105   H     0.51981   0.13292   0.40203   0.00000  Uiso   1.00
H106   H     0.39932   0.00333   0.24375   0.00000  Uiso   1.00
N107   N     0.48029   0.15216   0.23739   0.00000  Uiso   1.00
N108   N     0.51971   0.18117   0.26260   0.00000  Uiso   1.00
N109   N     0.37755   0.09322   0.09302   0.00000  Uiso   1.00
N110   N     0.62234   0.24581   0.40425   0.00000  Uiso   1.00
O111   O     0.63052   0.24631   0.25309   0.00000  Uiso   1.00
O112   O     0.36948   0.08702   0.24690   0.00000  Uiso   1.00
O113   O     0.39155   0.23702   0.24501   0.00000  Uiso   1.00
O114   O     0.60845   0.09632   0.25498   0.00000  Uiso   1.00
O115   O     0.63662   0.17397   0.32247   0.00000  Uiso   1.00
O116   O     0.36338   0.15937   0.17753   0.00000  Uiso   1.00
O117   O     0.39764   0.16467   0.31439   0.00000  Uiso   1.00
O118   O     0.60236   0.16866   0.18561   0.00000  Uiso   1.00
Zn119  Zn    0.60366   0.17287   0.25539   0.00000  Uiso   1.00
Zn120  Zn    0.39634   0.16046   0.24460   0.00000  Uiso   1.00
C121   C     0.68172   0.26490   0.24861   0.00000  Uiso   1.00
C122   C     0.97895   0.16125   0.15862   0.00000  Uiso   1.00
C123   C     0.69987   0.18520   0.39414   0.00000  Uiso   1.00
C124   C     0.96976   0.15622   0.10516   0.00000  Uiso   1.00
C125   C     0.69861   0.24410   0.46699   0.00000  Uiso   1.00
C126   C     0.98587   0.11829   0.02397   0.00000  Uiso   1.00
C127   C     0.67324   0.22446   0.42153   0.00000  Uiso   1.00
C128   C     0.66808   0.12427   0.07420   0.00000  Uiso   1.00
C129   C     0.74885   0.16542   0.41381   0.00000  Uiso   1.00
C130   C     0.92555   0.18276   0.08527   0.00000  Uiso   1.00
C131   C     0.77835   0.18962   0.45566   0.00000  Uiso   1.00
C132   C     0.98492   0.06842   0.25119   0.00000  Uiso   1.00
C133   C     0.90811   0.17528   0.03553   0.00000  Uiso   1.00
C134   C     0.75151   0.22814   0.48350   0.00000  Uiso   1.00
C135   C     0.93799   0.14126   0.00507   0.00000  Uiso   1.00
C136   C     0.83381   0.17643   0.47032   0.00000  Uiso   1.00
C137   C     0.85817   0.19645   0.01674   0.00000  Uiso   1.00
C138   C     0.76892   0.11207   0.08478   0.00000  Uiso   1.00
C139   C     0.96425   0.29646   0.38413   0.00000  Uiso   1.00
C140   C     0.83087   0.23566   0.04336   0.00000  Uiso   1.00
C141   C     0.86609   0.14465   0.43979   0.00000  Uiso   1.00
C142   C     0.77845   0.25126   0.02678   0.00000  Uiso   1.00
C143   C     0.91789   0.12819   0.45678   0.00000  Uiso   1.00
C144   C     0.68953   0.31947   0.24772   0.00000  Uiso   1.00
C145   C     0.97706   0.01383   0.25185   0.00000  Uiso   1.00
C146   C     0.68783   0.17251   0.34143   0.00000  Uiso   1.00
H147   H     0.75888   0.28152   0.04802   0.00000  Uiso   1.00
H148   H     0.93395   0.32998   0.25587   0.00000  Uiso   1.00
H149   H     0.82901   0.12465   0.21352   0.00000  Uiso   1.00
H150   H     0.83765   0.20869   0.28647   0.00000  Uiso   1.00
H151   H     0.70528   0.08000   0.12753   0.00000  Uiso   1.00
H152   H     0.77463   0.11474   0.04480   0.00000  Uiso   1.00
H153   H     0.79893   0.08438   0.09895   0.00000  Uiso   1.00
H154   H     0.77936   0.15109   0.10429   0.00000  Uiso   1.00
H155   H     0.92593   0.22042   0.38452   0.00000  Uiso   1.00
H156   H     0.92227   0.31041   0.37278   0.00000  Uiso   1.00
H157   H     0.99063   0.29369   0.35152   0.00000  Uiso   1.00
H158   H     0.94104   0.10324   0.43262   0.00000  Uiso   1.00
H159   H     0.98579   0.32543   0.41221   0.00000  Uiso   1.00
H160   H     0.90234   0.20606   0.11041   0.00000  Uiso   1.00
H161   H     0.76490   0.13249   0.39390   0.00000  Uiso   1.00
H162   H     0.67809   0.27364   0.48837   0.00000  Uiso   1.00
H163   H     0.67527   0.09234   0.00041   0.00000  Uiso   1.00
H164   H     0.84983   0.25614   0.07654   0.00000  Uiso   1.00
H165   H     0.85315   0.13292   0.40203   0.00000  Uiso   1.00
H166   H     0.73266   0.00333   0.24375   0.00000  Uiso   1.00
N167   N     0.81362   0.15216   0.23739   0.00000  Uiso   1.00
N168   N     0.85305   0.18117   0.26260   0.00000  Uiso   1.00
N169   N     0.71089   0.09322   0.09302   0.00000  Uiso   1.00
N170   N     0.95567   0.24581   0.40425   0.00000  Uiso   1.00
O171   O     0.96386   0.24631   0.25309   0.00000  Uiso   1.00
O172   O     0.70281   0.08702   0.24690   0.00000  Uiso   1.00
O173   O     0.72488   0.23702   0.24501   0.00000  Uiso   1.00
O174   O     0.94178   0.09632   0.25498   0.00000  Uiso   1.00
O175   O     0.96995   0.17397   0.32247   0.00000  Uiso   1.00
O176   O     0.69672   0.15937   0.17753   0.00000  Uiso   1.00
O177   O     0.73098   0.16467   0.31439   0.00000  Uiso   1.00
O178   O     0.93569   0.16866   0.18561   0.00000  Uiso   1.00
Zn179  Zn    0.93700   0.17287   0.25539   0.00000  Uiso   1.00
Zn180  Zn    0.72967   0.16046   0.24460   0.00000  Uiso   1.00
C181   C     0.01505   0.59824   0.24861   0.00000  Uiso   1.00
C182   C     0.31229   0.49458   0.15862   0.00000  Uiso   1.00
C183   C     0.03321   0.51854   0.39414   0.00000  Uiso   1.00
C184   C     0.30310   0.48955   0.10516   0.00000  Uiso   1.00
C185   C     0.03194   0.57743   0.46699   0.00000  Uiso   1.00
C186   C     0.31921   0.45162   0.02397   0.00000  Uiso   1.00
C187   C     0.00657   0.55779   0.42153   0.00000  Uiso   1.00
C188   C     0.00141   0.45760   0.07420   0.00000  Uiso   1.00
C189   C     0.08219   0.49875   0.41381   0.00000  Uiso   1.00
C190   C     0.25889   0.51609   0.08527   0.00000  Uiso   1.00
C191   C     0.11168   0.52295   0.45566   0.00000  Uiso   1.00
C192   C     0.31825   0.40175   0.25119   0.00000  Uiso   1.00
C193   C     0.24144   0.50861   0.03553   0.00000  Uiso   1.00
C194   C     0.08484   0.56147   0.48350   0.00000  Uiso   1.00
C195   C     0.27132   0.47459   0.00507   0.00000  Uiso   1.00
C196   C     0.16714   0.50976   0.47032   0.00000  Uiso   1.00
C197   C     0.19151   0.52978   0.01674   0.00000  Uiso   1.00
C198   C     0.10225   0.44540   0.08478   0.00000  Uiso   1.00
C199   C     0.29758   0.62979   0.38413   0.00000  Uiso   1.00
C200   C     0.16420   0.56900   0.04336   0.00000  Uiso   1.00
C201   C     0.19943   0.47799   0.43979   0.00000  Uiso   1.00
C202   C     0.11178   0.58460   0.02678   0.00000  Uiso   1.00
C203   C     0.25123   0.46152   0.45678   0.00000  Uiso   1.00
C204   C     0.02287   0.65281   0.24772   0.00000  Uiso   1.00
C205   C     0.31040   0.34717   0.25185   0.00000  Uiso   1.00
C206   C     0.02116   0.50585   0.34143   0.00000  Uiso   1.00
H207   H     0.09221   0.61485   0.04802   0.00000  Uiso   1.00
H208   H     0.26729   0.66331   0.25587   0.00000  Uiso   1.00
H209   H     0.16235   0.45798   0.21352   0.00000  Uiso   1.00
H210   H     0.17099   0.54203   0.28647   0.00000  Uiso   1.00
H211   H     0.03862   0.41334   0.12753   0.00000  Uiso   1.00
H212   H     0.10797   0.44807   0.04480   0.00000  Uiso   1.00
H213   H     0.13226   0.41772   0.09895   0.00000  Uiso   1.00
H214   H     0.11269   0.48442   0.10429   0.00000  Uiso   1.00
H215   H     0.25927   0.55375   0.38452   0.00000  Uiso   1.00
H216   H     0.25561   0.64374   0.37278   0.00000  Uiso   1.00
H217   H     0.32396   0.62702   0.35152   0.00000  Uiso   1.00
H218   H     0.27437   0.43658   0.43262   0.00000  Uiso   1.00
H219   H     0.31913   0.65876   0.41221   0.00000  Uiso   1.00
H220   H     0.23567   0.53939   0.11041   0.00000  Uiso   1.00
H221   H     0.09823   0.46583   0.39390   0.00000  Uiso   1.00
H222   H     0.01142   0.60697   0.48837   0.00000  Uiso   1.00
H223   H     0.00861   0.42567   0.00041   0.00000  Uiso   1.00
H224   H     0.18316   0.58947   0.07654   0.00000  Uiso   1.00
H225   H     0.18648   0.46625   0.40203   0.00000  Uiso   1.00
H226   H     0.06599   0.33666   0.24375   0.00000  Uiso   1.00
N227   N     0.14695   0.48550   0.23739   0.00000  Uiso   1.00
N228   N     0.18638   0.51450   0.26260   0.00000  Uiso   1.00
N229   N     0.04422   0.42655   0.09302   0.00000  Uiso   1.00
N230   N     0.28900   0.57914   0.40425   0.00000  Uiso   1.00
O231   O     0.29719   0.57964   0.25309   0.00000  Uiso   1.00
O232   O     0.03614   0.42036   0.24690   0.00000  Uiso   1.00
O233   O     0.05822   0.57035   0.24501   0.00000  Uiso   1.00
O234   O     0.27512   0.42965   0.25498   0.00000  Uiso   1.00
O235   O     0.30328   0.50730   0.32247   0.00000  Uiso   1.00
O236   O     0.03005   0.49270   0.17753   0.00000  Uiso   1.00
O237   O     0.06431   0.49801   0.31439   0.00000  Uiso   1.00
O238   O     0.26902   0.50199   0.18561   0.00000  Uiso   1.00
Zn239  Zn    0.27033   0.50621   0.25539   0.00000  Uiso   1.00
Zn240  Zn    0.06300   0.49379   0.24460   0.00000  Uiso   1.00
C241   C     0.34839   0.59824   0.24861   0.00000  Uiso   1.00
C242   C     0.64562   0.49458   0.15862   0.00000  Uiso   1.00
C243   C     0.36654   0.51854   0.39414   0.00000  Uiso   1.00
C244   C     0.63643   0.48955   0.10516   0.00000  Uiso   1.00
C245   C     0.36527   0.57743   0.46699   0.00000  Uiso   1.00
C246   C     0.65254   0.45162   0.02397   0.00000  Uiso   1.00
C247   C     0.33990   0.55779   0.42153   0.00000  Uiso   1.00
C248   C     0.33474   0.45760   0.07420   0.00000  Uiso   1.00
C249   C     0.41552   0.49875   0.41381   0.00000  Uiso   1.00
C250   C     0.59222   0.51609   0.08527   0.00000  Uiso   1.00
C251   C     0.44502   0.52295   0.45566   0.00000  Uiso   1.00
C252   C     0.65158   0.40175   0.25119   0.00000  Uiso   1.00
C253   C     0.57477   0.50861   0.03553   0.00000  Uiso   1.00
C254   C     0.41818   0.56147   0.48350   0.00000  Uiso   1.00
C255   C     0.60465   0.47459   0.00507   0.00000  Uiso   1.00
C256   C     0.50047   0.50976   0.47032   0.00000  Uiso   1.00
C257   C     0.52484   0.52978   0.01674   0.00000  Uiso   1.00
C258   C     0.43558   0.44540   0.08478   0.00000  Uiso   1.00
C259   C     0.63091   0.62979   0.38413   0.00000  Uiso   1.00
C260   C     0.49754   0.56900   0.04336   0.00000  Uiso   1.00
C261   C     0.53276   0.47799   0.43979   0.00000  Uiso   1.00
C262   C     0.44511   0.58460   0.02678   0.00000  Uiso   1.00
C263   C     0.58456   0.46152   0.45678   0.00000  Uiso   1.00
C264   C     0.35620   0.65281   0.24772   0.00000  Uiso   1.00
C265   C     0.64373   0.34717   0.25185   0.00000  Uiso   1.00
C266   C     0.35449   0.50585   0.34143   0.00000  Uiso   1.00
H267   H     0.42555   0.61485   0.04802   0.00000  Uiso   1.00
H268   H     0.60062   0.66331   0.25587   0.00000  Uiso   1.00
H269   H     0.49568   0.45798   0.21352   0.00000  Uiso   1.00
H270   H     0.50432   0.54203   0.28647   0.00000  Uiso   1.00
H271   H     0.37195   0.41334   0.12753   0.00000  Uiso   1.00
H272   H     0.44130   0.44807   0.04480   0.00000  Uiso   1.00
H273   H     0.46560   0.41772   0.09895   0.00000  Uiso   1.00
H274   H     0.44603   0.48442   0.10429   0.00000  Uiso   1.00
H275   H     0.59260   0.55375   0.38452   0.00000  Uiso   1.00
H276   H     0.58894   0.64374   0.37278   0.00000  Uiso   1.00
H277   H     0.65729   0.62702   0.35152   0.00000  Uiso   1.00
H278   H     0.60771   0.43658   0.43262   0.00000  Uiso   1.00
H279   H     0.65246   0.65876   0.41221   0.00000  Uiso   1.00
H280   H     0.56900   0.53939   0.11041   0.00000  Uiso   1.00
H281   H     0.43156   0.46583   0.39390   0.00000  Uiso   1.00
H282   H     0.34475   0.60697   0.48837   0.00000  Uiso   1.00
H283   H     0.34194   0.42567   0.00041   0.00000  Uiso   1.00
H284   H     0.51649   0.58947   0.07654   0.00000  Uiso   1.00
H285   H     0.51981   0.46625   0.40203   0.00000  Uiso   1.00
H286   H     0.39932   0.33666   0.24375   0.00000  Uiso   1.00
N287   N     0.48029   0.48550   0.23739   0.00000  Uiso   1.00
N288   N     0.51971   0.51450   0.26260   0.00000  Uiso   1.00
N289   N     0.37755   0.42655   0.09302   0.00000  Uiso   1.00
N290   N     0.62234   0.57914   0.40425   0.00000  Uiso   1.00
O291   O     0.63052   0.57964   0.25309   0.00000  Uiso   1.00
O292   O     0.36948   0.42036   0.24690   0.00000  Uiso   1.00
O293   O     0.39155   0.57035   0.24501   0.00000  Uiso   1.00
O294   O     0.60845   0.42965   0.25498   0.00000  Uiso   1.00
O295   O     0.63662   0.50730   0.32247   0.00000  Uiso   1.00
O296   O     0.36338   0.49270   0.17753   0.00000  Uiso   1.00
O297   O     0.39764   0.49801   0.31439   0.00000  Uiso   1.00
O298   O     0.60236   0.50199   0.18561   0.00000  Uiso   1.00
Zn299  Zn    0.60366   0.50621   0.25539   0.00000  Uiso   1.00
Zn300  Zn    0.39634   0.49379   0.24460   0.00000  Uiso   1.00
C301   C     0.68172   0.59824   0.24861   0.00000  Uiso   1.00
C302   C     0.97895   0.49458   0.15862   0.00000  Uiso   1.00
C303   C     0.69987   0.51854   0.39414   0.00000  Uiso   1.00
C304   C     0.96976   0.48955   0.10516   0.00000  Uiso   1.00
C305   C     0.69861   0.57743   0.46699   0.00000  Uiso   1.00
C306   C     0.98587   0.45162   0.02397   0.00000  Uiso   1.00
C307   C     0.67324   0.55779   0.42153   0.00000  Uiso   1.00
C308   C     0.66808   0.45760   0.07420   0.00000  Uiso   1.00
C309   C     0.74885   0.49875   0.41381   0.00000  Uiso   1.00
C310   C     0.92555   0.51609   0.08527   0.00000  Uiso   1.00
C311   C     0.77835   0.52295   0.45566   0.00000  Uiso   1.00
C312   C     0.98492   0.40175   0.25119   0.00000  Uiso   1.00
C313   C     0.90811   0.50861   0.03553   0.00000  Uiso   1.00
C314   C     0.75151   0.56147   0.48350   0.00000  Uiso   1.00
C315   C     0.93799   0.47459   0.00507   0.00000  Uiso   1.00
C316   C     0.83381   0.50976   0.47032   0.00000  Uiso   1.00
C317   C     0.85817   0.52978   0.01674   0.00000  Uiso   1.00
C318   C     0.76892   0.44540   0.08478   0.00000  Uiso   1.00
C319   C     0.96425   0.62979   0.38413   0.00000  Uiso   1.00
C320   C     0.83087   0.56900   0.04336   0.00000  Uiso   1.00
C321   C     0.86609   0.47799   0.43979   0.00000  Uiso   1.00
C322   C     0.77845   0.58460   0.02678   0.00000  Uiso   1.00
C323   C     0.91789   0.46152   0.45678   0.00000  Uiso   1.00
C324   C     0.68953   0.65281   0.24772   0.00000  Uiso   1.00
C325   C     0.97706   0.34717   0.25185   0.00000  Uiso   1.00
C326   C     0.68783   0.50585   0.34143   0.00000  Uiso   1.00
H327   H     0.75888   0.61485   0.04802   0.00000  Uiso   1.00
H328   H     0.93395   0.66331   0.25587   0.00000  Uiso   1.00
H329   H     0.82901   0.45798   0.21352   0.00000  Uiso   1.00
H330   H     0.83765   0.54203   0.28647   0.00000  Uiso   1.00
H331   H     0.70528   0.41334   0.12753   0.00000  Uiso   1.00
H332   H     0.77463   0.44807   0.04480   0.00000  Uiso   1.00
H333   H     0.79893   0.41772   0.09895   0.00000  Uiso   1.00
H334   H     0.77936   0.48442   0.10429   0.00000  Uiso   1.00
H335   H     0.92593   0.55375   0.38452   0.00000  Uiso   1.00
H336   H     0.92227   0.64374   0.37278   0.00000  Uiso   1.00
H337   H     0.99063   0.62702   0.35152   0.00000  Uiso   1.00
H338   H     0.94104   0.43658   0.43262   0.00000  Uiso   1.00
H339   H     0.98579   0.65876   0.41221   0.00000  Uiso   1.00
H340   H     0.90234   0.53939   0.11041   0.00000  Uiso   1.00
H341   H     0.76490   0.46583   0.39390   0.00000  Uiso   1.00
H342   H     0.67809   0.60697   0.48837   0.00000  Uiso   1.00
H343   H     0.67527   0.42567   0.00041   0.00000  Uiso   1.00
H344   H     0.84983   0.58947   0.07654   0.00000  Uiso   1.00
H345   H     0.85315   0.46625   0.40203   0.00000  Uiso   1.00
H346   H     0.73266   0.33666   0.24375   0.00000  Uiso   1.00
N347   N     0.81362   0.48550   0.23739   0.00000  Uiso   1.00
N348   N     0.85305   0.51450   0.26260   0.00000  Uiso   1.00
N349   N     0.71089   0.42655   0.09302   0.00000  Uiso   1.00
N350   N     0.95567   0.57914   0.40425   0.00000  Uiso   1.00
O351   O     0.96386   0.57964   0.25309   0.00000  Uiso   1.00
O352   O     0.70281   0.42036   0.24690   0.00000  Uiso   1.00
O353   O     0.72488   0.57035   0.24501   0.00000  Uiso   1.00
O354   O     0.94178   0.42965   0.25498   0.00000  Uiso   1.00
O355   O     0.96995   0.50730   0.32247   0.00000  Uiso   1.00
O356   O     0.69672   0.49270   0.17753   0.00000  Uiso   1.00
O357   O     0.73098   0.49801   0.31439   0.00000  Uiso   1.00
O358   O     0.93569   0.50199   0.18561   0.00000  Uiso   1.00
Zn359  Zn    0.93700   0.50621   0.25539   0.00000  Uiso   1.00
Zn360  Zn    0.72967   0.49379   0.24460   0.00000  Uiso   1.00
C361   C     0.01505   0.93157   0.24861   0.00000  Uiso   1.00
C362   C     0.31229   0.82791   0.15862   0.00000  Uiso   1.00
C363   C     0.03321   0.85187   0.39414   0.00000  Uiso   1.00
C364   C     0.30310   0.82289   0.10516   0.00000  Uiso   1.00
C365   C     0.03194   0.91077   0.46699   0.00000  Uiso   1.00
C366   C     0.31921   0.78495   0.02397   0.00000  Uiso   1.00
C367   C     0.00657   0.89112   0.42153   0.00000  Uiso   1.00
C368   C     0.00141   0.79093   0.07420   0.00000  Uiso   1.00
C369   C     0.08219   0.83209   0.41381   0.00000  Uiso   1.00
C370   C     0.25889   0.84943   0.08527   0.00000  Uiso   1.00
C371   C     0.11168   0.85629   0.45566   0.00000  Uiso   1.00
C372   C     0.31825   0.73508   0.25119   0.00000  Uiso   1.00
C373   C     0.24144   0.84194   0.03553   0.00000  Uiso   1.00
C374   C     0.08484   0.89480   0.48350   0.00000  Uiso   1.00
C375   C     0.27132   0.80792   0.00507   0.00000  Uiso   1.00
C376   C     0.16714   0.84310   0.47032   0.00000  Uiso   1.00
C377   C     0.19151   0.86311   0.01674   0.00000  Uiso   1.00
C378   C     0.10225   0.77873   0.08478   0.00000  Uiso   1.00
C379   C     0.29758   0.96313   0.38413   0.00000  Uiso   1.00
C380   C     0.16420   0.90233   0.04336   0.00000  Uiso   1.00
C381   C     0.19943   0.81132   0.43979   0.00000  Uiso   1.00
C382   C     0.11178   0.91793   0.02678   0.00000  Uiso   1.00
C383   C     0.25123   0.79486   0.45678   0.00000  Uiso   1.00
C384   C     0.02287   0.98614   0.24772   0.00000  Uiso   1.00
C385   C     0.31040   0.68050   0.25185   0.00000  Uiso   1.00
C386   C     0.02116   0.83918   0.34143   0.00000  Uiso   1.00
H387   H     0.09221   0.94819   0.04802   0.00000  Uiso   1.00
H388   H     0.26729   0.99664   0.25587   0.00000  Uiso   1.00
H389   H     0.16235   0.79131   0.21352   0.00000  Uiso   1.00
H390   H     0.17099   0.87536   0.28647   0.00000  Uiso   1.00
H391   H     0.03862   0.74667   0.12753   0.00000  Uiso   1.00
H392   H     0.10797   0.78140   0.04480   0.00000  Uiso   1.00
H393   H     0.13226   0.75105   0.09895   0.00000  Uiso   1.00
H394   H     0.11269   0.81775   0.10429   0.00000  Uiso   1.00
H395   H     0.25927   0.88708   0.38452   0.00000  Uiso   1.00
H396   H     0.25561   0.97708   0.37278   0.00000  Uiso   1.00
H397   H     0.32396   0.96035   0.35152   0.00000  Uiso   1.00
H398   H     0.27437   0.76991   0.43262   0.00000  Uiso   1.00
H399   H     0.31913   0.99210   0.41221   0.00000  Uiso   1.00
H400   H     0.23567   0.87272   0.11041   0.00000  Uiso   1.00
H401   H     0.09823   0.79916   0.39390   0.00000  Uiso   1.00
H402   H     0.01142   0.94030   0.48837   0.00000  Uiso   1.00
H403   H     0.00861   0.75901   0.00041   0.00000  Uiso   1.00
H404   H     0.18316   0.92281   0.07654   0.00000  Uiso   1.00
H405   H     0.18648   0.79958   0.40203   0.00000  Uiso   1.00
H406   H     0.06599   0.66999   0.24375   0.00000  Uiso   1.00
N407   N     0.14695   0.81883   0.23739   0.00000  Uiso   1.00
N408   N     0.18638   0.84784   0.26260   0.00000  Uiso   1.00
N409   N     0.04422   0.75989   0.09302   0.00000  Uiso   1.00
N410   N     0.28900   0.91248   0.40425   0.00000  Uiso   1.00
O411   O     0.29719   0.91298   0.25309   0.00000  Uiso   1.00
O412   O     0.03614   0.75369   0.24690   0.00000  Uiso   1.00
O413   O     0.05822   0.90368   0.24501   0.00000  Uiso   1.00
O414   O     0.27512   0.76298   0.25498   0.00000  Uiso   1.00
O415   O     0.30328   0.84063   0.32247   0.00000  Uiso   1.00
O416   O     0.03005   0.82603   0.17753   0.00000  Uiso   1.00
O417   O     0.06431   0.83134   0.31439   0.00000  Uiso   1.00
O418   O     0.26902   0.83533   0.18561   0.00000  Uiso   1.00
Zn419  Zn    0.27033   0.83954   0.25539   0.00000  Uiso   1.00
Zn420  Zn    0.06300   0.82713   0.24460   0.00000  Uiso   1.00
C421   C     0.34839   0.93157   0.24861   0.00000  Uiso   1.00
C422   C     0.64562   0.82791   0.15862   0.00000  Uiso   1.00
C423   C     0.36654   0.85187   0.39414   0.00000  Uiso   1.00
C424   C     0.63643   0.82289   0.10516   0.00000  Uiso   1.00
C425   C     0.36527   0.91077   0.46699   0.00000  Uiso   1.00
C426   C     0.65254   0.78495   0.02397   0.00000  Uiso   1.00
C427   C     0.33990   0.89112   0.42153   0.00000  Uiso   1.00
C428   C     0.33474   0.79093   0.07420   0.00000  Uiso   1.00
C429   C     0.41552   0.83209   0.41381   0.00000  Uiso   1.00
C430   C     0.59222   0.84943   0.08527   0.00000  Uiso   1.00
C431   C     0.44502   0.85629   0.45566   0.00000  Uiso   1.00
C432   C     0.65158   0.73508   0.25119   0.00000  Uiso   1.00
C433   C     0.57477   0.84194   0.03553   0.00000  Uiso   1.00
C434   C     0.41818   0.89480   0.48350   0.00000  Uiso   1.00
C435   C     0.60465   0.80792   0.00507   0.00000  Uiso   1.00
C436   C     0.50047   0.84310   0.47032   0.00000  Uiso   1.00
C437   C     0.52484   0.86311   0.01674   0.00000  Uiso   1.00
C438   C     0.43558   0.77873   0.08478   0.00000  Uiso   1.00
C439   C     0.63091   0.96313   0.38413   0.00000  Uiso   1.00
C440   C     0.49754   0.90233   0.04336   0.00000  Uiso   1.00
C441   C     0.53276   0.81132   0.43979   0.00000  Uiso   1.00
C442   C     0.44511   0.91793   0.02678   0.00000  Uiso   1.00
C443   C     0.58456   0.79486   0.45678   0.00000  Uiso   1.00
C444   C     0.35620   0.98614   0.24772   0.00000  Uiso   1.00
C445   C     0.64373   0.68050   0.25185   0.00000  Uiso   1.00
C446   C     0.35449   0.83918   0.34143   0.00000  Uiso   1.00
H447   H     0.42555   0.94819   0.04802   0.00000  Uiso   1.00
H448   H     0.60062   0.99664   0.25587   0.00000  Uiso   1.00
H449   H     0.49568   0.79131   0.21352   0.00000  Uiso   1.00
H450   H     0.50432   0.87536   0.28647   0.00000  Uiso   1.00
H451   H     0.37195   0.74667   0.12753   0.00000  Uiso   1.00
H452   H     0.44130   0.78140   0.04480   0.00000  Uiso   1.00
H453   H     0.46560   0.75105   0.09895   0.00000  Uiso   1.00
H454   H     0.44603   0.81775   0.10429   0.00000  Uiso   1.00
H455   H     0.59260   0.88708   0.38452   0.00000  Uiso   1.00
H456   H     0.58894   0.97708   0.37278   0.00000  Uiso   1.00
H457   H     0.65729   0.96035   0.35152   0.00000  Uiso   1.00
H458   H     0.60771   0.76991   0.43262   0.00000  Uiso   1.00
H459   H     0.65246   0.99210   0.41221   0.00000  Uiso   1.00
H460   H     0.56900   0.87272   0.11041   0.00000  Uiso   1.00
H461   H     0.43156   0.79916   0.39390   0.00000  Uiso   1.00
H462   H     0.34475   0.94030   0.48837   0.00000  Uiso   1.00
H463   H     0.34194   0.75901   0.00041   0.00000  Uiso   1.00
H464   H     0.51649   0.92281   0.07654   0.00000  Uiso   1.00
H465   H     0.51981   0.79958   0.40203   0.00000  Uiso   1.00
H466   H     0.39932   0.66999   0.24375   0.00000  Uiso   1.00
N467   N     0.48029   0.81883   0.23739   0.00000  Uiso   1.00
N468   N     0.51971   0.84784   0.26260   0.00000  Uiso   1.00
N469   N     0.37755   0.75989   0.09302   0.00000  Uiso   1.00
N470   N     0.62234   0.91248   0.40425   0.00000  Uiso   1.00
O471   O     0.63052   0.91298   0.25309   0.00000  Uiso   1.00
O472   O     0.36948   0.75369   0.24690   0.00000  Uiso   1.00
O473   O     0.39155   0.90368   0.24501   0.00000  Uiso   1.00
O474   O     0.60845   0.76298   0.25498   0.00000  Uiso   1.00
O475   O     0.63662   0.84063   0.32247   0.00000  Uiso   1.00
O476   O     0.36338   0.82603   0.17753   0.00000  Uiso   1.00
O477   O     0.39764   0.83134   0.31439   0.00000  Uiso   1.00
O478   O     0.60236   0.83533   0.18561   0.00000  Uiso   1.00
Zn479  Zn    0.60366   0.83954   0.25539   0.00000  Uiso   1.00
Zn480  Zn    0.39634   0.82713   0.24460   0.00000  Uiso   1.00
C481   C     0.68172   0.93157   0.24861   0.00000  Uiso   1.00
C482   C     0.97895   0.82791   0.15862   0.00000  Uiso   1.00
C483   C     0.69987   0.85187   0.39414   0.00000  Uiso   1.00
C484   C     0.96976   0.82289   0.10516   0.00000  Uiso   1.00
C485   C     0.69861   0.91077   0.46699   0.00000  Uiso   1.00
C486   C     0.98587   0.78495   0.02397   0.00000  Uiso   1.00
C487   C     0.67324   0.89112   0.42153   0.00000  Uiso   1.00
C488   C     0.66808   0.79093   0.07420   0.00000  Uiso   1.00
C489   C     0.74885   0.83209   0.41381   0.00000  Uiso   1.00
C490   C     0.92555   0.84943   0.08527   0.00000  Uiso   1.00
C491   C     0.77835   0.85629   0.45566   0.00000  Uiso   1.00
C492   C     0.98492   0.73508   0.25119   0.00000  Uiso   1.00
C493   C     0.90811   0.84194   0.03553   0.00000  Uiso   1.00
C494   C     0.75151   0.89480   0.48350   0.00000  Uiso   1.00
C495   C     0.93799   0.80792   0.00507   0.00000  Uiso   1.00
C496   C     0.83381   0.84310   0.47032   0.00000  Uiso   1.00
C497   C     0.85817   0.86311   0.01674   0.00000  Uiso   1.00
C498   C     0.76892   0.77873   0.08478   0.00000  Uiso   1.00
C499   C     0.96425   0.96313   0.38413   0.00000  Uiso   1.00
C500   C     0.83087   0.90233   0.04336   0.00000  Uiso   1.00
C501   C     0.86609   0.81132   0.43979   0.00000  Uiso   1.00
C502   C     0.77845   0.91793   0.02678   0.00000  Uiso   1.00
C503   C     0.91789   0.79486   0.45678   0.00000  Uiso   1.00
C504   C     0.68953   0.98614   0.24772   0.00000  Uiso   1.00
C505   C     0.97706   0.68050   0.25185   0.00000  Uiso   1.00
C506   C     0.68783   0.83918   0.34143   0.00000  Uiso   1.00
H507   H     0.75888   0.94819   0.04802   0.00000  Uiso   1.00
H508   H     0.93395   0.99664   0.25587   0.00000  Uiso   1.00
H509   H     0.82901   0.79131   0.21352   0.00000  Uiso   1.00
H510   H     0.83765   0.87536   0.28647   0.00000  Uiso   1.00
H511   H     0.70528   0.74667   0.12753   0.00000  Uiso   1.00
H512   H     0.77463   0.78140   0.04480   0.00000  Uiso   1.00
H513   H     0.79893   0.75105   0.09895   0.00000  Uiso   1.00
H514   H     0.77936   0.81775   0.10429   0.00000  Uiso   1.00
H515   H     0.92593   0.88708   0.38452   0.00000  Uiso   1.00
H516   H     0.92227   0.97708   0.37278   0.00000  Uiso   1.00
H517   H     0.99063   0.96035   0.35152   0.00000  Uiso   1.00
H518   H     0.94104   0.76991   0.43262   0.00000  Uiso   1.00
H519   H     0.98579   0.99210   0.41221   0.00000  Uiso   1.00
H520   H     0.90234   0.87272   0.11041   0.00000  Uiso   1.00
H521   H     0.76490   0.79916   0.39390   0.00000  Uiso   1.00
H522   H     0.67809   0.94030   0.48837   0.00000  Uiso   1.00
H523   H     0.67527   0.75901   0.00041   0.00000  Uiso   1.00
H524   H     0.84983   0.92281   0.07654   0.00000  Uiso   1.00
H525   H     0.85315   0.79958   0.40203   0.00000  Uiso   1.00
H526   H     0.73266   0.66999   0.24375   0.00000  Uiso   1.00
N527   N     0.81362   0.81883   0.23739   0.00000  Uiso   1.00
N528   N     0.85305   0.84784   0.26260   0.00000  Uiso   1.00
N529   N     0.71089   0.75989   0.09302   0.00000  Uiso   1.00
N530   N     0.95567   0.91248   0.40425   0.00000  Uiso   1.00
O531   O     0.96386   0.91298   0.25309   0.00000  Uiso   1.00
O532   O     0.70281   0.75369   0.24690   0.00000  Uiso   1.00
O533   O     0.72488   0.90368   0.24501   0.00000  Uiso   1.00
O534   O     0.94178   0.76298   0.25498   0.00000  Uiso   1.00
O535   O     0.96995   0.84063   0.32247   0.00000  Uiso   1.00
O536   O     0.69672   0.82603   0.17753   0.00000  Uiso   1.00
O537   O     0.73098   0.83134   0.31439   0.00000  Uiso   1.00
O538   O     0.93569   0.83533   0.18561   0.00000  Uiso   1.00
Zn539  Zn    0.93700   0.83954   0.25539   0.00000  Uiso   1.00
Zn540  Zn    0.72967   0.82713   0.24460   0.00000  Uiso   1.00
C541   C     0.01505   0.26490   0.74861   0.00000  Uiso   1.00
C542   C     0.31229   0.16125   0.65862   0.00000  Uiso   1.00
C543   C     0.03321   0.18520   0.89414   0.00000  Uiso   1.00
C544   C     0.30310   0.15622   0.60516   0.00000  Uiso   1.00
C545   C     0.03194   0.24410   0.96699   0.00000  Uiso   1.00
C546   C     0.31921   0.11829   0.52397   0.00000  Uiso   1.00
C547   C     0.00657   0.22446   0.92153   0.00000  Uiso   1.00
C548   C     0.00141   0.12427   0.57420   0.00000  Uiso   1.00
C549   C     0.08219   0.16542   0.91381   0.00000  Uiso   1.00
C550   C     0.25889   0.18276   0.58527   0.00000  Uiso   1.00
C551   C     0.11168   0.18962   0.95566   0.00000  Uiso   1.00
C552   C     0.31825   0.06842   0.75119   0.00000  Uiso   1.00
C553   C     0.24144   0.17528   0.53553   0.00000  Uiso   1.00
C554   C     0.08484   0.22814   0.98350   0.00000  Uiso   1.00
C555   C     0.27132   0.14126   0.50507   0.00000  Uiso   1.00
C556   C     0.16714   0.17643   0.97032   0.00000  Uiso   1.00
C557   C     0.19151   0.19645   0.51674   0.00000  Uiso   1.00
C558   C     0.10225   0.11207   0.58478   0.00000  Uiso   1.00
C559   C     0.29758   0.29646   0.88413   0.00000  Uiso   1.00
C560   C     0.16420   0.23566   0.54336   0.00000  Uiso   1.00
C561   C     0.19943   0.14465   0.93979   0.00000  Uiso   1.00
C562   C     0.11178   0.25126   0.52678   0.00000  Uiso   1.00
C563   C     0.25123   0.12819   0.95678   0.00000  Uiso   1.00
C564   C     0.02287   0.31947   0.74772   0.00000  Uiso   1.00
C565   C     0.31040   0.01383   0.75185   0.00000  Uiso   1.00
C566   C     0.02116   0.17251   0.84143   0.00000  Uiso   1.00
H567   H     0.09221   0.28152   0.54802   0.00000  Uiso   1.00
H568   H     0.26729   0.32998   0.75587   0.00000  Uiso   1.00
H569   H     0.16235   0.12465   0.71352   0.00000  Uiso   1.00
H570   H     0.17099   0.20869   0.78647   0.00000  Uiso   1.00
H571   H     0.03862   0.08000   0.62753   0.00000  Uiso   1.00
H572   H     0.10797   0.11474   0.54480   0.00000  Uiso   1.00
H573   H     0.13226   0.08438   0.59895   0.00000  Uiso   1.00
H574   H     0.11269   0.15109   0.60429   0.00000  Uiso   1.00
H575   H     0.25927   0.22042   0.88452   0.00000  Uiso   1.00
H576   H     0.25561   0.31041   0.87278   0.00000  Uiso   1.00
H577   H     0.32396   0.29369   0.85152   0.00000  Uiso   1.00
H578   H     0.27437   0.10324   0.93262   0.00000  Uiso   1.00
H579   H     0.31913   0.32543   0.91221   0.00000  Uiso   1.00
H580   H     0.23567   0.20606   0.61041   0.00000  Uiso   1.00
H581   H     0.09823   0.13249   0.89390   0.00000  Uiso   1.00
H582   H     0.01142   0.27364   0.98837   0.00000  Uiso   1.00
H583   H     0.00861   0.09234   0.50041   0.00000  Uiso   1.00
H584   H     0.18316   0.25614   0.57654   0.00000  Uiso   1.00
H585   H     0.18648   0.13292   0.90203   0.00000  Uiso   1.00
H586   H     0.06599   0.00333   0.74375   0.00000  Uiso   1.00
N587   N     0.14695   0.15216   0.73739   0.00000  Uiso   1.00
N588   N     0.18638   0.18117   0.76260   0.00000  Uiso   1.00
N589   N     0.04422   0.09322   0.59302   0.00000  Uiso   1.00
N590   N     0.28900   0.24581   0.90425   0.00000  Uiso   1.00
O591   O     0.29719   0.24631   0.75309   0.00000  Uiso   1.00
O592   O     0.03614   0.08702   0.74690   0.00000  Uiso   1.00
O593   O     0.05822   0.23702   0.74501   0.00000  Uiso   1.00
O594   O     0.27512   0.09632   0.75498   0.00000  Uiso   1.00
O595   O     0.30328   0.17397   0.82247   0.00000  Uiso   1.00
O596   O     0.03005   0.15937   0.67753   0.00000  Uiso   1.00
O597   O     0.06431   0.16467   0.81439   0.00000  Uiso   1.00
O598   O     0.26902   0.16866   0.68561   0.00000  Uiso   1.00
Zn599  Zn    0.27033   0.17287   0.75539   0.00000  Uiso   1.00
Zn600  Zn    0.06300   0.16046   0.74460   0.00000  Uiso   1.00
C601   C     0.34839   0.26490   0.74861   0.00000  Uiso   1.00
C602   C     0.64562   0.16125   0.65862   0.00000  Uiso   1.00
C603   C     0.36654   0.18520   0.89414   0.00000  Uiso   1.00
C604   C     0.63643   0.15622   0.60516   0.00000  Uiso   1.00
C605   C     0.36527   0.24410   0.96699   0.00000  Uiso   1.00
C606   C     0.65254   0.11829   0.52397   0.00000  Uiso   1.00
C607   C     0.33990   0.22446   0.92153   0.00000  Uiso   1.00
C608   C     0.33474   0.12427   0.57420   0.00000  Uiso   1.00
C609   C     0.41552   0.16542   0.91381   0.00000  Uiso   1.00
C610   C     0.59222   0.18276   0.58527   0.00000  Uiso   1.00
C611   C     0.44502   0.18962   0.95566   0.00000  Uiso   1.00
C612   C     0.65158   0.06842   0.75119   0.00000  Uiso   1.00
C613   C     0.57477   0.17528   0.53553   0.00000  Uiso   1.00
C614   C     0.41818   0.22814   0.98350   0.00000  Uiso   1.00
C615   C     0.60465   0.14126   0.50507   0.00000  Uiso   1.00
C616   C     0.50047   0.17643   0.97032   0.00000  Uiso   1.00
C617   C     0.52484   0.19645   0.51674   0.00000  Uiso   1.00
C618   C     0.43558   0.11207   0.58478   0.00000  Uiso   1.00
C619   C     0.63091   0.29646   0.88413   0.00000  Uiso   1.00
C620   C     0.49754   0.23566   0.54336   0.00000  Uiso   1.00
C621   C     0.53276   0.14465   0.93979   0.00000  Uiso   1.00
C622   C     0.44511   0.25126   0.52678   0.00000  Uiso   1.00
C623   C     0.58456   0.12819   0.95678   0.00000  Uiso   1.00
C624   C     0.35620   0.31947   0.74772   0.00000  Uiso   1.00
C625   C     0.64373   0.01383   0.75185   0.00000  Uiso   1.00
C626   C     0.35449   0.17251   0.84143   0.00000  Uiso   1.00
H627   H     0.42555   0.28152   0.54802   0.00000  Uiso   1.00
H628   H     0.60062   0.32998   0.75587   0.00000  Uiso   1.00
H629   H     0.49568   0.12465   0.71352   0.00000  Uiso   1.00
H630   H     0.50432   0.20869   0.78647   0.00000  Uiso   1.00
H631   H     0.37195   0.08000   0.62753   0.00000  Uiso   1.00
H632   H     0.44130   0.11474   0.54480   0.00000  Uiso   1.00
H633   H     0.46560   0.08438   0.59895   0.00000  Uiso   1.00
H634   H     0.44603   0.15109   0.60429   0.00000  Uiso   1.00
H635   H     0.59260   0.22042   0.88452   0.00000  Uiso   1.00
H636   H     0.58894   0.31041   0.87278   0.00000  Uiso   1.00
H637   H     0.65729   0.29369   0.85152   0.00000  Uiso   1.00
H638   H     0.60771   0.10324   0.93262   0.00000  Uiso   1.00
H639   H     0.65246   0.32543   0.91221   0.00000  Uiso   1.00
H640   H     0.56900   0.20606   0.61041   0.00000  Uiso   1.00
H641   H     0.43156   0.13249   0.89390   0.00000  Uiso   1.00
H642   H     0.34475   0.27364   0.98837   0.00000  Uiso   1.00
H643   H     0.34194   0.09234   0.50041   0.00000  Uiso   1.00
H644   H     0.51649   0.25614   0.57654   0.00000  Uiso   1.00
H645   H     0.51981   0.13292   0.90203   0.00000  Uiso   1.00
H646   H     0.39932   0.00333   0.74375   0.00000  Uiso   1.00
N647   N     0.48029   0.15216   0.73739   0.00000  Uiso   1.00
N648   N     0.51971   0.18117   0.76260   0.00000  Uiso   1.00
N649   N     0.37755   0.09322   0.59302   0.00000  Uiso   1.00
N650   N     0.62234   0.24581   0.90425   0.00000  Uiso   1.00
O651   O     0.63052   0.24631   0.75309   0.00000  Uiso   1.00
O652   O     0.36948   0.08702   0.74690   0.00000  Uiso   1.00
O653   O     0.39155   0.23702   0.74501   0.00000  Uiso   1.00
O654   O     0.60845   0.09632   0.75498   0.00000  Uiso   1.00
O655   O     0.63662   0.17397   0.82247   0.00000  Uiso   1.00
O656   O     0.36338   0.15937   0.67753   0.00000  Uiso   1.00
O657   O     0.39764   0.16467   0.81439   0.00000  Uiso   1.00
O658   O     0.60236   0.16866   0.68561   0.00000  Uiso   1.00
Zn659  Zn    0.60366   0.17287   0.75539   0.00000  Uiso   1.00
Zn660  Zn    0.39634   0.16046   0.74460   0.00000  Uiso   1.00
C661   C     0.68172   0.26490   0.74861   0.00000  Uiso   1.00
C662   C     0.97895   0.16125   0.65862   0.00000  Uiso   1.00
C663   C     0.69987   0.18520   0.89414   0.00000  Uiso   1.00
C664   C     0.96976   0.15622   0.60516   0.00000  Uiso   1.00
C665   C     0.69861   0.24410   0.96699   0.00000  Uiso   1.00
C666   C     0.98587   0.11829   0.52397   0.00000  Uiso   1.00
C667   C     0.67324   0.22446   0.92153   0.00000  Uiso   1.00
C668   C     0.66808   0.12427   0.57420   0.00000  Uiso   1.00
C669   C     0.74885   0.16542   0.91381   0.00000  Uiso   1.00
C670   C     0.92555   0.18276   0.58527   0.00000  Uiso   1.00
C671   C     0.77835   0.18962   0.95566   0.00000  Uiso   1.00
C672   C     0.98492   0.06842   0.75119   0.00000  Uiso   1.00
C673   C     0.90811   0.17528   0.53553   0.00000  Uiso   1.00
C674   C     0.75151   0.22814   0.98350   0.00000  Uiso   1.00
C675   C     0.93799   0.14126   0.50507   0.00000  Uiso   1.00
C676   C     0.83381   0.17643   0.97032   0.00000  Uiso   1.00
C677   C     0.85817   0.19645   0.51674   0.00000  Uiso   1.00
C678   C     0.76892   0.11207   0.58478   0.00000  Uiso   1.00
C679   C     0.96425   0.29646   0.88413   0.00000  Uiso   1.00
C680   C     0.83087   0.23566   0.54336   0.00000  Uiso   1.00
C681   C     0.86609   0.14465   0.93979   0.00000  Uiso   1.00
C682   C     0.77845   0.25126   0.52678   0.00000  Uiso   1.00
C683   C     0.91789   0.12819   0.95678   0.00000  Uiso   1.00
C684   C     0.68953   0.31947   0.74772   0.00000  Uiso   1.00
C685   C     0.97706   0.01383   0.75185   0.00000  Uiso   1.00
C686   C     0.68783   0.17251   0.84143   0.00000  Uiso   1.00
H687   H     0.75888   0.28152   0.54802   0.00000  Uiso   1.00
H688   H     0.93395   0.32998   0.75587   0.00000  Uiso   1.00
H689   H     0.82901   0.12465   0.71352   0.00000  Uiso   1.00
H690   H     0.83765   0.20869   0.78647   0.00000  Uiso   1.00
H691   H     0.70528   0.08000   0.62753   0.00000  Uiso   1.00
H692   H     0.77463   0.11474   0.54480   0.00000  Uiso   1.00
H693   H     0.79893   0.08438   0.59895   0.00000  Uiso   1.00
H694   H     0.77936   0.15109   0.60429   0.00000  Uiso   1.00
H695   H     0.92593   0.22042   0.88452   0.00000  Uiso   1.00
H696   H     0.92227   0.31041   0.87278   0.00000  Uiso   1.00
H697   H     0.99063   0.29369   0.85152   0.00000  Uiso   1.00
H698   H     0.94104   0.10324   0.93262   0.00000  Uiso   1.00
H699   H     0.98579   0.32543   0.91221   0.00000  Uiso   1.00
H700   H     0.90234   0.20606   0.61041   0.00000  Uiso   1.00
H701   H     0.76490   0.13249   0.89390   0.00000  Uiso   1.00
H702   H     0.67809   0.27364   0.98837   0.00000  Uiso   1.00
H703   H     0.67527   0.09234   0.50041   0.00000  Uiso   1.00
H704   H     0.84983   0.25614   0.57654   0.00000  Uiso   1.00
H705   H     0.85315   0.13292   0.90203   0.00000  Uiso   1.00
H706   H     0.73266   0.00333   0.74375   0.00000  Uiso   1.00
N707   N     0.81362   0.15216   0.73739   0.00000  Uiso   1.00
N708   N     0.85305   0.18117   0.76260   0.00000  Uiso   1.00
N709   N     0.71089   0.09322   0.59302   0.00000  Uiso   1.00
N710   N     0.95567   0.24581   0.90425   0.00000  Uiso   1.00
O711   O     0.96386   0.24631   0.75309   0.00000  Uiso   1.00
O712   O     0.70281   0.08702   0.74690   0.00000  Uiso   1.00
O713   O     0.72488   0.23702   0.74501   0.00000  Uiso   1.00
O714   O     0.94178   0.09632   0.75498   0.00000  Uiso   1.00
O715   O     0.96995   0.17397   0.82247   0.00000  Uiso   1.00
O716   O     0.69672   0.15937   0.67753   0.00000  Uiso   1.00
O717   O     0.73098   0.16467   0.81439   0.00000  Uiso   1.00
O718   O     0.93569   0.16866   0.68561   0.00000  Uiso   1.00
Zn719  Zn    0.93700   0.17287   0.75539   0.00000  Uiso   1.00
Zn720  Zn    0.72967   0.16046   0.74460   0.00000  Uiso   1.00
C721   C     0.01505   0.59824   0.74861   0.00000  Uiso   1.00
C722   C     0.31229   0.49458   0.65862   0.00000  Uiso   1.00
C723   C     0.03321   0.51854   0.89414   0.00000  Uiso   1.00
C724   C     0.30310   0.48955   0.60516   0.00000  Uiso   1.00
C725   C     0.03194   0.57743   0.96699   0.00000  Uiso   1.00
C726   C     0.31921   0.45162   0.52397   0.00000  Uiso   1.00
C727   C     0.00657   0.55779   0.92153   0.00000  Uiso   1.00
C728   C     0.00141   0.45760   0.57420   0.00000  Uiso   1.00
C729   C     0.08219   0.49875   0.91381   0.00000  Uiso   1.00
C730   C     0.25889   0.51609   0.58527   0.00000  Uiso   1.00
C731   C     0.11168   0.52295   0.95566   0.00000  Uiso   1.00
C732   C     0.31825   0.40175   0.75119   0.00000  Uiso   1.00
C733   C     0.24144   0.50861   0.53553   0.00000  Uiso   1.00
C734   C     0.08484   0.56147   0.98350   0.00000  Uiso   1.00
C735   C     0.27132   0.47459   0.50507   0.00000  Uiso   1.00
C736   C     0.16714   0.50976   0.97032   0.00000  Uiso   1.00
C737   C     0.19151   0.52978   0.51674   0.00000  Uiso   1.00
C738   C     0.10225   0.44540   0.58478   0.00000  Uiso   1.00
C739   C     0.29758   0.62979   0.88413   0.00000  Uiso   1.00
C740   C     0.16420   0.56900   0.54336   0.00000  Uiso   1.00
C741   C     0.19943   0.47799   0.93979   0.00000  Uiso   1.00
C742   C     0.11178   0.58460   0.52678   0.00000  Uiso   1.00
C743   C     0.25123   0.46152   0.95678   0.00000  Uiso   1.00
C744   C     0.02287   0.65281   0.74772   0.00000  Uiso   1.00
C745   C     0.31040   0.34717   0.75185   0.00000  Uiso   1.00
C746   C     0.02116   0.50585   0.84143   0.00000  Uiso   1.00
H747   H     0.09221   0.61485   0.54802   0.00000  Uiso   1.00
H748   H     0.26729   0.66331   0.75587   0.00000  Uiso   1.00
H749   H     0.16235   0.45798   0.71352   0.00000  Uiso   1.00
H750   H     0.17099   0.54203   0.78647   0.00000  Uiso   1.00
H751   H     0.03862   0.41334   0.62753   0.00000  Uiso   1.00
H752   H     0.10797   0.44807   0.54480   0.00000  Uiso   1.00
H753   H     0.13226   0.41772   0.59895   0.00000  Uiso   1.00
H754   H     0.11269   0.48442   0.60429   0.00000  Uiso   1.00
H755   H     0.25927   0.55375   0.88452   0.00000  Uiso   1.00
H756   H     0.25561   0.64374   0.87278   0.00000  Uiso   1.00
H757   H     0.32396   0.62702   0.85152   0.00000  Uiso   1.00
H758   H     0.27437   0.43658   0.93262   0.00000  Uiso   1.00
H759   H     0.31913   0.65876   0.91221   0.00000  Uiso   1.00
H760   H     0.23567   0.53939   0.61041   0.00000  Uiso   1.00
H761   H     0.09823   0.46583   0.89390   0.00000  Uiso   1.00
H762   H     0.01142   0.60697   0.98837   0.00000  Uiso   1.00
H763   H     0.00861   0.42567   0.50041   0.00000  Uiso   1.00
H764   H     0.18316   0.58947   0.57654   0.00000  Uiso   1.00
H765   H     0.18648   0.46625   0.90203   0.00000  Uiso   1.00
H766   H     0.06599   0.33666   0.74375   0.00000  Uiso   1.00
N767   N     0.14695   0.48550   0.73739   0.00000  Uiso   1.00
N768   N     0.18638   0.51450   0.76260   0.00000  Uiso   1.00
N769   N     0.04422   0.42655   0.59302   0.00000  Uiso   1.00
N770   N     0.28900   0.57914   0.90425   0.00000  Uiso   1.00
O771   O     0.29719   0.57964   0.75309   0.00000  Uiso   1.00
O772   O     0.03614   0.42036   0.74690   0.00000  Uiso   1.00
O773   O     0.05822   0.57035   0.74501   0.00000  Uiso   1.00
O774   O     0.27512   0.42965   0.75498   0.00000  Uiso   1.00
O775   O     0.30328   0.50730   0.82247   0.00000  Uiso   1.00
O776   O     0.03005   0.49270   0.67753   0.00000  Uiso   1.00
O777   O     0.06431   0.49801   0.81439   0.00000  Uiso   1.00
O778   O     0.26902   0.50199   0.68561   0.00000  Uiso   1.00
Zn779  Zn    0.27033   0.50621   0.75539   0.00000  Uiso   1.00
Zn780  Zn    0.06300   0.49379   0.74460   0.00000  Uiso   1.00
C781   C     0.34839   0.59824   0.74861   0.00000  Uiso   1.00
C782   C     0.64562   0.49458   0.65862   0.00000  Uiso   1.00
C783   C     0.36654   0.51854   0.89414   0.00000  Uiso   1.00
C784   C     0.63643   0.48955   0.60516   0.00000  Uiso   1.00
C785   C     0.36527   0.57743   0.96699   0.00000  Uiso   1.00
C786   C     0.65254   0.45162   0.52397   0.00000  Uiso   1.00
C787   C     0.33990   0.55779   0.92153   0.00000  Uiso   1.00
C788   C     0.33474   0.45760   0.57420   0.00000  Uiso   1.00
C789   C     0.41552   0.49875   0.91381   0.00000  Uiso   1.00
C790   C     0.59222   0.51609   0.58527   0.00000  Uiso   1.00
C791   C     0.44502   0.52295   0.95566   0.00000  Uiso   1.00
C792   C     0.65158   0.40175   0.75119   0.00000  Uiso   1.00
C793   C     0.57477   0.50861   0.53553   0.00000  Uiso   1.00
C794   C     0.41818   0.56147   0.98350   0.00000  Uiso   1.00
C795   C     0.60465   0.47459   0.50507   0.00000  Uiso   1.00
C796   C     0.50047   0.50976   0.97032   0.00000  Uiso   1.00
C797   C     0.52484   0.52978   0.51674   0.00000  Uiso   1.00
C798   C     0.43558   0.44540   0.58478   0.00000  Uiso   1.00
C799   C     0.63091   0.62979   0.88413   0.00000  Uiso   1.00
C800   C     0.49754   0.56900   0.54336   0.00000  Uiso   1.00
C801   C     0.53276   0.47799   0.93979   0.00000  Uiso   1.00
C802   C     0.44511   0.58460   0.52678   0.00000  Uiso   1.00
C803   C     0.58456   0.46152   0.95678   0.00000  Uiso   1.00
C804   C     0.35620   0.65281   0.74772   0.00000  Uiso   1.00
C805   C     0.64373   0.34717   0.75185   0.00000  Uiso   1.00
C806   C     0.35449   0.50585   0.84143   0.00000  Uiso   1.00
H807   H     0.42555   0.61485   0.54802   0.00000  Uiso   1.00
H808   H     0.60062   0.66331   0.75587   0.00000  Uiso   1.00
H809   H     0.49568   0.45798   0.71352   0.00000  Uiso   1.00
H810   H     0.50432   0.54203   0.78647   0.00000  Uiso   1.00
H811   H     0.37195   0.41334   0.62753   0.00000  Uiso   1.00
H812   H     0.44130   0.44807   0.54480   0.00000  Uiso   1.00
H813   H     0.46560   0.41772   0.59895   0.00000  Uiso   1.00
H814   H     0.44603   0.48442   0.60429   0.00000  Uiso   1.00
H815   H     0.59260   0.55375   0.88452   0.00000  Uiso   1.00
H816   H     0.58894   0.64374   0.87278   0.00000  Uiso   1.00
H817   H     0.65729   0.62702   0.85152   0.00000  Uiso   1.00
H818   H     0.60771   0.43658   0.93262   0.00000  Uiso   1.00
H819   H     0.65246   0.65876   0.91221   0.00000  Uiso   1.00
H820   H     0.56900   0.53939   0.61041   0.00000  Uiso   1.00
H821   H     0.43156   0.46583   0.89390   0.00000  Uiso   1.00
H822   H     0.34475   0.60697   0.98837   0.00000  Uiso   1.00
H823   H     0.34194   0.42567   0.50041   0.00000  Uiso   1.00
H824   H     0.51649   0.58947   0.57654   0.00000  Uiso   1.00
H825   H     0.51981   0.46625   0.90203   0.00000  Uiso   1.00
H826   H     0.39932   0.33666   0.74375   0.00000  Uiso   1.00
N827   N     0.48029   0.48550   0.73739   0.00000  Uiso   1.00
N828   N     0.51971   0.51450   0.76260   0.00000  Uiso   1.00
N829   N     0.37755   0.42655   0.59302   0.00000  Uiso   1.00
N830   N     0.62234   0.57914   0.90425   0.00000  Uiso   1.00
O831   O     0.63052   0.57964   0.75309   0.00000  Uiso   1.00
O832   O     0.36948   0.42036   0.74690   0.00000  Uiso   1.00
O833   O     0.39155   0.57035   0.74501   0.00000  Uiso   1.00
O834   O     0.60845   0.42965   0.75498   0.00000  Uiso   1.00
O835   O     0.63662   0.50730   0.82247   0.00000  Uiso   1.00
O836   O     0.36338   0.49270   0.67753   0.00000  Uiso   1.00
O837   O     0.39764   0.49801   0.81439   0.00000  Uiso   1.00
O838   O     0.60236   0.50199   0.68561   0.00000  Uiso   1.00
Zn839  Zn    0.60366   0.50621   0.75539   0.00000  Uiso   1.00
Zn840  Zn    0.39634   0.49379   0.74460   0.00000  Uiso   1.00
C841   C     0.68172   0.59824   0.74861   0.00000  Uiso   1.00
C842   C     0.97895   0.49458   0.65862   0.00000  Uiso   1.00
C843   C     0.69987   0.51854   0.89414   0.00000  Uiso   1.00
C844   C     0.96976   0.48955   0.60516   0.00000  Uiso   1.00
C845   C     0.69861   0.57743   0.96699   0.00000  Uiso   1.00
C846   C     0.98587   0.45162   0.52397   0.00000  Uiso   1.00
C847   C     0.67324   0.55779   0.92153   0.00000  Uiso   1.00
C848   C     0.66808   0.45760   0.57420   0.00000  Uiso   1.00
C849   C     0.74885   0.49875   0.91381   0.00000  Uiso   1.00
C850   C     0.92555   0.51609   0.58527   0.00000  Uiso   1.00
C851   C     0.77835   0.52295   0.95566   0.00000  Uiso   1.00
C852   C     0.98492   0.40175   0.75119   0.00000  Uiso   1.00
C853   C     0.90811   0.50861   0.53553   0.00000  Uiso   1.00
C854   C     0.75151   0.56147   0.98350   0.00000  Uiso   1.00
C855   C     0.93799   0.47459   0.50507   0.00000  Uiso   1.00
C856   C     0.83381   0.50976   0.97032   0.00000  Uiso   1.00
C857   C     0.85817   0.52978   0.51674   0.00000  Uiso   1.00
C858   C     0.76892   0.44540   0.58478   0.00000  Uiso   1.00
C859   C     0.96425   0.62979   0.88413   0.00000  Uiso   1.00
C860   C     0.83087   0.56900   0.54336   0.00000  Uiso   1.00
C861   C     0.86609   0.47799   0.93979   0.00000  Uiso   1.00
C862   C     0.77845   0.58460   0.52678   0.00000  Uiso   1.00
C863   C     0.91789   0.46152   0.95678   0.00000  Uiso   1.00
C864   C     0.68953   0.65281   0.74772   0.00000  Uiso   1.00
C865   C     0.97706   0.34717   0.75185   0.00000  Uiso   1.00
C866   C     0.68783   0.50585   0.84143   0.00000  Uiso   1.00
H867   H     0.75888   0.61485   0.54802   0.00000  Uiso   1.00
H868   H     0.93395   0.66331   0.75587   0.00000  Uiso   1.00
H869   H     0.82901   0.45798   0.71352   0.00000  Uiso   1.00
H870   H     0.83765   0.54203   0.78647   0.00000  Uiso   1.00
H871   H     0.70528   0.41334   0.62753   0.00000  Uiso   1.00
H872   H     0.77463   0.44807   0.54480   0.00000  Uiso   1.00
H873   H     0.79893   0.41772   0.59895   0.00000  Uiso   1.00
H874   H     0.77936   0.48442   0.60429   0.00000  Uiso   1.00
H875   H     0.92593   0.55375   0.88452   0.00000  Uiso   1.00
H876   H     0.92227   0.64374   0.87278   0.00000  Uiso   1.00
H877   H     0.99063   0.62702   0.85152   0.00000  Uiso   1.00
H878   H     0.94104   0.43658   0.93262   0.00000  Uiso   1.00
H879   H     0.98579   0.65876   0.91221   0.00000  Uiso   1.00
H880   H     0.90234   0.53939   0.61041   0.00000  Uiso   1.00
H881   H     0.76490   0.46583   0.89390   0.00000  Uiso   1.00
H882   H     0.67809   0.60697   0.98837   0.00000  Uiso   1.00
H883   H     0.67527   0.42567   0.50041   0.00000  Uiso   1.00
H884   H     0.84983   0.58947   0.57654   0.00000  Uiso   1.00
H885   H     0.85315   0.46625   0.90203   0.00000  Uiso   1.00
H886   H     0.73266   0.33666   0.74375   0.00000  Uiso   1.00
N887   N     0.81362   0.48550   0.73739   0.00000  Uiso   1.00
N888   N     0.85305   0.51450   0.76260   0.00000  Uiso   1.00
N889   N     0.71089   0.42655   0.59302   0.00000  Uiso   1.00
N890   N     0.95567   0.57914   0.90425   0.00000  Uiso   1.00
O891   O     0.96386   0.57964   0.75309   0.00000  Uiso   1.00
O892   O     0.70281   0.42036   0.74690   0.00000  Uiso   1.00
O893   O     0.72488   0.57035   0.74501   0.00000  Uiso   1.00
O894   O     0.94178   0.42965   0.75498   0.00000  Uiso   1.00
O895   O     0.96995   0.50730   0.82247   0.00000  Uiso   1.00
O896   O     0.69672   0.49270   0.67753   0.00000  Uiso   1.00
O897   O     0.73098   0.49801   0.81439   0.00000  Uiso   1.00
O898   O     0.93569   0.50199   0.68561   0.00000  Uiso   1.00
Zn899  Zn    0.93700   0.50621   0.75539   0.00000  Uiso   1.00
Zn900  Zn    0.72967   0.49379   0.74460   0.00000  Uiso   1.00
C901   C     0.01505   0.93157   0.74861   0.00000  Uiso   1.00
C902   C     0.31229   0.82791   0.65862   0.00000  Uiso   1.00
C903   C     0.03321   0.85187   0.89414   0.00000  Uiso   1.00
C904   C     0.30310   0.82289   0.60516   0.00000  Uiso   1.00
C905   C     0.03194   0.91077   0.96699   0.00000  Uiso   1.00
C906   C     0.31921   0.78495   0.52397   0.00000  Uiso   1.00
C907   C     0.00657   0.89112   0.92153   0.00000  Uiso   1.00
C908   C     0.00141   0.79093   0.57420   0.00000  Uiso   1.00
C909   C     0.08219   0.83209   0.91381   0.00000  Uiso   1.00
C910   C     0.25889   0.84943   0.58527   0.00000  Uiso   1.00
C911   C     0.11168   0.85629   0.95566   0.00000  Uiso   1.00
C912   C     0.31825   0.73508   0.75119   0.00000  Uiso   1.00
C913   C     0.24144   0.84194   0.53553   0.00000  Uiso   1.00
C914   C     0.08484   0.89480   0.98350   0.00000  Uiso   1.00
C915   C     0.27132   0.80792   0.50507   0.00000  Uiso   1.00
C916   C     0.16714   0.84310   0.97032   0.00000  Uiso   1.00
C917   C     0.19151   0.86311   0.51674   0.00000  Uiso   1.00
C918   C     0.10225   0.77873   0.58478   0.00000  Uiso   1.00
C919   C     0.29758   0.96313   0.88413   0.00000  Uiso   1.00
C920   C     0.16420   0.90233   0.54336   0.00000  Uiso   1.00
C921   C     0.19943   0.81132   0.93979   0.00000  Uiso   1.00
C922   C     0.11178   0.91793   0.52678   0.00000  Uiso   1.00
C923   C     0.25123   0.79486   0.95678   0.00000  Uiso   1.00
C924   C     0.02287   0.98614   0.74772   0.00000  Uiso   1.00
C925   C     0.31040   0.68050   0.75185   0.00000  Uiso   1.00
C926   C     0.02116   0.83918   0.84143   0.00000  Uiso   1.00
H927   H     0.09221   0.94819   0.54802   0.00000  Uiso   1.00
H928   H     0.26729   0.99664   0.75587   0.00000  Uiso   1.00
H929   H     0.16235   0.79131   0.71352   0.00000  Uiso   1.00
H930   H     0.17099   0.87536   0.78647   0.00000  Uiso   1.00
H931   H     0.03862   0.74667   0.62753   0.00000  Uiso   1.00
H932   H     0.10797   0.78140   0.54480   0.00000  Uiso   1.00
H933   H     0.13226   0.75105   0.59895   0.00000  Uiso   1.00
H934   H     0.11269   0.81775   0.60429   0.00000  Uiso   1.00
H935   H     0.25927   0.88708   0.88452   0.00000  Uiso   1.00
H936   H     0.25561   0.97708   0.87278   0.00000  Uiso   1.00
H937   H     0.32396   0.96035   0.85152   0.00000  Uiso   1.00
H938   H     0.27437   0.76991   0.93262   0.00000  Uiso   1.00
H939   H     0.31913   0.99210   0.91221   0.00000  Uiso   1.00
H940   H     0.23567   0.87272   0.61041   0.00000  Uiso   1.00
H941   H     0.09823   0.79916   0.89390   0.00000  Uiso   1.00
H942   H     0.01142   0.94030   0.98837   0.00000  Uiso   1.00
H943   H     0.00861   0.75901   0.50041   0.00000  Uiso   1.00
H944   H     0.18316   0.92281   0.57654   0.00000  Uiso   1.00
H945   H     0.18648   0.79958   0.90203   0.00000  Uiso   1.00
H946   H     0.06599   0.66999   0.74375   0.00000  Uiso   1.00
N947   N     0.14695   0.81883   0.73739   0.00000  Uiso   1.00
N948   N     0.18638   0.84784   0.76260   0.00000  Uiso   1.00
N949   N     0.04422   0.75989   0.59302   0.00000  Uiso   1.00
N950   N     0.28900   0.91248   0.90425   0.00000  Uiso   1.00
O951   O     0.29719   0.91298   0.75309   0.00000  Uiso   1.00
O952   O     0.03614   0.75369   0.74690   0.00000  Uiso   1.00
O953   O     0.05822   0.90368   0.74501   0.00000  Uiso   1.00
O954   O     0.27512   0.76298   0.75498   0.00000  Uiso   1.00
O955   O     0.30328   0.84063   0.82247   0.00000  Uiso   1.00
O956   O     0.03005   0.82603   0.67753   0.00000  Uiso   1.00
O957   O     0.06431   0.83134   0.81439   0.00000  Uiso   1.00
O958   O     0.26902   0.83533   0.68561   0.00000  Uiso   1.00
Zn959  Zn    0.27033   0.83954   0.75539   0.00000  Uiso   1.00
Zn960  Zn    0.06300   0.82713   0.74460   0.00000  Uiso   1.00
C961   C     0.34839   0.93157   0.74861   0.00000  Uiso   1.00
C962   C     0.64562   0.82791   0.65862   0.00000  Uiso   1.00
C963   C     0.36654   0.85187   0.89414   0.00000  Uiso   1.00
C964   C     0.63643   0.82289   0.60516   0.00000  Uiso   1.00
C965   C     0.36527   0.91077   0.96699   0.00000  Uiso   1.00
C966   C     0.65254   0.78495   0.52397   0.00000  Uiso   1.00
C967   C     0.33990   0.89112   0.92153   0.00000  Uiso   1.00
C968   C     0.33474   0.79093   0.57420   0.00000  Uiso   1.00
C969   C     0.41552   0.83209   0.91381   0.00000  Uiso   1.00
C970   C     0.59222   0.84943   0.58527   0.00000  Uiso   1.00
C971   C     0.44502   0.85629   0.95566   0.00000  Uiso   1.00
C972   C     0.65158   0.73508   0.75119   0.00000  Uiso   1.00
C973   C     0.57477   0.84194   0.53553   0.00000  Uiso   1.00
C974   C     0.41818   0.89480   0.98350   0.00000  Uiso   1.00
C975   C     0.60465   0.80792   0.50507   0.00000  Uiso   1.00
C976   C     0.50047   0.84310   0.97032   0.00000  Uiso   1.00
C977   C     0.52484   0.86311   0.51674   0.00000  Uiso   1.00
C978   C     0.43558   0.77873   0.58478   0.00000  Uiso   1.00
C979   C     0.63091   0.96313   0.88413   0.00000  Uiso   1.00
C980   C     0.49754   0.90233   0.54336   0.00000  Uiso   1.00
C981   C     0.53276   0.81132   0.93979   0.00000  Uiso   1.00
C982   C     0.44511   0.91793   0.52678   0.00000  Uiso   1.00
C983   C     0.58456   0.79486   0.95678   0.00000  Uiso   1.00
C984   C     0.35620   0.98614   0.74772   0.00000  Uiso   1.00
C985   C     0.64373   0.68050   0.75185   0.00000  Uiso   1.00
C986   C     0.35449   0.83918   0.84143   0.00000  Uiso   1.00
H987   H     0.42555   0.94819   0.54802   0.00000  Uiso   1.00
H988   H     0.60062   0.99664   0.75587   0.00000  Uiso   1.00
H989   H     0.49568   0.79131   0.71352   0.00000  Uiso   1.00
H990   H     0.50432   0.87536   0.78647   0.00000  Uiso   1.00
H991   H     0.37195   0.74667   0.62753   0.00000  Uiso   1.00
H992   H     0.44130   0.78140   0.54480   0.00000  Uiso   1.00
H993   H     0.46560   0.75105   0.59895   0.00000  Uiso   1.00
H994   H     0.44603   0.81775   0.60429   0.00000  Uiso   1.00
H995   H     0.59260   0.88708   0.88452   0.00000  Uiso   1.00
H996   H     0.58894   0.97708   0.87278   0.00000  Uiso   1.00
H997   H     0.65729   0.96035   0.85152   0.00000  Uiso   1.00
H998   H     0.60771   0.76991   0.93262   0.00000  Uiso   1.00
H999   H     0.65246   0.99210   0.91221   0.00000  Uiso   1.00
H1000  H     0.56900   0.87272   0.61041   0.00000  Uiso   1.00
H1001  H     0.43156   0.79916   0.89390   0.00000  Uiso   1.00
H1002  H     0.34475   0.94030   0.98837   0.00000  Uiso   1.00
H1003  H     0.34194   0.75901   0.50041   0.00000  Uiso   1.00
H1004  H     0.51649   0.92281   0.57654   0.00000  Uiso   1.00
H1005  H     0.51981   0.79958   0.90203   0.00000  Uiso   1.00
H1006  H     0.39932   0.66999   0.74375   0.00000  Uiso   1.00
N1007  N     0.48029   0.81883   0.73739   0.00000  Uiso   1.00
N1008  N     0.51971   0.84784   0.76260   0.00000  Uiso   1.00
N1009  N     0.37755   0.75989   0.59302   0.00000  Uiso   1.00
N1010  N     0.62234   0.91248   0.90425   0.00000  Uiso   1.00
O1011  O     0.63052   0.91298   0.75309   0.00000  Uiso   1.00
O1012  O     0.36948   0.75369   0.74690   0.00000  Uiso   1.00
O1013  O     0.39155   0.90368   0.74501   0.00000  Uiso   1.00
O1014  O     0.60845   0.76298   0.75498   0.00000  Uiso   1.00
O1015  O     0.63662   0.84063   0.82247   0.00000  Uiso   1.00
O1016  O     0.36338   0.82603   0.67753   0.00000  Uiso   1.00
O1017  O     0.39764   0.83134   0.81439   0.00000  Uiso   1.00
O1018  O     0.60236   0.83533   0.68561   0.00000  Uiso   1.00
Zn1019 Zn    0.60366   0.83954   0.75539   0.00000  Uiso   1.00
Zn1020 Zn    0.39634   0.82713   0.74460   0.00000  Uiso   1.00
C1021  C     0.68172   0.93157   0.74861   0.00000  Uiso   1.00
C1022  C     0.97895   0.82791   0.65862   0.00000  Uiso   1.00
C1023  C     0.69987   0.85187   0.89414   0.00000  Uiso   1.00
C1024  C     0.96976   0.82289   0.60516   0.00000  Uiso   1.00
C1025  C     0.69861   0.91077   0.96699   0.00000  Uiso   1.00
C1026  C     0.98587   0.78495   0.52397   0.00000  Uiso   1.00
C1027  C     0.67324   0.89112   0.92153   0.00000  Uiso   1.00
C1028  C     0.66808   0.79093   0.57420   0.00000  Uiso   1.00
C1029  C     0.74885   0.83209   0.91381   0.00000  Uiso   1.00
C1030  C     0.92555   0.84943   0.58527   0.00000  Uiso   1.00
C1031  C     0.77835   0.85629   0.95566   0.00000  Uiso   1.00
C1032  C     0.98492   0.73508   0.75119   0.00000  Uiso   1.00
C1033  C     0.90811   0.84194   0.53553   0.00000  Uiso   1.00
C1034  C     0.75151   0.89480   0.98350   0.00000  Uiso   1.00
C1035  C     0.93799   0.80792   0.50507   0.00000  Uiso   1.00
C1036  C     0.83381   0.84310   0.97032   0.00000  Uiso   1.00
C1037  C     0.85817   0.86311   0.51674   0.00000  Uiso   1.00
C1038  C     0.76892   0.77873   0.58478   0.00000  Uiso   1.00
C1039  C     0.96425   0.96313   0.88413   0.00000  Uiso   1.00
C1040  C     0.83087   0.90233   0.54336   0.00000  Uiso   1.00
C1041  C     0.86609   0.81132   0.93979   0.00000  Uiso   1.00
C1042  C     0.77845   0.91793   0.52678   0.00000  Uiso   1.00
C1043  C     0.91789   0.79486   0.95678   0.00000  Uiso   1.00
C1044  C     0.68953   0.98614   0.74772   0.00000  Uiso   1.00
C1045  C     0.97706   0.68050   0.75185   0.00000  Uiso   1.00
C1046  C     0.68783   0.83918   0.84143   0.00000  Uiso   1.00
H1047  H     0.75888   0.94819   0.54802   0.00000  Uiso   1.00
H1048  H     0.93395   0.99664   0.75587   0.00000  Uiso   1.00
H1049  H     0.82901   0.79131   0.71352   0.00000  Uiso   1.00
H1050  H     0.83765   0.87536   0.78647   0.00000  Uiso   1.00
H1051  H     0.70528   0.74667   0.62753   0.00000  Uiso   1.00
H1052  H     0.77463   0.78140   0.54480   0.00000  Uiso   1.00
H1053  H     0.79893   0.75105   0.59895   0.00000  Uiso   1.00
H1054  H     0.77936   0.81775   0.60429   0.00000  Uiso   1.00
H1055  H     0.92593   0.88708   0.88452   0.00000  Uiso   1.00
H1056  H     0.92227   0.97708   0.87278   0.00000  Uiso   1.00
H1057  H     0.99063   0.96035   0.85152   0.00000  Uiso   1.00
H1058  H     0.94104   0.76991   0.93262   0.00000  Uiso   1.00
H1059  H     0.98579   0.99210   0.91221   0.00000  Uiso   1.00
H1060  H     0.90234   0.87272   0.61041   0.00000  Uiso   1.00
H1061  H     0.76490   0.79916   0.89390   0.00000  Uiso   1.00
H1062  H     0.67809   0.94030   0.98837   0.00000  Uiso   1.00
H1063  H     0.67527   0.75901   0.50041   0.00000  Uiso   1.00
H1064  H     0.84983   0.92281   0.57654   0.00000  Uiso   1.00
H1065  H     0.85315   0.79958   0.90203   0.00000  Uiso   1.00
H1066  H     0.73266   0.66999   0.74375   0.00000  Uiso   1.00
N1067  N     0.81362   0.81883   0.73739   0.00000  Uiso   1.00
N1068  N     0.85305   0.84784   0.76260   0.00000  Uiso   1.00
N1069  N     0.71089   0.75989   0.59302   0.00000  Uiso   1.00
N1070  N     0.95567   0.91248   0.90425   0.00000  Uiso   1.00
O1071  O     0.96386   0.91298   0.75309   0.00000  Uiso   1.00
O1072  O     0.70281   0.75369   0.74690   0.00000  Uiso   1.00
O1073  O     0.72488   0.90368   0.74501   0.00000  Uiso   1.00
O1074  O     0.94178   0.76298   0.75498   0.00000  Uiso   1.00
O1075  O     0.96995   0.84063   0.82247   0.00000  Uiso   1.00
O1076  O     0.69672   0.82603   0.67753   0.00000  Uiso   1.00
O1077  O     0.73098   0.83134   0.81439   0.00000  Uiso   1.00
O1078  O     0.93569   0.83533   0.68561   0.00000  Uiso   1.00
Zn1079 Zn    0.93700   0.83954   0.75539   0.00000  Uiso   1.00
Zn1080 Zn    0.72967   0.82713   0.74460   0.00000  Uiso   1.00
loop_
_geom_bond_atom_site_label_1
_geom_bond_atom_site_label_2
_geom_bond_distance
_geom_bond_site_symmetry_2
_ccdc_geom_bond_type
C1     C24     1.402   .     S
C1     O53     1.289   .     A
C1     O171    1.275   1_455 S
C2     C4      1.459   .     S
C2     O58     1.302   .     A
C2     O116    1.289   .     S
C3     C9      1.389   .     A
C3     C7      1.419   .     A
C3     C26     1.464   .     S
C4     C10     1.390   .     A
C4     C68     1.417   .     S
C5     H42     1.085   .     S
C5     C14     1.400   .     A
C5     C7      1.398   .     A
C6     C15     1.399   .     A
C6     C68     1.397   .     S
C6     H103    1.085   .     S
C7     N170    1.424   1_455 S
C8     N49     1.424   .     S
C8     C124    1.417   1_455 S
C8     C126    1.397   1_455 S
C9     C11     1.394   .     A
C9     H41     1.079   .     S
C10    H40     1.078   .     S
C10    C13     1.395   .     A
C11    C16     1.416   .     A
C11    C14     1.415   .     A
C12    C25     1.402   .     S
C12    O54     1.289   .     A
C12    O112    1.275   .     S
C13    C15     1.417   .     A
C13    C17     1.416   .     A
C14    C562    1.391   .     S
C15    C563    1.390   1_554 S
C16    C21     1.416   .     A
C16    C557    1.415   .     S
C17    C20     1.416   .     A
C17    C556    1.415   1_554 S
C18    H34     1.111   .     S
C18    H33     1.110   .     S
C18    H32     1.110   .     S
C18    N49     1.445   .     S
C19    N50     1.446   .     S
C19    H39     1.111   .     S
C19    H36     1.110   .     S
C19    H37     1.110   .     S
C20    H44     1.078   .     S
C20    C22     1.387   .     A
C21    H45     1.078   .     S
C21    C23     1.386   .     A
C22    H27     1.084   .     S
C22    C554    1.391   1_554 S
C23    H38     1.084   .     S
C23    C555    1.390   .     S
C24    C325    1.339   1_455 S
C24    H226    1.088   .     S
C25    C444    1.339   1_545 S
C25    H388    1.088   1_545 S
C26    O57     1.303   .     A
C26    O175    1.291   1_455 S
H28    C205    1.088   .     S
H29    N47     1.029   .     S
H30    N48     1.029   .     S
H31    N49     1.030   .     S
H35    N50     1.028   .     S
H43    C126    1.085   1_455 S
H46    C384    1.088   1_545 S
N47    N48     1.289   .     D
N47    Zn60    2.018   .     S
N48    Zn59    2.018   .     S
N50    C67     1.424   .     S
O51    Zn59    1.950   .     S
O51    C61     1.275   .     S
O52    Zn60    1.950   .     S
O52    C132    1.275   1_455 S
O53    Zn60    1.977   .     S
O54    Zn59    1.977   .     S
O55    Zn59    1.949   .     S
O55    C86     1.291   .     S
O56    Zn60    1.949   .     S
O56    C122    1.289   1_455 S
O57    Zn60    1.898   .     S
O58    Zn59    1.898   .     S
C61    C84     1.402   .     S
C61    O113    1.289   .     A
C62    C64     1.459   .     S
C62    O118    1.302   .     A
C62    O176    1.289   .     S
C63    C69     1.389   .     A
C63    C67     1.419   .     A
C63    C86     1.464   .     S
C64    C70     1.390   .     A
C64    C128    1.417   .     S
C65    H102    1.085   .     S
C65    C74     1.400   .     A
C65    C67     1.398   .     A
C66    C75     1.399   .     A
C66    C128    1.397   .     S
C66    H163    1.085   .     S
C68    N109    1.424   .     S
C69    C71     1.394   .     A
C69    H101    1.079   .     S
C70    H100    1.078   .     S
C70    C73     1.395   .     A
C71    C76     1.416   .     A
C71    C74     1.415   .     A
C72    C85     1.402   .     S
C72    O114    1.289   .     A
C72    O172    1.275   .     S
C73    C75     1.417   .     A
C73    C77     1.416   .     A
C74    C622    1.391   .     S
C75    C623    1.390   1_554 S
C76    C81     1.416   .     A
C76    C617    1.415   .     S
C77    C80     1.416   .     A
C77    C616    1.415   1_554 S
C78    H94     1.111   .     S
C78    H93     1.110   .     S
C78    H92     1.110   .     S
C78    N109    1.445   .     S
C79    N110    1.446   .     S
C79    H99     1.111   .     S
C79    H96     1.110   .     S
C79    H97     1.110   .     S
C80    H104    1.078   .     S
C80    C82     1.387   .     A
C81    H105    1.078   .     S
C81    C83     1.386   .     A
C82    H87     1.084   .     S
C82    C614    1.391   1_554 S
C83    H98     1.084   .     S
C83    C615    1.390   .     S
C84    C205    1.339   .     S
C84    H286    1.088   .     S
C85    C504    1.339   1_545 S
C85    H448    1.088   1_545 S
C86    O117    1.303   .     A
H88    C265    1.088   .     S
H89    N107    1.029   .     S
H90    N108    1.029   .     S
H91    N109    1.030   .     S
H95    N110    1.028   .     S
H106   C444    1.088   1_545 S
N107   N108    1.289   .     D
N107   Zn120   2.018   .     S
N108   Zn119   2.018   .     S
N110   C127    1.424   .     S
O111   Zn119   1.950   .     S
O111   C121    1.275   .     S
O112   Zn120   1.950   .     S
O113   Zn120   1.977   .     S
O114   Zn119   1.977   .     S
O115   Zn119   1.949   .     S
O115   C146    1.291   .     S
O116   Zn120   1.949   .     S
O117   Zn120   1.898   .     S
O118   Zn119   1.898   .     S
C121   C144    1.402   .     S
C121   O173    1.289   .     A
C122   C124    1.459   .     S
C122   O178    1.302   .     A
C122   O56     1.289   1_655 S
C123   C129    1.389   .     A
C123   C127    1.419   .     A
C123   C146    1.464   .     S
C124   C130    1.390   .     A
C124   C8      1.417   1_655 S
C125   H162    1.085   .     S
C125   C134    1.400   .     A
C125   C127    1.398   .     A
C126   C135    1.399   .     A
C126   C8      1.397   1_655 S
C126   H43     1.085   1_655 S
C128   N169    1.424   .     S
C129   C131    1.394   .     A
C129   H161    1.079   .     S
C130   H160    1.078   .     S
C130   C133    1.395   .     A
C131   C136    1.416   .     A
C131   C134    1.415   .     A
C132   C145    1.402   .     S
C132   O174    1.289   .     A
C132   O52     1.275   1_655 S
C133   C135    1.417   .     A
C133   C137    1.416   .     A
C134   C682    1.391   .     S
C135   C683    1.390   1_554 S
C136   C141    1.416   .     A
C136   C677    1.415   .     S
C137   C140    1.416   .     A
C137   C676    1.415   1_554 S
C138   H154    1.111   .     S
C138   H153    1.110   .     S
C138   H152    1.110   .     S
C138   N169    1.445   .     S
C139   N170    1.446   .     S
C139   H159    1.111   .     S
C139   H156    1.110   .     S
C139   H157    1.110   .     S
C140   H164    1.078   .     S
C140   C142    1.387   .     A
C141   H165    1.078   .     S
C141   C143    1.386   .     A
C142   H147    1.084   .     S
C142   C674    1.391   1_554 S
C143   H158    1.084   .     S
C143   C675    1.390   .     S
C144   C265    1.339   .     S
C144   H346    1.088   .     S
C145   C384    1.339   1_645 S
C145   H508    1.088   1_545 S
C146   O177    1.303   .     A
H148   C325    1.088   .     S
H149   N167    1.029   .     S
H150   N168    1.029   .     S
H151   N169    1.030   .     S
H155   N170    1.028   .     S
H166   C504    1.088   1_545 S
N167   N168    1.289   .     D
N167   Zn180   2.018   .     S
N168   Zn179   2.018   .     S
N170   C7      1.424   1_655 S
O171   Zn179   1.950   .     S
O171   C1      1.275   1_655 S
O172   Zn180   1.950   .     S
O173   Zn180   1.977   .     S
O174   Zn179   1.977   .     S
O175   Zn179   1.949   .     S
O175   C26     1.291   1_655 S
O176   Zn180   1.949   .     S
O177   Zn180   1.898   .     S
O178   Zn179   1.898   .     S
C181   C204    1.402   .     S
C181   O233    1.289   .     A
C181   O351    1.275   1_455 S
C182   C184    1.459   .     S
C182   O238    1.302   .     A
C182   O296    1.289   .     S
C183   C189    1.389   .     A
C183   C187    1.419   .     A
C183   C206    1.464   .     S
C184   C190    1.390   .     A
C184   C248    1.417   .     S
C185   H222    1.085   .     S
C185   C194    1.400   .     A
C185   C187    1.398   .     A
C186   C195    1.399   .     A
C186   C248    1.397   .     S
C186   H283    1.085   .     S
C187   N350    1.424   1_455 S
C188   N229    1.424   .     S
C188   C304    1.417   1_455 S
C188   C306    1.397   1_455 S
C189   C191    1.394   .     A
C189   H221    1.079   .     S
C190   H220    1.078   .     S
C190   C193    1.395   .     A
C191   C196    1.416   .     A
C191   C194    1.415   .     A
C192   C205    1.402   .     S
C192   O234    1.289   .     A
C192   O292    1.275   .     S
C193   C195    1.417   .     A
C193   C197    1.416   .     A
C194   C742    1.391   .     S
C195   C743    1.390   1_554 S
C196   C201    1.416   .     A
C196   C737    1.415   .     S
C197   C200    1.416   .     A
C197   C736    1.415   1_554 S
C198   H214    1.111   .     S
C198   H213    1.110   .     S
C198   H212    1.110   .     S
C198   N229    1.445   .     S
C199   N230    1.446   .     S
C199   H219    1.111   .     S
C199   H216    1.110   .     S
C199   H217    1.110   .     S
C200   H224    1.078   .     S
C200   C202    1.387   .     A
C201   H225    1.078   .     S
C201   C203    1.386   .     A
C202   H207    1.084   .     S
C202   C734    1.391   1_554 S
C203   H218    1.084   .     S
C203   C735    1.390   .     S
C204   C505    1.339   1_455 S
C204   H406    1.088   .     S
C206   O237    1.303   .     A
C206   O355    1.291   1_455 S
H208   C385    1.088   .     S
H209   N227    1.029   .     S
H210   N228    1.029   .     S
H211   N229    1.030   .     S
H215   N230    1.028   .     S
H223   C306    1.085   1_455 S
N227   N228    1.289   .     D
N227   Zn240   2.018   .     S
N228   Zn239   2.018   .     S
N230   C247    1.424   .     S
O231   Zn239   1.950   .     S
O231   C241    1.275   .     S
O232   Zn240   1.950   .     S
O232   C312    1.275   1_455 S
O233   Zn240   1.977   .     S
O234   Zn239   1.977   .     S
O235   Zn239   1.949   .     S
O235   C266    1.291   .     S
O236   Zn240   1.949   .     S
O236   C302    1.289   1_455 S
O237   Zn240   1.898   .     S
O238   Zn239   1.898   .     S
C241   C264    1.402   .     S
C241   O293    1.289   .     A
C242   C244    1.459   .     S
C242   O298    1.302   .     A
C242   O356    1.289   .     S
C243   C249    1.389   .     A
C243   C247    1.419   .     A
C243   C266    1.464   .     S
C244   C250    1.390   .     A
C244   C308    1.417   .     S
C245   H282    1.085   .     S
C245   C254    1.400   .     A
C245   C247    1.398   .     A
C246   C255    1.399   .     A
C246   C308    1.397   .     S
C246   H343    1.085   .     S
C248   N289    1.424   .     S
C249   C251    1.394   .     A
C249   H281    1.079   .     S
C250   H280    1.078   .     S
C250   C253    1.395   .     A
C251   C256    1.416   .     A
C251   C254    1.415   .     A
C252   C265    1.402   .     S
C252   O294    1.289   .     A
C252   O352    1.275   .     S
C253   C255    1.417   .     A
C253   C257    1.416   .     A
C254   C802    1.391   .     S
C255   C803    1.390   1_554 S
C256   C261    1.416   .     A
C256   C797    1.415   .     S
C257   C260    1.416   .     A
C257   C796    1.415   1_554 S
C258   H274    1.111   .     S
C258   H273    1.110   .     S
C258   H272    1.110   .     S
C258   N289    1.445   .     S
C259   N290    1.446   .     S
C259   H279    1.111   .     S
C259   H276    1.110   .     S
C259   H277    1.110   .     S
C260   H284    1.078   .     S
C260   C262    1.387   .     A
C261   H285    1.078   .     S
C261   C263    1.386   .     A
C262   H267    1.084   .     S
C262   C794    1.391   1_554 S
C263   H278    1.084   .     S
C263   C795    1.390   .     S
C264   C385    1.339   .     S
C264   H466    1.088   .     S
C266   O297    1.303   .     A
H268   C445    1.088   .     S
H269   N287    1.029   .     S
H270   N288    1.029   .     S
H271   N289    1.030   .     S
H275   N290    1.028   .     S
N287   N288    1.289   .     D
N287   Zn300   2.018   .     S
N288   Zn299   2.018   .     S
N290   C307    1.424   .     S
O291   Zn299   1.950   .     S
O291   C301    1.275   .     S
O292   Zn300   1.950   .     S
O293   Zn300   1.977   .     S
O294   Zn299   1.977   .     S
O295   Zn299   1.949   .     S
O295   C326    1.291   .     S
O296   Zn300   1.949   .     S
O297   Zn300   1.898   .     S
O298   Zn299   1.898   .     S
C301   C324    1.402   .     S
C301   O353    1.289   .     A
C302   C304    1.459   .     S
C302   O358    1.302   .     A
C302   O236    1.289   1_655 S
C303   C309    1.389   .     A
C303   C307    1.419   .     A
C303   C326    1.464   .     S
C304   C310    1.390   .     A
C304   C188    1.417   1_655 S
C305   H342    1.085   .     S
C305   C314    1.400   .     A
C305   C307    1.398   .     A
C306   C315    1.399   .     A
C306   C188    1.397   1_655 S
C306   H223    1.085   1_655 S
C308   N349    1.424   .     S
C309   C311    1.394   .     A
C309   H341    1.079   .     S
C310   H340    1.078   .     S
C310   C313    1.395   .     A
C311   C316    1.416   .     A
C311   C314    1.415   .     A
C312   C325    1.402   .     S
C312   O354    1.289   .     A
C312   O232    1.275   1_655 S
C313   C315    1.417   .     A
C313   C317    1.416   .     A
C314   C862    1.391   .     S
C315   C863    1.390   1_554 S
C316   C321    1.416   .     A
C316   C857    1.415   .     S
C317   C320    1.416   .     A
C317   C856    1.415   1_554 S
C318   H334    1.111   .     S
C318   H333    1.110   .     S
C318   H332    1.110   .     S
C318   N349    1.445   .     S
C319   N350    1.446   .     S
C319   H339    1.111   .     S
C319   H336    1.110   .     S
C319   H337    1.110   .     S
C320   H344    1.078   .     S
C320   C322    1.387   .     A
C321   H345    1.078   .     S
C321   C323    1.386   .     A
C322   H327    1.084   .     S
C322   C854    1.391   1_554 S
C323   H338    1.084   .     S
C323   C855    1.390   .     S
C324   C445    1.339   .     S
C324   H526    1.088   .     S
C325   C24     1.339   1_655 S
C326   O357    1.303   .     A
H328   C505    1.088   .     S
H329   N347    1.029   .     S
H330   N348    1.029   .     S
H331   N349    1.030   .     S
H335   N350    1.028   .     S
N347   N348    1.289   .     D
N347   Zn360   2.018   .     S
N348   Zn359   2.018   .     S
N350   C187    1.424   1_655 S
O351   Zn359   1.950   .     S
O351   C181    1.275   1_655 S
O352   Zn360   1.950   .     S
O353   Zn360   1.977   .     S
O354   Zn359   1.977   .     S
O355   Zn359   1.949   .     S
O355   C206    1.291   1_655 S
O356   Zn360   1.949   .     S
O357   Zn360   1.898   .     S
O358   Zn359   1.898   .     S
C361   C384    1.402   .     S
C361   O413    1.289   .     A
C361   O531    1.275   1_455 S
C362   C364    1.459   .     S
C362   O418    1.302   .     A
C362   O476    1.289   .     S
C363   C369    1.389   .     A
C363   C367    1.419   .     A
C363   C386    1.464   .     S
C364   C370    1.390   .     A
C364   C428    1.417   .     S
C365   H402    1.085   .     S
C365   C374    1.400   .     A
C365   C367    1.398   .     A
C366   C375    1.399   .     A
C366   C428    1.397   .     S
C366   H463    1.085   .     S
C367   N530    1.424   1_455 S
C368   N409    1.424   .     S
C368   C484    1.417   1_455 S
C368   C486    1.397   1_455 S
C369   C371    1.394   .     A
C369   H401    1.079   .     S
C370   H400    1.078   .     S
C370   C373    1.395   .     A
C371   C376    1.416   .     A
C371   C374    1.415   .     A
C372   C385    1.402   .     S
C372   O414    1.289   .     A
C372   O472    1.275   .     S
C373   C375    1.417   .     A
C373   C377    1.416   .     A
C374   C922    1.391   .     S
C375   C923    1.390   1_554 S
C376   C381    1.416   .     A
C376   C917    1.415   .     S
C377   C380    1.416   .     A
C377   C916    1.415   1_554 S
C378   H394    1.111   .     S
C378   H393    1.110   .     S
C378   H392    1.110   .     S
C378   N409    1.445   .     S
C379   N410    1.446   .     S
C379   H399    1.111   .     S
C379   H396    1.110   .     S
C379   H397    1.110   .     S
C380   H404    1.078   .     S
C380   C382    1.387   .     A
C381   H405    1.078   .     S
C381   C383    1.386   .     A
C382   H387    1.084   .     S
C382   C914    1.391   1_554 S
C383   H398    1.084   .     S
C383   C915    1.390   .     S
C384   C145    1.339   1_465 S
C384   H46     1.088   1_565 S
C386   O417    1.303   .     A
C386   O535    1.291   1_455 S
H388   C25     1.088   1_565 S
H389   N407    1.029   .     S
H390   N408    1.029   .     S
H391   N409    1.030   .     S
H395   N410    1.028   .     S
H403   C486    1.085   1_455 S
N407   N408    1.289   .     D
N407   Zn420   2.018   .     S
N408   Zn419   2.018   .     S
N410   C427    1.424   .     S
O411   Zn419   1.950   .     S
O411   C421    1.275   .     S
O412   Zn420   1.950   .     S
O412   C492    1.275   1_455 S
O413   Zn420   1.977   .     S
O414   Zn419   1.977   .     S
O415   Zn419   1.949   .     S
O415   C446    1.291   .     S
O416   Zn420   1.949   .     S
O416   C482    1.289   1_455 S
O417   Zn420   1.898   .     S
O418   Zn419   1.898   .     S
C421   C444    1.402   .     S
C421   O473    1.289   .     A
C422   C424    1.459   .     S
C422   O478    1.302   .     A
C422   O536    1.289   .     S
C423   C429    1.389   .     A
C423   C427    1.419   .     A
C423   C446    1.464   .     S
C424   C430    1.390   .     A
C424   C488    1.417   .     S
C425   H462    1.085   .     S
C425   C434    1.400   .     A
C425   C427    1.398   .     A
C426   C435    1.399   .     A
C426   C488    1.397   .     S
C426   H523    1.085   .     S
C428   N469    1.424   .     S
C429   C431    1.394   .     A
C429   H461    1.079   .     S
C430   H460    1.078   .     S
C430   C433    1.395   .     A
C431   C436    1.416   .     A
C431   C434    1.415   .     A
C432   C445    1.402   .     S
C432   O474    1.289   .     A
C432   O532    1.275   .     S
C433   C435    1.417   .     A
C433   C437    1.416   .     A
C434   C982    1.391   .     S
C435   C983    1.390   1_554 S
C436   C441    1.416   .     A
C436   C977    1.415   .     S
C437   C440    1.416   .     A
C437   C976    1.415   1_554 S
C438   H454    1.111   .     S
C438   H453    1.110   .     S
C438   H452    1.110   .     S
C438   N469    1.445   .     S
C439   N470    1.446   .     S
C439   H459    1.111   .     S
C439   H456    1.110   .     S
C439   H457    1.110   .     S
C440   H464    1.078   .     S
C440   C442    1.387   .     A
C441   H465    1.078   .     S
C441   C443    1.386   .     A
C442   H447    1.084   .     S
C442   C974    1.391   1_554 S
C443   H458    1.084   .     S
C443   C975    1.390   .     S
C444   C25     1.339   1_565 S
C444   H106    1.088   1_565 S
C446   O477    1.303   .     A
H448   C85     1.088   1_565 S
H449   N467    1.029   .     S
H450   N468    1.029   .     S
H451   N469    1.030   .     S
H455   N470    1.028   .     S
N467   N468    1.289   .     D
N467   Zn480   2.018   .     S
N468   Zn479   2.018   .     S
N470   C487    1.424   .     S
O471   Zn479   1.950   .     S
O471   C481    1.275   .     S
O472   Zn480   1.950   .     S
O473   Zn480   1.977   .     S
O474   Zn479   1.977   .     S
O475   Zn479   1.949   .     S
O475   C506    1.291   .     S
O476   Zn480   1.949   .     S
O477   Zn480   1.898   .     S
O478   Zn479   1.898   .     S
C481   C504    1.402   .     S
C481   O533    1.289   .     A
C482   C484    1.459   .     S
C482   O538    1.302   .     A
C482   O416    1.289   1_655 S
C483   C489    1.389   .     A
C483   C487    1.419   .     A
C483   C506    1.464   .     S
C484   C490    1.390   .     A
C484   C368    1.417   1_655 S
C485   H522    1.085   .     S
C485   C494    1.400   .     A
C485   C487    1.398   .     A
C486   C495    1.399   .     A
C486   C368    1.397   1_655 S
C486   H403    1.085   1_655 S
C488   N529    1.424   .     S
C489   C491    1.394   .     A
C489   H521    1.079   .     S
C490   H520    1.078   .     S
C490   C493    1.395   .     A
C491   C496    1.416   .     A
C491   C494    1.415   .     A
C492   C505    1.402   .     S
C492   O534    1.289   .     A
C492   O412    1.275   1_655 S
C493   C495    1.417   .     A
C493   C497    1.416   .     A
C494   C1042   1.391   .     S
C495   C1043   1.390   1_554 S
C496   C501    1.416   .     A
C496   C1037   1.415   .     S
C497   C500    1.416   .     A
C497   C1036   1.415   1_554 S
C498   H514    1.111   .     S
C498   H513    1.110   .     S
C498   H512    1.110   .     S
C498   N529    1.445   .     S
C499   N530    1.446   .     S
C499   H519    1.111   .     S
C499   H516    1.110   .     S
C499   H517    1.110   .     S
C500   H524    1.078   .     S
C500   C502    1.387   .     A
C501   H525    1.078   .     S
C501   C503    1.386   .     A
C502   H507    1.084   .     S
C502   C1034   1.391   1_554 S
C503   H518    1.084   .     S
C503   C1035   1.390   .     S
C504   C85     1.339   1_565 S
C504   H166    1.088   1_565 S
C505   C204    1.339   1_655 S
C506   O537    1.303   .     A
H508   C145    1.088   1_565 S
H509   N527    1.029   .     S
H510   N528    1.029   .     S
H511   N529    1.030   .     S
H515   N530    1.028   .     S
N527   N528    1.289   .     D
N527   Zn540   2.018   .     S
N528   Zn539   2.018   .     S
N530   C367    1.424   1_655 S
O531   Zn539   1.950   .     S
O531   C361    1.275   1_655 S
O532   Zn540   1.950   .     S
O533   Zn540   1.977   .     S
O534   Zn539   1.977   .     S
O535   Zn539   1.949   .     S
O535   C386    1.291   1_655 S
O536   Zn540   1.949   .     S
O537   Zn540   1.898   .     S
O538   Zn539   1.898   .     S
C541   C564    1.402   .     S
C541   O593    1.289   .     A
C541   O711    1.275   1_455 S
C542   C544    1.459   .     S
C542   O598    1.302   .     A
C542   O656    1.289   .     S
C543   C549    1.389   .     A
C543   C547    1.419   .     A
C543   C566    1.464   .     S
C544   C550    1.390   .     A
C544   C608    1.417   .     S
C545   H582    1.085   .     S
C545   C554    1.400   .     A
C545   C547    1.398   .     A
C546   C555    1.399   .     A
C546   C608    1.397   .     S
C546   H643    1.085   .     S
C547   N710    1.424   1_455 S
C548   N589    1.424   .     S
C548   C664    1.417   1_455 S
C548   C666    1.397   1_455 S
C549   C551    1.394   .     A
C549   H581    1.079   .     S
C550   H580    1.078   .     S
C550   C553    1.395   .     A
C551   C556    1.416   .     A
C551   C554    1.415   .     A
C552   C565    1.402   .     S
C552   O594    1.289   .     A
C552   O652    1.275   .     S
C553   C555    1.417   .     A
C553   C557    1.416   .     A
C554   C22     1.391   1_556 S
C556   C561    1.416   .     A
C556   C17     1.415   1_556 S
C557   C560    1.416   .     A
C558   H574    1.111   .     S
C558   H573    1.110   .     S
C558   H572    1.110   .     S
C558   N589    1.445   .     S
C559   N590    1.446   .     S
C559   H579    1.111   .     S
C559   H576    1.110   .     S
C559   H577    1.110   .     S
C560   H584    1.078   .     S
C560   C562    1.387   .     A
C561   H585    1.078   .     S
C561   C563    1.386   .     A
C562   H567    1.084   .     S
C563   H578    1.084   .     S
C563   C15     1.390   1_556 S
C564   C865    1.339   1_455 S
C564   H766    1.088   .     S
C565   C984    1.339   1_545 S
C565   H928    1.088   1_545 S
C566   O597    1.303   .     A
C566   O715    1.291   1_455 S
H568   C745    1.088   .     S
H569   N587    1.029   .     S
H570   N588    1.029   .     S
H571   N589    1.030   .     S
H575   N590    1.028   .     S
H583   C666    1.085   1_455 S
H586   C924    1.088   1_545 S
N587   N588    1.289   .     D
N587   Zn600   2.018   .     S
N588   Zn599   2.018   .     S
N590   C607    1.424   .     S
O591   Zn599   1.950   .     S
O591   C601    1.275   .     S
O592   Zn600   1.950   .     S
O592   C672    1.275   1_455 S
O593   Zn600   1.977   .     S
O594   Zn599   1.977   .     S
O595   Zn599   1.949   .     S
O595   C626    1.291   .     S
O596   Zn600   1.949   .     S
O596   C662    1.289   1_455 S
O597   Zn600   1.898   .     S
O598   Zn599   1.898   .     S
C601   C624    1.402   .     S
C601   O653    1.289   .     A
C602   C604    1.459   .     S
C602   O658    1.302   .     A
C602   O716    1.289   .     S
C603   C609    1.389   .     A
C603   C607    1.419   .     A
C603   C626    1.464   .     S
C604   C610    1.390   .     A
C604   C668    1.417   .     S
C605   H642    1.085   .     S
C605   C614    1.400   .     A
C605   C607    1.398   .     A
C606   C615    1.399   .     A
C606   C668    1.397   .     S
C606   H703    1.085   .     S
C608   N649    1.424   .     S
C609   C611    1.394   .     A
C609   H641    1.079   .     S
C610   H640    1.078   .     S
C610   C613    1.395   .     A
C611   C616    1.416   .     A
C611   C614    1.415   .     A
C612   C625    1.402   .     S
C612   O654    1.289   .     A
C612   O712    1.275   .     S
C613   C615    1.417   .     A
C613   C617    1.416   .     A
C614   C82     1.391   1_556 S
C616   C621    1.416   .     A
C616   C77     1.415   1_556 S
C617   C620    1.416   .     A
C618   H634    1.111   .     S
C618   H633    1.110   .     S
C618   H632    1.110   .     S
C618   N649    1.445   .     S
C619   N650    1.446   .     S
C619   H639    1.111   .     S
C619   H636    1.110   .     S
C619   H637    1.110   .     S
C620   H644    1.078   .     S
C620   C622    1.387   .     A
C621   H645    1.078   .     S
C621   C623    1.386   .     A
C622   H627    1.084   .     S
C623   H638    1.084   .     S
C623   C75     1.390   1_556 S
C624   C745    1.339   .     S
C624   H826    1.088   .     S
C625   C1044   1.339   1_545 S
C625   H988    1.088   1_545 S
C626   O657    1.303   .     A
H628   C805    1.088   .     S
H629   N647    1.029   .     S
H630   N648    1.029   .     S
H631   N649    1.030   .     S
H635   N650    1.028   .     S
H646   C984    1.088   1_545 S
N647   N648    1.289   .     D
N647   Zn660   2.018   .     S
N648   Zn659   2.018   .     S
N650   C667    1.424   .     S
O651   Zn659   1.950   .     S
O651   C661    1.275   .     S
O652   Zn660   1.950   .     S
O653   Zn660   1.977   .     S
O654   Zn659   1.977   .     S
O655   Zn659   1.949   .     S
O655   C686    1.291   .     S
O656   Zn660   1.949   .     S
O657   Zn660   1.898   .     S
O658   Zn659   1.898   .     S
C661   C684    1.402   .     S
C661   O713    1.289   .     A
C662   C664    1.459   .     S
C662   O718    1.302   .     A
C662   O596    1.289   1_655 S
C663   C669    1.389   .     A
C663   C667    1.419   .     A
C663   C686    1.464   .     S
C664   C670    1.390   .     A
C664   C548    1.417   1_655 S
C665   H702    1.085   .     S
C665   C674    1.400   .     A
C665   C667    1.398   .     A
C666   C675    1.399   .     A
C666   C548    1.397   1_655 S
C666   H583    1.085   1_655 S
C668   N709    1.424   .     S
C669   C671    1.394   .     A
C669   H701    1.079   .     S
C670   H700    1.078   .     S
C670   C673    1.395   .     A
C671   C676    1.416   .     A
C671   C674    1.415   .     A
C672   C685    1.402   .     S
C672   O714    1.289   .     A
C672   O592    1.275   1_655 S
C673   C675    1.417   .     A
C673   C677    1.416   .     A
C674   C142    1.391   1_556 S
C676   C681    1.416   .     A
C676   C137    1.415   1_556 S
C677   C680    1.416   .     A
C678   H694    1.111   .     S
C678   H693    1.110   .     S
C678   H692    1.110   .     S
C678   N709    1.445   .     S
C679   N710    1.446   .     S
C679   H699    1.111   .     S
C679   H696    1.110   .     S
C679   H697    1.110   .     S
C680   H704    1.078   .     S
C680   C682    1.387   .     A
C681   H705    1.078   .     S
C681   C683    1.386   .     A
C682   H687    1.084   .     S
C683   H698    1.084   .     S
C683   C135    1.390   1_556 S
C684   C805    1.339   .     S
C684   H886    1.088   .     S
C685   C924    1.339   1_645 S
C685   H1048   1.088   1_545 S
C686   O717    1.303   .     A
H688   C865    1.088   .     S
H689   N707    1.029   .     S
H690   N708    1.029   .     S
H691   N709    1.030   .     S
H695   N710    1.028   .     S
H706   C1044   1.088   1_545 S
N707   N708    1.289   .     D
N707   Zn720   2.018   .     S
N708   Zn719   2.018   .     S
N710   C547    1.424   1_655 S
O711   Zn719   1.950   .     S
O711   C541    1.275   1_655 S
O712   Zn720   1.950   .     S
O713   Zn720   1.977   .     S
O714   Zn719   1.977   .     S
O715   Zn719   1.949   .     S
O715   C566    1.291   1_655 S
O716   Zn720   1.949   .     S
O717   Zn720   1.898   .     S
O718   Zn719   1.898   .     S
C721   C744    1.402   .     S
C721   O773    1.289   .     A
C721   O891    1.275   1_455 S
C722   C724    1.459   .     S
C722   O778    1.302   .     A
C722   O836    1.289   .     S
C723   C729    1.389   .     A
C723   C727    1.419   .     A
C723   C746    1.464   .     S
C724   C730    1.390   .     A
C724   C788    1.417   .     S
C725   H762    1.085   .     S
C725   C734    1.400   .     A
C725   C727    1.398   .     A
C726   C735    1.399   .     A
C726   C788    1.397   .     S
C726   H823    1.085   .     S
C727   N890    1.424   1_455 S
C728   N769    1.424   .     S
C728   C844    1.417   1_455 S
C728   C846    1.397   1_455 S
C729   C731    1.394   .     A
C729   H761    1.079   .     S
C730   H760    1.078   .     S
C730   C733    1.395   .     A
C731   C736    1.416   .     A
C731   C734    1.415   .     A
C732   C745    1.402   .     S
C732   O774    1.289   .     A
C732   O832    1.275   .     S
C733   C735    1.417   .     A
C733   C737    1.416   .     A
C734   C202    1.391   1_556 S
C736   C741    1.416   .     A
C736   C197    1.415   1_556 S
C737   C740    1.416   .     A
C738   H754    1.111   .     S
C738   H753    1.110   .     S
C738   H752    1.110   .     S
C738   N769    1.445   .     S
C739   N770    1.446   .     S
C739   H759    1.111   .     S
C739   H756    1.110   .     S
C739   H757    1.110   .     S
C740   H764    1.078   .     S
C740   C742    1.387   .     A
C741   H765    1.078   .     S
C741   C743    1.386   .     A
C742   H747    1.084   .     S
C743   H758    1.084   .     S
C743   C195    1.390   1_556 S
C744   C1045   1.339   1_455 S
C744   H946    1.088   .     S
C746   O777    1.303   .     A
C746   O895    1.291   1_455 S
H748   C925    1.088   .     S
H749   N767    1.029   .     S
H750   N768    1.029   .     S
H751   N769    1.030   .     S
H755   N770    1.028   .     S
H763   C846    1.085   1_455 S
N767   N768    1.289   .     D
N767   Zn780   2.018   .     S
N768   Zn779   2.018   .     S
N770   C787    1.424   .     S
O771   Zn779   1.950   .     S
O771   C781    1.275   .     S
O772   Zn780   1.950   .     S
O772   C852    1.275   1_455 S
O773   Zn780   1.977   .     S
O774   Zn779   1.977   .     S
O775   Zn779   1.949   .     S
O775   C806    1.291   .     S
O776   Zn780   1.949   .     S
O776   C842    1.289   1_455 S
O777   Zn780   1.898   .     S
O778   Zn779   1.898   .     S
C781   C804    1.402   .     S
C781   O833    1.289   .     A
C782   C784    1.459   .     S
C782   O838    1.302   .     A
C782   O896    1.289   .     S
C783   C789    1.389   .     A
C783   C787    1.419   .     A
C783   C806    1.464   .     S
C784   C790    1.390   .     A
C784   C848    1.417   .     S
C785   H822    1.085   .     S
C785   C794    1.400   .     A
C785   C787    1.398   .     A
C786   C795    1.399   .     A
C786   C848    1.397   .     S
C786   H883    1.085   .     S
C788   N829    1.424   .     S
C789   C791    1.394   .     A
C789   H821    1.079   .     S
C790   H820    1.078   .     S
C790   C793    1.395   .     A
C791   C796    1.416   .     A
C791   C794    1.415   .     A
C792   C805    1.402   .     S
C792   O834    1.289   .     A
C792   O892    1.275   .     S
C793   C795    1.417   .     A
C793   C797    1.416   .     A
C794   C262    1.391   1_556 S
C796   C801    1.416   .     A
C796   C257    1.415   1_556 S
C797   C800    1.416   .     A
C798   H814    1.111   .     S
C798   H813    1.110   .     S
C798   H812    1.110   .     S
C798   N829    1.445   .     S
C799   N830    1.446   .     S
C799   H819    1.111   .     S
C799   H816    1.110   .     S
C799   H817    1.110   .     S
C800   H824    1.078   .     S
C800   C802    1.387   .     A
C801   H825    1.078   .     S
C801   C803    1.386   .     A
C802   H807    1.084   .     S
C803   H818    1.084   .     S
C803   C255    1.390   1_556 S
C804   C925    1.339   .     S
C804   H1006   1.088   .     S
C806   O837    1.303   .     A
H808   C985    1.088   .     S
H809   N827    1.029   .     S
H810   N828    1.029   .     S
H811   N829    1.030   .     S
H815   N830    1.028   .     S
N827   N828    1.289   .     D
N827   Zn840   2.018   .     S
N828   Zn839   2.018   .     S
N830   C847    1.424   .     S
O831   Zn839   1.950   .     S
O831   C841    1.275   .     S
O832   Zn840   1.950   .     S
O833   Zn840   1.977   .     S
O834   Zn839   1.977   .     S
O835   Zn839   1.949   .     S
O835   C866    1.291   .     S
O836   Zn840   1.949   .     S
O837   Zn840   1.898   .     S
O838   Zn839   1.898   .     S
C841   C864    1.402   .     S
C841   O893    1.289   .     A
C842   C844    1.459   .     S
C842   O898    1.302   .     A
C842   O776    1.289   1_655 S
C843   C849    1.389   .     A
C843   C847    1.419   .     A
C843   C866    1.464   .     S
C844   C850    1.390   .     A
C844   C728    1.417   1_655 S
C845   H882    1.085   .     S
C845   C854    1.400   .     A
C845   C847    1.398   .     A
C846   C855    1.399   .     A
C846   C728    1.397   1_655 S
C846   H763    1.085   1_655 S
C848   N889    1.424   .     S
C849   C851    1.394   .     A
C849   H881    1.079   .     S
C850   H880    1.078   .     S
C850   C853    1.395   .     A
C851   C856    1.416   .     A
C851   C854    1.415   .     A
C852   C865    1.402   .     S
C852   O894    1.289   .     A
C852   O772    1.275   1_655 S
C853   C855    1.417   .     A
C853   C857    1.416   .     A
C854   C322    1.391   1_556 S
C856   C861    1.416   .     A
C856   C317    1.415   1_556 S
C857   C860    1.416   .     A
C858   H874    1.111   .     S
C858   H873    1.110   .     S
C858   H872    1.110   .     S
C858   N889    1.445   .     S
C859   N890    1.446   .     S
C859   H879    1.111   .     S
C859   H876    1.110   .     S
C859   H877    1.110   .     S
C860   H884    1.078   .     S
C860   C862    1.387   .     A
C861   H885    1.078   .     S
C861   C863    1.386   .     A
C862   H867    1.084   .     S
C863   H878    1.084   .     S
C863   C315    1.390   1_556 S
C864   C985    1.339   .     S
C864   H1066   1.088   .     S
C865   C564    1.339   1_655 S
C866   O897    1.303   .     A
H868   C1045   1.088   .     S
H869   N887    1.029   .     S
H870   N888    1.029   .     S
H871   N889    1.030   .     S
H875   N890    1.028   .     S
N887   N888    1.289   .     D
N887   Zn900   2.018   .     S
N888   Zn899   2.018   .     S
N890   C727    1.424   1_655 S
O891   Zn899   1.950   .     S
O891   C721    1.275   1_655 S
O892   Zn900   1.950   .     S
O893   Zn900   1.977   .     S
O894   Zn899   1.977   .     S
O895   Zn899   1.949   .     S
O895   C746    1.291   1_655 S
O896   Zn900   1.949   .     S
O897   Zn900   1.898   .     S
O898   Zn899   1.898   .     S
C901   C924    1.402   .     S
C901   O953    1.289   .     A
C901   O1071   1.275   1_455 S
C902   C904    1.459   .     S
C902   O958    1.302   .     A
C902   O1016   1.289   .     S
C903   C909    1.389   .     A
C903   C907    1.419   .     A
C903   C926    1.464   .     S
C904   C910    1.390   .     A
C904   C968    1.417   .     S
C905   H942    1.085   .     S
C905   C914    1.400   .     A
C905   C907    1.398   .     A
C906   C915    1.399   .     A
C906   C968    1.397   .     S
C906   H1003   1.085   .     S
C907   N1070   1.424   1_455 S
C908   N949    1.424   .     S
C908   C1024   1.417   1_455 S
C908   C1026   1.397   1_455 S
C909   C911    1.394   .     A
C909   H941    1.079   .     S
C910   H940    1.078   .     S
C910   C913    1.395   .     A
C911   C916    1.416   .     A
C911   C914    1.415   .     A
C912   C925    1.402   .     S
C912   O954    1.289   .     A
C912   O1012   1.275   .     S
C913   C915    1.417   .     A
C913   C917    1.416   .     A
C914   C382    1.391   1_556 S
C916   C921    1.416   .     A
C916   C377    1.415   1_556 S
C917   C920    1.416   .     A
C918   H934    1.111   .     S
C918   H933    1.110   .     S
C918   H932    1.110   .     S
C918   N949    1.445   .     S
C919   N950    1.446   .     S
C919   H939    1.111   .     S
C919   H936    1.110   .     S
C919   H937    1.110   .     S
C920   H944    1.078   .     S
C920   C922    1.387   .     A
C921   H945    1.078   .     S
C921   C923    1.386   .     A
C922   H927    1.084   .     S
C923   H938    1.084   .     S
C923   C375    1.390   1_556 S
C924   C685    1.339   1_465 S
C924   H586    1.088   1_565 S
C926   O957    1.303   .     A
C926   O1075   1.291   1_455 S
H928   C565    1.088   1_565 S
H929   N947    1.029   .     S
H930   N948    1.029   .     S
H931   N949    1.030   .     S
H935   N950    1.028   .     S
H943   C1026   1.085   1_455 S
N947   N948    1.289   .     D
N947   Zn960   2.018   .     S
N948   Zn959   2.018   .     S
N950   C967    1.424   .     S
O951   Zn959   1.950   .     S
O951   C961    1.275   .     S
O952   Zn960   1.950   .     S
O952   C1032   1.275   1_455 S
O953   Zn960   1.977   .     S
O954   Zn959   1.977   .     S
O955   Zn959   1.949   .     S
O955   C986    1.291   .     S
O956   Zn960   1.949   .     S
O956   C1022   1.289   1_455 S
O957   Zn960   1.898   .     S
O958   Zn959   1.898   .     S
C961   C984    1.402   .     S
C961   O1013   1.289   .     A
C962   C964    1.459   .     S
C962   O1018   1.302   .     A
C962   O1076   1.289   .     S
C963   C969    1.389   .     A
C963   C967    1.419   .     A
C963   C986    1.464   .     S
C964   C970    1.390   .     A
C964   C1028   1.417   .     S
C965   H1002   1.085   .     S
C965   C974    1.400   .     A
C965   C967    1.398   .     A
C966   C975    1.399   .     A
C966   C1028   1.397   .     S
C966   H1063   1.085   .     S
C968   N1009   1.424   .     S
C969   C971    1.394   .     A
C969   H1001   1.079   .     S
C970   H1000   1.078   .     S
C970   C973    1.395   .     A
C971   C976    1.416   .     A
C971   C974    1.415   .     A
C972   C985    1.402   .     S
C972   O1014   1.289   .     A
C972   O1072   1.275   .     S
C973   C975    1.417   .     A
C973   C977    1.416   .     A
C974   C442    1.391   1_556 S
C976   C981    1.416   .     A
C976   C437    1.415   1_556 S
C977   C980    1.416   .     A
C978   H994    1.111   .     S
C978   H993    1.110   .     S
C978   H992    1.110   .     S
C978   N1009   1.445   .     S
C979   N1010   1.446   .     S
C979   H999    1.111   .     S
C979   H996    1.110   .     S
C979   H997    1.110   .     S
C980   H1004   1.078   .     S
C980   C982    1.387   .     A
C981   H1005   1.078   .     S
C981   C983    1.386   .     A
C982   H987    1.084   .     S
C983   H998    1.084   .     S
C983   C435    1.390   1_556 S
C984   C565    1.339   1_565 S
C984   H646    1.088   1_565 S
C986   O1017   1.303   .     A
H988   C625    1.088   1_565 S
H989   N1007   1.029   .     S
H990   N1008   1.029   .     S
H991   N1009   1.030   .     S
H995   N1010   1.028   .     S
N1007  N1008   1.289   .     D
N1007  Zn1020  2.018   .     S
N1008  Zn1019  2.018   .     S
N1010  C1027   1.424   .     S
O1011  Zn1019  1.950   .     S
O1011  C1021   1.275   .     S
O1012  Zn1020  1.950   .     S
O1013  Zn1020  1.977   .     S
O1014  Zn1019  1.977   .     S
O1015  Zn1019  1.949   .     S
O1015  C1046   1.291   .     S
O1016  Zn1020  1.949   .     S
O1017  Zn1020  1.898   .     S
O1018  Zn1019  1.898   .     S
C1021  C1044   1.402   .     S
C1021  O1073   1.289   .     A
C1022  C1024   1.459   .     S
C1022  O1078   1.302   .     A
C1022  O956    1.289   1_655 S
C1023  C1029   1.389   .     A
C1023  C1027   1.419   .     A
C1023  C1046   1.464   .     S
C1024  C1030   1.390   .     A
C1024  C908    1.417   1_655 S
C1025  H1062   1.085   .     S
C1025  C1034   1.400   .     A
C1025  C1027   1.398   .     A
C1026  C1035   1.399   .     A
C1026  C908    1.397   1_655 S
C1026  H943    1.085   1_655 S
C1028  N1069   1.424   .     S
C1029  C1031   1.394   .     A
C1029  H1061   1.079   .     S
C1030  H1060   1.078   .     S
C1030  C1033   1.395   .     A
C1031  C1036   1.416   .     A
C1031  C1034   1.415   .     A
C1032  C1045   1.402   .     S
C1032  O1074   1.289   .     A
C1032  O952    1.275   1_655 S
C1033  C1035   1.417   .     A
C1033  C1037   1.416   .     A
C1034  C502    1.391   1_556 S
C1036  C1041   1.416   .     A
C1036  C497    1.415   1_556 S
C1037  C1040   1.416   .     A
C1038  H1054   1.111   .     S
C1038  H1053   1.110   .     S
C1038  H1052   1.110   .     S
C1038  N1069   1.445   .     S
C1039  N1070   1.446   .     S
C1039  H1059   1.111   .     S
C1039  H1056   1.110   .     S
C1039  H1057   1.110   .     S
C1040  H1064   1.078   .     S
C1040  C1042   1.387   .     A
C1041  H1065   1.078   .     S
C1041  C1043   1.386   .     A
C1042  H1047   1.084   .     S
C1043  H1058   1.084   .     S
C1043  C495    1.390   1_556 S
C1044  C625    1.339   1_565 S
C1044  H706    1.088   1_565 S
C1045  C744    1.339   1_655 S
C1046  O1077   1.303   .     A
H1048  C685    1.088   1_565 S
H1049  N1067   1.029   .     S
H1050  N1068   1.029   .     S
H1051  N1069   1.030   .     S
H1055  N1070   1.028   .     S
N1067  N1068   1.289   .     D
N1067  Zn1080  2.018   .     S
N1068  Zn1079  2.018   .     S
N1070  C907    1.424   1_655 S
O1071  Zn1079  1.950   .     S
O1071  C901    1.275   1_655 S
O1072  Zn1080  1.950   .     S
O1073  Zn1080  1.977   .     S
O1074  Zn1079  1.977   .     S
O1075  Zn1079  1.949   .     S
O1075  C926    1.291   1_655 S
O1076  Zn1080  1.949   .     S
O1077  Zn1080  1.898   .     S
O1078  Zn1079  1.898   .     S
