data_str_m2_o1_o1_pcu_sym.68
_audit_creation_date              2020-01-03
_audit_creation_method            'Materials Studio'
_symmetry_space_group_name_H-M    'P1'
_symmetry_Int_Tables_number       1
_symmetry_cell_setting            triclinic
loop_
_symmetry_equiv_pos_as_xyz
  x,y,z
_cell_length_a                    31.6929
_cell_length_b                    30.0068
_cell_length_c                    28.9250
_cell_angle_alpha                 89.9996
_cell_angle_beta                  89.4923
_cell_angle_gamma                 90.0000
loop_
_atom_site_label
_atom_site_type_symbol
_atom_site_fract_x
_atom_site_fract_y
_atom_site_fract_z
_atom_site_U_iso_or_equiv
_atom_site_adp_type
_atom_site_occupancy
C1     C     0.05884   0.18985   0.16643   0.00000  Uiso   1.00
C2     C     0.00021   0.28959   0.30817   0.00000  Uiso   1.00
C3     C     0.49979   0.28959   0.02516   0.00000  Uiso   1.00
C4     C     0.49772   0.21128   0.30866   0.00000  Uiso   1.00
C5     C     0.25228   0.46128   0.02468   0.00000  Uiso   1.00
C6     C     0.25021   0.03959   0.30817   0.00000  Uiso   1.00
C7     C     0.24979   0.03959   0.02516   0.00000  Uiso   1.00
C8     C     0.24772   0.46128   0.30866   0.00000  Uiso   1.00
C9     C     0.40901   0.12241   0.13122   0.00000  Uiso   1.00
C10    C     0.10973   0.35744   0.20736   0.00000  Uiso   1.00
C11    C     0.12336   0.34544   0.12633   0.00000  Uiso   1.00
C12    C     0.43879   0.30734   0.16702   0.00000  Uiso   1.00
C13    C     0.38254   0.14685   0.20528   0.00000  Uiso   1.00
C14    C     0.09099   0.12241   0.20211   0.00000  Uiso   1.00
C15    C     0.39027   0.35743   0.12597   0.00000  Uiso   1.00
C16    C     0.37664   0.34544   0.20701   0.00000  Uiso   1.00
C17    C     0.11746   0.14685   0.12806   0.00000  Uiso   1.00
C18    C     0.15901   0.37241   0.13122   0.00000  Uiso   1.00
C19    C     0.35973   0.10744   0.20736   0.00000  Uiso   1.00
C20    C     0.37336   0.09544   0.12633   0.00000  Uiso   1.00
C21    C     0.13254   0.39685   0.20527   0.00000  Uiso   1.00
C22    C     0.34099   0.37241   0.20211   0.00000  Uiso   1.00
C23    C     0.44116   0.18985   0.16690   0.00000  Uiso   1.00
C24    C     0.14027   0.10744   0.12597   0.00000  Uiso   1.00
C25    C     0.12664   0.09544   0.20701   0.00000  Uiso   1.00
C26    C     0.36746   0.39685   0.12806   0.00000  Uiso   1.00
C27    C     0.09784   0.33747   0.16587   0.00000  Uiso   1.00
C28    C     0.41000   0.15360   0.16745   0.00000  Uiso   1.00
C29    C     0.40216   0.33746   0.16747   0.00000  Uiso   1.00
C30    C     0.09000   0.15360   0.16588   0.00000  Uiso   1.00
C31    C     0.34784   0.08747   0.16587   0.00000  Uiso   1.00
C32    C     0.16000   0.40360   0.16745   0.00000  Uiso   1.00
C33    C     0.15216   0.08747   0.16747   0.00000  Uiso   1.00
C34    C     0.06121   0.30734   0.16632   0.00000  Uiso   1.00
C35    C     0.34000   0.40360   0.16588   0.00000  Uiso   1.00
C36    C     0.04429   0.14918   0.03089   0.00000  Uiso   1.00
C37    C     0.02490   0.36026   0.28766   0.00000  Uiso   1.00
C38    C     0.47510   0.36026   0.04568   0.00000  Uiso   1.00
C39    C     0.45571   0.14918   0.30245   0.00000  Uiso   1.00
C40    C     0.29428   0.39917   0.03089   0.00000  Uiso   1.00
C41    C     0.27490   0.11026   0.28766   0.00000  Uiso   1.00
C42    C     0.22510   0.11026   0.04568   0.00000  Uiso   1.00
C43    C     0.20570   0.39919   0.30244   0.00000  Uiso   1.00
C44    C     0.30884   0.43985   0.16643   0.00000  Uiso   1.00
C45    C     0.18879   0.05734   0.16702   0.00000  Uiso   1.00
C46    C     0.19116   0.43985   0.16690   0.00000  Uiso   1.00
C47    C     0.31121   0.05734   0.16632   0.00000  Uiso   1.00
C48    C     0.00228   0.21128   0.02468   0.00000  Uiso   1.00
Cu49   Cu    0.00000   0.25000   0.21355   0.00000  Uiso   1.00
Cu50   Cu    0.00000   0.25000   0.11978   0.00000  Uiso   1.00
Cu51   Cu    0.25000   0.00000   0.21355   0.00000  Uiso   1.00
Cu52   Cu    0.25000   0.00000   0.11978   0.00000  Uiso   1.00
H53    H     0.05965   0.13249   0.06021   0.00000  Uiso   1.00
H54    H     0.44034   0.13249   0.27313   0.00000  Uiso   1.00
H55    H     0.43197   0.17095   0.31992   0.00000  Uiso   1.00
H56    H     0.46526   0.12241   0.32649   0.00000  Uiso   1.00
H57    H     0.30965   0.38248   0.06020   0.00000  Uiso   1.00
H58    H     0.31802   0.42094   0.01340   0.00000  Uiso   1.00
H59    H     0.28472   0.37240   0.00686   0.00000  Uiso   1.00
H60    H     0.28952   0.11565   0.25344   0.00000  Uiso   1.00
H61    H     0.29966   0.10204   0.31325   0.00000  Uiso   1.00
H62    H     0.26065   0.14284   0.29664   0.00000  Uiso   1.00
H63    H     0.21048   0.11564   0.07990   0.00000  Uiso   1.00
H64    H     0.06803   0.17096   0.01342   0.00000  Uiso   1.00
H65    H     0.20035   0.10204   0.02008   0.00000  Uiso   1.00
H66    H     0.23935   0.14284   0.03670   0.00000  Uiso   1.00
H67    H     0.19034   0.38249   0.27313   0.00000  Uiso   1.00
H68    H     0.18196   0.42098   0.31990   0.00000  Uiso   1.00
H69    H     0.21523   0.37243   0.32650   0.00000  Uiso   1.00
H70    H     0.03475   0.12242   0.00684   0.00000  Uiso   1.00
H71    H     0.03952   0.36565   0.25344   0.00000  Uiso   1.00
H72    H     0.04965   0.35204   0.31325   0.00000  Uiso   1.00
H73    H     0.01065   0.39284   0.29664   0.00000  Uiso   1.00
H74    H     0.46048   0.36564   0.07990   0.00000  Uiso   1.00
H75    H     0.45035   0.35204   0.02008   0.00000  Uiso   1.00
H76    H     0.48935   0.39284   0.03670   0.00000  Uiso   1.00
I77    I     0.46622   0.09818   0.10237   0.00000  Uiso   1.00
I78    I     0.37416   0.06413   0.26320   0.00000  Uiso   1.00
I79    I     0.36292   0.06815   0.05969   0.00000  Uiso   1.00
I80    I     0.11530   0.44650   0.25378   0.00000  Uiso   1.00
I81    I     0.28379   0.34819   0.23097   0.00000  Uiso   1.00
I82    I     0.12584   0.06413   0.07014   0.00000  Uiso   1.00
I83    I     0.13709   0.06816   0.27365   0.00000  Uiso   1.00
I84    I     0.38467   0.44648   0.07952   0.00000  Uiso   1.00
I85    I     0.12416   0.31414   0.26319   0.00000  Uiso   1.00
I86    I     0.11291   0.31815   0.05969   0.00000  Uiso   1.00
I87    I     0.36532   0.19649   0.25380   0.00000  Uiso   1.00
I88    I     0.03378   0.09818   0.23097   0.00000  Uiso   1.00
I89    I     0.37584   0.31413   0.07014   0.00000  Uiso   1.00
I90    I     0.38709   0.31816   0.27365   0.00000  Uiso   1.00
I91    I     0.13469   0.19649   0.07954   0.00000  Uiso   1.00
I92    I     0.21622   0.34818   0.10238   0.00000  Uiso   1.00
N93    N     0.00000   0.25000   0.28402   0.00000  Uiso   1.00
N94    N     0.00000   0.25000   0.04931   0.00000  Uiso   1.00
N95    N     0.25000   0.00000   0.28402   0.00000  Uiso   1.00
N96    N     0.25000   0.00000   0.04931   0.00000  Uiso   1.00
O97    O     0.04508   0.20491   0.20625   0.00000  Uiso   1.00
O98    O     0.20491   0.04509   0.12709   0.00000  Uiso   1.00
O99    O     0.20491   0.04509   0.20625   0.00000  Uiso   1.00
O100   O     0.29508   0.45491   0.12709   0.00000  Uiso   1.00
O101   O     0.20491   0.45491   0.12709   0.00000  Uiso   1.00
O102   O     0.29508   0.04509   0.20625   0.00000  Uiso   1.00
O103   O     0.29508   0.04509   0.12709   0.00000  Uiso   1.00
O104   O     0.20491   0.45491   0.20625   0.00000  Uiso   1.00
O105   O     0.00867   0.17221   0.04853   0.00000  Uiso   1.00
O106   O     0.49260   0.32827   0.28327   0.00000  Uiso   1.00
O107   O     0.00740   0.32827   0.05006   0.00000  Uiso   1.00
O108   O     0.45491   0.29509   0.12709   0.00000  Uiso   1.00
O109   O     0.49133   0.17222   0.28480   0.00000  Uiso   1.00
O110   O     0.25867   0.42221   0.04853   0.00000  Uiso   1.00
O111   O     0.24260   0.07827   0.28327   0.00000  Uiso   1.00
O112   O     0.25740   0.07827   0.05006   0.00000  Uiso   1.00
O113   O     0.24132   0.42222   0.28480   0.00000  Uiso   1.00
O114   O     0.45491   0.29509   0.20625   0.00000  Uiso   1.00
O115   O     0.04508   0.20491   0.12709   0.00000  Uiso   1.00
O116   O     0.45491   0.20491   0.12709   0.00000  Uiso   1.00
O117   O     0.04508   0.29509   0.20625   0.00000  Uiso   1.00
O118   O     0.04508   0.29509   0.12709   0.00000  Uiso   1.00
O119   O     0.45491   0.20491   0.20625   0.00000  Uiso   1.00
O120   O     0.29508   0.45491   0.20625   0.00000  Uiso   1.00
C121   C     0.55884   0.18985   0.16643   0.00000  Uiso   1.00
C122   C     0.50021   0.28959   0.30817   0.00000  Uiso   1.00
C123   C     0.99979   0.28959   0.02516   0.00000  Uiso   1.00
C124   C     0.99772   0.21128   0.30866   0.00000  Uiso   1.00
C125   C     0.75228   0.46128   0.02468   0.00000  Uiso   1.00
C126   C     0.75021   0.03959   0.30817   0.00000  Uiso   1.00
C127   C     0.74979   0.03959   0.02516   0.00000  Uiso   1.00
C128   C     0.74772   0.46128   0.30866   0.00000  Uiso   1.00
C129   C     0.90901   0.12241   0.13122   0.00000  Uiso   1.00
C130   C     0.60973   0.35744   0.20736   0.00000  Uiso   1.00
C131   C     0.62336   0.34544   0.12633   0.00000  Uiso   1.00
C132   C     0.93879   0.30734   0.16702   0.00000  Uiso   1.00
C133   C     0.88254   0.14685   0.20528   0.00000  Uiso   1.00
C134   C     0.59099   0.12241   0.20211   0.00000  Uiso   1.00
C135   C     0.89027   0.35743   0.12597   0.00000  Uiso   1.00
C136   C     0.87664   0.34544   0.20701   0.00000  Uiso   1.00
C137   C     0.61746   0.14685   0.12806   0.00000  Uiso   1.00
C138   C     0.65901   0.37241   0.13122   0.00000  Uiso   1.00
C139   C     0.85973   0.10744   0.20736   0.00000  Uiso   1.00
C140   C     0.87336   0.09544   0.12633   0.00000  Uiso   1.00
C141   C     0.63254   0.39685   0.20527   0.00000  Uiso   1.00
C142   C     0.84099   0.37241   0.20211   0.00000  Uiso   1.00
C143   C     0.94116   0.18985   0.16690   0.00000  Uiso   1.00
C144   C     0.64027   0.10744   0.12597   0.00000  Uiso   1.00
C145   C     0.62664   0.09544   0.20701   0.00000  Uiso   1.00
C146   C     0.86746   0.39685   0.12806   0.00000  Uiso   1.00
C147   C     0.59784   0.33747   0.16587   0.00000  Uiso   1.00
C148   C     0.91000   0.15360   0.16745   0.00000  Uiso   1.00
C149   C     0.90216   0.33746   0.16747   0.00000  Uiso   1.00
C150   C     0.59000   0.15360   0.16588   0.00000  Uiso   1.00
C151   C     0.84784   0.08747   0.16587   0.00000  Uiso   1.00
C152   C     0.66000   0.40360   0.16745   0.00000  Uiso   1.00
C153   C     0.65216   0.08747   0.16747   0.00000  Uiso   1.00
C154   C     0.56121   0.30734   0.16632   0.00000  Uiso   1.00
C155   C     0.84000   0.40360   0.16588   0.00000  Uiso   1.00
C156   C     0.54429   0.14918   0.03089   0.00000  Uiso   1.00
C157   C     0.52490   0.36026   0.28766   0.00000  Uiso   1.00
C158   C     0.97510   0.36026   0.04568   0.00000  Uiso   1.00
C159   C     0.95571   0.14918   0.30245   0.00000  Uiso   1.00
C160   C     0.79428   0.39917   0.03089   0.00000  Uiso   1.00
C161   C     0.77490   0.11026   0.28766   0.00000  Uiso   1.00
C162   C     0.72510   0.11026   0.04568   0.00000  Uiso   1.00
C163   C     0.70570   0.39919   0.30244   0.00000  Uiso   1.00
C164   C     0.80884   0.43985   0.16643   0.00000  Uiso   1.00
C165   C     0.68879   0.05734   0.16702   0.00000  Uiso   1.00
C166   C     0.69116   0.43985   0.16690   0.00000  Uiso   1.00
C167   C     0.81121   0.05734   0.16632   0.00000  Uiso   1.00
C168   C     0.50228   0.21128   0.02468   0.00000  Uiso   1.00
Cu169  Cu    0.50000   0.25000   0.21355   0.00000  Uiso   1.00
Cu170  Cu    0.50000   0.25000   0.11978   0.00000  Uiso   1.00
Cu171  Cu    0.75000   0.00000   0.21355   0.00000  Uiso   1.00
Cu172  Cu    0.75000   0.00000   0.11978   0.00000  Uiso   1.00
H173   H     0.55965   0.13249   0.06021   0.00000  Uiso   1.00
H174   H     0.94034   0.13249   0.27313   0.00000  Uiso   1.00
H175   H     0.93197   0.17095   0.31992   0.00000  Uiso   1.00
H176   H     0.96526   0.12241   0.32649   0.00000  Uiso   1.00
H177   H     0.80965   0.38248   0.06020   0.00000  Uiso   1.00
H178   H     0.81802   0.42094   0.01340   0.00000  Uiso   1.00
H179   H     0.78472   0.37240   0.00686   0.00000  Uiso   1.00
H180   H     0.78952   0.11565   0.25344   0.00000  Uiso   1.00
H181   H     0.79966   0.10204   0.31325   0.00000  Uiso   1.00
H182   H     0.76065   0.14284   0.29664   0.00000  Uiso   1.00
H183   H     0.71048   0.11564   0.07990   0.00000  Uiso   1.00
H184   H     0.56803   0.17096   0.01342   0.00000  Uiso   1.00
H185   H     0.70035   0.10204   0.02008   0.00000  Uiso   1.00
H186   H     0.73935   0.14284   0.03670   0.00000  Uiso   1.00
H187   H     0.69034   0.38249   0.27313   0.00000  Uiso   1.00
H188   H     0.68196   0.42098   0.31990   0.00000  Uiso   1.00
H189   H     0.71523   0.37243   0.32650   0.00000  Uiso   1.00
H190   H     0.53475   0.12242   0.00684   0.00000  Uiso   1.00
H191   H     0.53952   0.36565   0.25344   0.00000  Uiso   1.00
H192   H     0.54965   0.35204   0.31325   0.00000  Uiso   1.00
H193   H     0.51065   0.39284   0.29664   0.00000  Uiso   1.00
H194   H     0.96048   0.36564   0.07990   0.00000  Uiso   1.00
H195   H     0.95035   0.35204   0.02008   0.00000  Uiso   1.00
H196   H     0.98935   0.39284   0.03670   0.00000  Uiso   1.00
I197   I     0.96622   0.09818   0.10237   0.00000  Uiso   1.00
I198   I     0.87416   0.06413   0.26320   0.00000  Uiso   1.00
I199   I     0.86292   0.06815   0.05969   0.00000  Uiso   1.00
I200   I     0.61530   0.44650   0.25378   0.00000  Uiso   1.00
I201   I     0.78379   0.34819   0.23097   0.00000  Uiso   1.00
I202   I     0.62584   0.06413   0.07014   0.00000  Uiso   1.00
I203   I     0.63709   0.06816   0.27365   0.00000  Uiso   1.00
I204   I     0.88467   0.44648   0.07952   0.00000  Uiso   1.00
I205   I     0.62416   0.31414   0.26319   0.00000  Uiso   1.00
I206   I     0.61291   0.31815   0.05969   0.00000  Uiso   1.00
I207   I     0.86532   0.19649   0.25380   0.00000  Uiso   1.00
I208   I     0.53378   0.09818   0.23097   0.00000  Uiso   1.00
I209   I     0.87584   0.31413   0.07014   0.00000  Uiso   1.00
I210   I     0.88709   0.31816   0.27365   0.00000  Uiso   1.00
I211   I     0.63469   0.19649   0.07954   0.00000  Uiso   1.00
I212   I     0.71622   0.34818   0.10238   0.00000  Uiso   1.00
N213   N     0.50000   0.25000   0.28402   0.00000  Uiso   1.00
N214   N     0.50000   0.25000   0.04931   0.00000  Uiso   1.00
N215   N     0.75000   0.00000   0.28402   0.00000  Uiso   1.00
N216   N     0.75000   0.00000   0.04931   0.00000  Uiso   1.00
O217   O     0.54508   0.20491   0.20625   0.00000  Uiso   1.00
O218   O     0.70491   0.04509   0.12709   0.00000  Uiso   1.00
O219   O     0.70491   0.04509   0.20625   0.00000  Uiso   1.00
O220   O     0.79508   0.45491   0.12709   0.00000  Uiso   1.00
O221   O     0.70491   0.45491   0.12709   0.00000  Uiso   1.00
O222   O     0.79508   0.04509   0.20625   0.00000  Uiso   1.00
O223   O     0.79508   0.04509   0.12709   0.00000  Uiso   1.00
O224   O     0.70491   0.45491   0.20625   0.00000  Uiso   1.00
O225   O     0.50867   0.17221   0.04853   0.00000  Uiso   1.00
O226   O     0.99260   0.32827   0.28327   0.00000  Uiso   1.00
O227   O     0.50740   0.32827   0.05006   0.00000  Uiso   1.00
O228   O     0.95491   0.29509   0.12709   0.00000  Uiso   1.00
O229   O     0.99133   0.17222   0.28480   0.00000  Uiso   1.00
O230   O     0.75867   0.42221   0.04853   0.00000  Uiso   1.00
O231   O     0.74260   0.07827   0.28327   0.00000  Uiso   1.00
O232   O     0.75740   0.07827   0.05006   0.00000  Uiso   1.00
O233   O     0.74132   0.42222   0.28480   0.00000  Uiso   1.00
O234   O     0.95491   0.29509   0.20625   0.00000  Uiso   1.00
O235   O     0.54508   0.20491   0.12709   0.00000  Uiso   1.00
O236   O     0.95491   0.20491   0.12709   0.00000  Uiso   1.00
O237   O     0.54508   0.29509   0.20625   0.00000  Uiso   1.00
O238   O     0.54508   0.29509   0.12709   0.00000  Uiso   1.00
O239   O     0.95491   0.20491   0.20625   0.00000  Uiso   1.00
O240   O     0.79508   0.45491   0.20625   0.00000  Uiso   1.00
C241   C     0.05884   0.68985   0.16643   0.00000  Uiso   1.00
C242   C     0.00021   0.78959   0.30817   0.00000  Uiso   1.00
C243   C     0.49979   0.78959   0.02516   0.00000  Uiso   1.00
C244   C     0.49772   0.71128   0.30866   0.00000  Uiso   1.00
C245   C     0.25228   0.96128   0.02468   0.00000  Uiso   1.00
C246   C     0.25021   0.53959   0.30817   0.00000  Uiso   1.00
C247   C     0.24979   0.53959   0.02516   0.00000  Uiso   1.00
C248   C     0.24772   0.96128   0.30866   0.00000  Uiso   1.00
C249   C     0.40901   0.62241   0.13122   0.00000  Uiso   1.00
C250   C     0.10973   0.85744   0.20736   0.00000  Uiso   1.00
C251   C     0.12336   0.84544   0.12633   0.00000  Uiso   1.00
C252   C     0.43879   0.80734   0.16702   0.00000  Uiso   1.00
C253   C     0.38254   0.64685   0.20528   0.00000  Uiso   1.00
C254   C     0.09099   0.62241   0.20211   0.00000  Uiso   1.00
C255   C     0.39027   0.85743   0.12597   0.00000  Uiso   1.00
C256   C     0.37664   0.84544   0.20701   0.00000  Uiso   1.00
C257   C     0.11746   0.64685   0.12806   0.00000  Uiso   1.00
C258   C     0.15901   0.87241   0.13122   0.00000  Uiso   1.00
C259   C     0.35973   0.60744   0.20736   0.00000  Uiso   1.00
C260   C     0.37336   0.59544   0.12633   0.00000  Uiso   1.00
C261   C     0.13254   0.89685   0.20527   0.00000  Uiso   1.00
C262   C     0.34099   0.87241   0.20211   0.00000  Uiso   1.00
C263   C     0.44116   0.68985   0.16690   0.00000  Uiso   1.00
C264   C     0.14027   0.60744   0.12597   0.00000  Uiso   1.00
C265   C     0.12664   0.59544   0.20701   0.00000  Uiso   1.00
C266   C     0.36746   0.89685   0.12806   0.00000  Uiso   1.00
C267   C     0.09784   0.83747   0.16587   0.00000  Uiso   1.00
C268   C     0.41000   0.65360   0.16745   0.00000  Uiso   1.00
C269   C     0.40216   0.83746   0.16747   0.00000  Uiso   1.00
C270   C     0.09000   0.65360   0.16588   0.00000  Uiso   1.00
C271   C     0.34784   0.58747   0.16587   0.00000  Uiso   1.00
C272   C     0.16000   0.90360   0.16745   0.00000  Uiso   1.00
C273   C     0.15216   0.58747   0.16747   0.00000  Uiso   1.00
C274   C     0.06121   0.80734   0.16632   0.00000  Uiso   1.00
C275   C     0.34000   0.90360   0.16588   0.00000  Uiso   1.00
C276   C     0.04429   0.64918   0.03089   0.00000  Uiso   1.00
C277   C     0.02490   0.86026   0.28766   0.00000  Uiso   1.00
C278   C     0.47510   0.86026   0.04568   0.00000  Uiso   1.00
C279   C     0.45571   0.64918   0.30245   0.00000  Uiso   1.00
C280   C     0.29428   0.89917   0.03089   0.00000  Uiso   1.00
C281   C     0.27490   0.61026   0.28766   0.00000  Uiso   1.00
C282   C     0.22510   0.61026   0.04568   0.00000  Uiso   1.00
C283   C     0.20570   0.89919   0.30244   0.00000  Uiso   1.00
C284   C     0.30884   0.93985   0.16643   0.00000  Uiso   1.00
C285   C     0.18879   0.55734   0.16702   0.00000  Uiso   1.00
C286   C     0.19116   0.93985   0.16690   0.00000  Uiso   1.00
C287   C     0.31121   0.55734   0.16632   0.00000  Uiso   1.00
C288   C     0.00228   0.71128   0.02468   0.00000  Uiso   1.00
Cu289  Cu    0.00000   0.75000   0.21355   0.00000  Uiso   1.00
Cu290  Cu    0.00000   0.75000   0.11978   0.00000  Uiso   1.00
Cu291  Cu    0.25000   0.50000   0.21355   0.00000  Uiso   1.00
Cu292  Cu    0.25000   0.50000   0.11978   0.00000  Uiso   1.00
H293   H     0.05965   0.63249   0.06021   0.00000  Uiso   1.00
H294   H     0.44034   0.63249   0.27313   0.00000  Uiso   1.00
H295   H     0.43197   0.67095   0.31992   0.00000  Uiso   1.00
H296   H     0.46526   0.62241   0.32649   0.00000  Uiso   1.00
H297   H     0.30965   0.88248   0.06020   0.00000  Uiso   1.00
H298   H     0.31802   0.92094   0.01340   0.00000  Uiso   1.00
H299   H     0.28472   0.87240   0.00686   0.00000  Uiso   1.00
H300   H     0.28952   0.61565   0.25344   0.00000  Uiso   1.00
H301   H     0.29966   0.60204   0.31325   0.00000  Uiso   1.00
H302   H     0.26065   0.64284   0.29664   0.00000  Uiso   1.00
H303   H     0.21048   0.61564   0.07990   0.00000  Uiso   1.00
H304   H     0.06803   0.67096   0.01342   0.00000  Uiso   1.00
H305   H     0.20035   0.60204   0.02008   0.00000  Uiso   1.00
H306   H     0.23935   0.64284   0.03670   0.00000  Uiso   1.00
H307   H     0.19034   0.88249   0.27313   0.00000  Uiso   1.00
H308   H     0.18196   0.92098   0.31990   0.00000  Uiso   1.00
H309   H     0.21523   0.87243   0.32650   0.00000  Uiso   1.00
H310   H     0.03475   0.62242   0.00684   0.00000  Uiso   1.00
H311   H     0.03952   0.86565   0.25344   0.00000  Uiso   1.00
H312   H     0.04965   0.85204   0.31325   0.00000  Uiso   1.00
H313   H     0.01065   0.89284   0.29664   0.00000  Uiso   1.00
H314   H     0.46048   0.86564   0.07990   0.00000  Uiso   1.00
H315   H     0.45035   0.85204   0.02008   0.00000  Uiso   1.00
H316   H     0.48935   0.89284   0.03670   0.00000  Uiso   1.00
I317   I     0.46622   0.59818   0.10237   0.00000  Uiso   1.00
I318   I     0.37416   0.56413   0.26320   0.00000  Uiso   1.00
I319   I     0.36292   0.56815   0.05969   0.00000  Uiso   1.00
I320   I     0.11530   0.94650   0.25378   0.00000  Uiso   1.00
I321   I     0.28379   0.84819   0.23097   0.00000  Uiso   1.00
I322   I     0.12584   0.56413   0.07014   0.00000  Uiso   1.00
I323   I     0.13709   0.56816   0.27365   0.00000  Uiso   1.00
I324   I     0.38467   0.94648   0.07952   0.00000  Uiso   1.00
I325   I     0.12416   0.81414   0.26319   0.00000  Uiso   1.00
I326   I     0.11291   0.81815   0.05969   0.00000  Uiso   1.00
I327   I     0.36532   0.69649   0.25380   0.00000  Uiso   1.00
I328   I     0.03378   0.59818   0.23097   0.00000  Uiso   1.00
I329   I     0.37584   0.81413   0.07014   0.00000  Uiso   1.00
I330   I     0.38709   0.81816   0.27365   0.00000  Uiso   1.00
I331   I     0.13469   0.69649   0.07954   0.00000  Uiso   1.00
I332   I     0.21622   0.84818   0.10238   0.00000  Uiso   1.00
N333   N     0.00000   0.75000   0.28402   0.00000  Uiso   1.00
N334   N     0.00000   0.75000   0.04931   0.00000  Uiso   1.00
N335   N     0.25000   0.50000   0.28402   0.00000  Uiso   1.00
N336   N     0.25000   0.50000   0.04931   0.00000  Uiso   1.00
O337   O     0.04508   0.70491   0.20625   0.00000  Uiso   1.00
O338   O     0.20491   0.54509   0.12709   0.00000  Uiso   1.00
O339   O     0.20491   0.54509   0.20625   0.00000  Uiso   1.00
O340   O     0.29508   0.95491   0.12709   0.00000  Uiso   1.00
O341   O     0.20491   0.95491   0.12709   0.00000  Uiso   1.00
O342   O     0.29508   0.54509   0.20625   0.00000  Uiso   1.00
O343   O     0.29508   0.54509   0.12709   0.00000  Uiso   1.00
O344   O     0.20491   0.95491   0.20625   0.00000  Uiso   1.00
O345   O     0.00867   0.67221   0.04853   0.00000  Uiso   1.00
O346   O     0.49260   0.82827   0.28327   0.00000  Uiso   1.00
O347   O     0.00740   0.82827   0.05006   0.00000  Uiso   1.00
O348   O     0.45491   0.79509   0.12709   0.00000  Uiso   1.00
O349   O     0.49133   0.67222   0.28480   0.00000  Uiso   1.00
O350   O     0.25867   0.92221   0.04853   0.00000  Uiso   1.00
O351   O     0.24260   0.57827   0.28327   0.00000  Uiso   1.00
O352   O     0.25740   0.57827   0.05006   0.00000  Uiso   1.00
O353   O     0.24132   0.92222   0.28480   0.00000  Uiso   1.00
O354   O     0.45491   0.79509   0.20625   0.00000  Uiso   1.00
O355   O     0.04508   0.70491   0.12709   0.00000  Uiso   1.00
O356   O     0.45491   0.70491   0.12709   0.00000  Uiso   1.00
O357   O     0.04508   0.79509   0.20625   0.00000  Uiso   1.00
O358   O     0.04508   0.79509   0.12709   0.00000  Uiso   1.00
O359   O     0.45491   0.70491   0.20625   0.00000  Uiso   1.00
O360   O     0.29508   0.95491   0.20625   0.00000  Uiso   1.00
C361   C     0.55884   0.68985   0.16643   0.00000  Uiso   1.00
C362   C     0.50021   0.78959   0.30817   0.00000  Uiso   1.00
C363   C     0.99979   0.78959   0.02516   0.00000  Uiso   1.00
C364   C     0.99772   0.71128   0.30866   0.00000  Uiso   1.00
C365   C     0.75228   0.96128   0.02468   0.00000  Uiso   1.00
C366   C     0.75021   0.53959   0.30817   0.00000  Uiso   1.00
C367   C     0.74979   0.53959   0.02516   0.00000  Uiso   1.00
C368   C     0.74772   0.96128   0.30866   0.00000  Uiso   1.00
C369   C     0.90901   0.62241   0.13122   0.00000  Uiso   1.00
C370   C     0.60973   0.85744   0.20736   0.00000  Uiso   1.00
C371   C     0.62336   0.84544   0.12633   0.00000  Uiso   1.00
C372   C     0.93879   0.80734   0.16702   0.00000  Uiso   1.00
C373   C     0.88254   0.64685   0.20528   0.00000  Uiso   1.00
C374   C     0.59099   0.62241   0.20211   0.00000  Uiso   1.00
C375   C     0.89027   0.85743   0.12597   0.00000  Uiso   1.00
C376   C     0.87664   0.84544   0.20701   0.00000  Uiso   1.00
C377   C     0.61746   0.64685   0.12806   0.00000  Uiso   1.00
C378   C     0.65901   0.87241   0.13122   0.00000  Uiso   1.00
C379   C     0.85973   0.60744   0.20736   0.00000  Uiso   1.00
C380   C     0.87336   0.59544   0.12633   0.00000  Uiso   1.00
C381   C     0.63254   0.89685   0.20527   0.00000  Uiso   1.00
C382   C     0.84099   0.87241   0.20211   0.00000  Uiso   1.00
C383   C     0.94116   0.68985   0.16690   0.00000  Uiso   1.00
C384   C     0.64027   0.60744   0.12597   0.00000  Uiso   1.00
C385   C     0.62664   0.59544   0.20701   0.00000  Uiso   1.00
C386   C     0.86746   0.89685   0.12806   0.00000  Uiso   1.00
C387   C     0.59784   0.83747   0.16587   0.00000  Uiso   1.00
C388   C     0.91000   0.65360   0.16745   0.00000  Uiso   1.00
C389   C     0.90216   0.83746   0.16747   0.00000  Uiso   1.00
C390   C     0.59000   0.65360   0.16588   0.00000  Uiso   1.00
C391   C     0.84784   0.58747   0.16587   0.00000  Uiso   1.00
C392   C     0.66000   0.90360   0.16745   0.00000  Uiso   1.00
C393   C     0.65216   0.58747   0.16747   0.00000  Uiso   1.00
C394   C     0.56121   0.80734   0.16632   0.00000  Uiso   1.00
C395   C     0.84000   0.90360   0.16588   0.00000  Uiso   1.00
C396   C     0.54429   0.64918   0.03089   0.00000  Uiso   1.00
C397   C     0.52490   0.86026   0.28766   0.00000  Uiso   1.00
C398   C     0.97510   0.86026   0.04568   0.00000  Uiso   1.00
C399   C     0.95571   0.64918   0.30245   0.00000  Uiso   1.00
C400   C     0.79428   0.89917   0.03089   0.00000  Uiso   1.00
C401   C     0.77490   0.61026   0.28766   0.00000  Uiso   1.00
C402   C     0.72510   0.61026   0.04568   0.00000  Uiso   1.00
C403   C     0.70570   0.89919   0.30244   0.00000  Uiso   1.00
C404   C     0.80884   0.93985   0.16643   0.00000  Uiso   1.00
C405   C     0.68879   0.55734   0.16702   0.00000  Uiso   1.00
C406   C     0.69116   0.93985   0.16690   0.00000  Uiso   1.00
C407   C     0.81121   0.55734   0.16632   0.00000  Uiso   1.00
C408   C     0.50228   0.71128   0.02468   0.00000  Uiso   1.00
Cu409  Cu    0.50000   0.75000   0.21355   0.00000  Uiso   1.00
Cu410  Cu    0.50000   0.75000   0.11978   0.00000  Uiso   1.00
Cu411  Cu    0.75000   0.50000   0.21355   0.00000  Uiso   1.00
Cu412  Cu    0.75000   0.50000   0.11978   0.00000  Uiso   1.00
H413   H     0.55965   0.63249   0.06021   0.00000  Uiso   1.00
H414   H     0.94034   0.63249   0.27313   0.00000  Uiso   1.00
H415   H     0.93197   0.67095   0.31992   0.00000  Uiso   1.00
H416   H     0.96526   0.62241   0.32649   0.00000  Uiso   1.00
H417   H     0.80965   0.88248   0.06020   0.00000  Uiso   1.00
H418   H     0.81802   0.92094   0.01340   0.00000  Uiso   1.00
H419   H     0.78472   0.87240   0.00686   0.00000  Uiso   1.00
H420   H     0.78952   0.61565   0.25344   0.00000  Uiso   1.00
H421   H     0.79966   0.60204   0.31325   0.00000  Uiso   1.00
H422   H     0.76065   0.64284   0.29664   0.00000  Uiso   1.00
H423   H     0.71048   0.61564   0.07990   0.00000  Uiso   1.00
H424   H     0.56803   0.67096   0.01342   0.00000  Uiso   1.00
H425   H     0.70035   0.60204   0.02008   0.00000  Uiso   1.00
H426   H     0.73935   0.64284   0.03670   0.00000  Uiso   1.00
H427   H     0.69034   0.88249   0.27313   0.00000  Uiso   1.00
H428   H     0.68196   0.92098   0.31990   0.00000  Uiso   1.00
H429   H     0.71523   0.87243   0.32650   0.00000  Uiso   1.00
H430   H     0.53475   0.62242   0.00684   0.00000  Uiso   1.00
H431   H     0.53952   0.86565   0.25344   0.00000  Uiso   1.00
H432   H     0.54965   0.85204   0.31325   0.00000  Uiso   1.00
H433   H     0.51065   0.89284   0.29664   0.00000  Uiso   1.00
H434   H     0.96048   0.86564   0.07990   0.00000  Uiso   1.00
H435   H     0.95035   0.85204   0.02008   0.00000  Uiso   1.00
H436   H     0.98935   0.89284   0.03670   0.00000  Uiso   1.00
I437   I     0.96622   0.59818   0.10237   0.00000  Uiso   1.00
I438   I     0.87416   0.56413   0.26320   0.00000  Uiso   1.00
I439   I     0.86292   0.56815   0.05969   0.00000  Uiso   1.00
I440   I     0.61530   0.94650   0.25378   0.00000  Uiso   1.00
I441   I     0.78379   0.84819   0.23097   0.00000  Uiso   1.00
I442   I     0.62584   0.56413   0.07014   0.00000  Uiso   1.00
I443   I     0.63709   0.56816   0.27365   0.00000  Uiso   1.00
I444   I     0.88467   0.94648   0.07952   0.00000  Uiso   1.00
I445   I     0.62416   0.81414   0.26319   0.00000  Uiso   1.00
I446   I     0.61291   0.81815   0.05969   0.00000  Uiso   1.00
I447   I     0.86532   0.69649   0.25380   0.00000  Uiso   1.00
I448   I     0.53378   0.59818   0.23097   0.00000  Uiso   1.00
I449   I     0.87584   0.81413   0.07014   0.00000  Uiso   1.00
I450   I     0.88709   0.81816   0.27365   0.00000  Uiso   1.00
I451   I     0.63469   0.69649   0.07954   0.00000  Uiso   1.00
I452   I     0.71622   0.84818   0.10238   0.00000  Uiso   1.00
N453   N     0.50000   0.75000   0.28402   0.00000  Uiso   1.00
N454   N     0.50000   0.75000   0.04931   0.00000  Uiso   1.00
N455   N     0.75000   0.50000   0.28402   0.00000  Uiso   1.00
N456   N     0.75000   0.50000   0.04931   0.00000  Uiso   1.00
O457   O     0.54508   0.70491   0.20625   0.00000  Uiso   1.00
O458   O     0.70491   0.54509   0.12709   0.00000  Uiso   1.00
O459   O     0.70491   0.54509   0.20625   0.00000  Uiso   1.00
O460   O     0.79508   0.95491   0.12709   0.00000  Uiso   1.00
O461   O     0.70491   0.95491   0.12709   0.00000  Uiso   1.00
O462   O     0.79508   0.54509   0.20625   0.00000  Uiso   1.00
O463   O     0.79508   0.54509   0.12709   0.00000  Uiso   1.00
O464   O     0.70491   0.95491   0.20625   0.00000  Uiso   1.00
O465   O     0.50867   0.67221   0.04853   0.00000  Uiso   1.00
O466   O     0.99260   0.82827   0.28327   0.00000  Uiso   1.00
O467   O     0.50740   0.82827   0.05006   0.00000  Uiso   1.00
O468   O     0.95491   0.79509   0.12709   0.00000  Uiso   1.00
O469   O     0.99133   0.67222   0.28480   0.00000  Uiso   1.00
O470   O     0.75867   0.92221   0.04853   0.00000  Uiso   1.00
O471   O     0.74260   0.57827   0.28327   0.00000  Uiso   1.00
O472   O     0.75740   0.57827   0.05006   0.00000  Uiso   1.00
O473   O     0.74132   0.92222   0.28480   0.00000  Uiso   1.00
O474   O     0.95491   0.79509   0.20625   0.00000  Uiso   1.00
O475   O     0.54508   0.70491   0.12709   0.00000  Uiso   1.00
O476   O     0.95491   0.70491   0.12709   0.00000  Uiso   1.00
O477   O     0.54508   0.79509   0.20625   0.00000  Uiso   1.00
O478   O     0.54508   0.79509   0.12709   0.00000  Uiso   1.00
O479   O     0.95491   0.70491   0.20625   0.00000  Uiso   1.00
O480   O     0.79508   0.95491   0.20625   0.00000  Uiso   1.00
C481   C     0.05884   0.18985   0.49977   0.00000  Uiso   1.00
C482   C     0.00021   0.28959   0.64150   0.00000  Uiso   1.00
C483   C     0.49979   0.28959   0.35850   0.00000  Uiso   1.00
C484   C     0.49772   0.21128   0.64199   0.00000  Uiso   1.00
C485   C     0.25228   0.46128   0.35801   0.00000  Uiso   1.00
C486   C     0.25021   0.03959   0.64150   0.00000  Uiso   1.00
C487   C     0.24979   0.03959   0.35850   0.00000  Uiso   1.00
C488   C     0.24772   0.46128   0.64199   0.00000  Uiso   1.00
C489   C     0.40901   0.12241   0.46456   0.00000  Uiso   1.00
C490   C     0.10973   0.35744   0.54069   0.00000  Uiso   1.00
C491   C     0.12336   0.34544   0.45966   0.00000  Uiso   1.00
C492   C     0.43879   0.30734   0.50035   0.00000  Uiso   1.00
C493   C     0.38254   0.14685   0.53861   0.00000  Uiso   1.00
C494   C     0.09099   0.12241   0.53545   0.00000  Uiso   1.00
C495   C     0.39027   0.35743   0.45930   0.00000  Uiso   1.00
C496   C     0.37664   0.34544   0.54034   0.00000  Uiso   1.00
C497   C     0.11746   0.14685   0.46139   0.00000  Uiso   1.00
C498   C     0.15901   0.37241   0.46456   0.00000  Uiso   1.00
C499   C     0.35973   0.10744   0.54070   0.00000  Uiso   1.00
C500   C     0.37336   0.09544   0.45966   0.00000  Uiso   1.00
C501   C     0.13254   0.39685   0.53861   0.00000  Uiso   1.00
C502   C     0.34099   0.37241   0.53545   0.00000  Uiso   1.00
C503   C     0.44116   0.18985   0.50023   0.00000  Uiso   1.00
C504   C     0.14027   0.10744   0.45931   0.00000  Uiso   1.00
C505   C     0.12664   0.09544   0.54034   0.00000  Uiso   1.00
C506   C     0.36746   0.39685   0.46139   0.00000  Uiso   1.00
C507   C     0.09784   0.33747   0.49920   0.00000  Uiso   1.00
C508   C     0.41000   0.15360   0.50078   0.00000  Uiso   1.00
C509   C     0.40216   0.33746   0.50080   0.00000  Uiso   1.00
C510   C     0.09000   0.15360   0.49922   0.00000  Uiso   1.00
C511   C     0.34784   0.08747   0.49920   0.00000  Uiso   1.00
C512   C     0.16000   0.40360   0.50078   0.00000  Uiso   1.00
C513   C     0.15216   0.08747   0.50080   0.00000  Uiso   1.00
C514   C     0.06121   0.30734   0.49965   0.00000  Uiso   1.00
C515   C     0.34000   0.40360   0.49922   0.00000  Uiso   1.00
C516   C     0.04429   0.14918   0.36422   0.00000  Uiso   1.00
C517   C     0.02490   0.36026   0.62099   0.00000  Uiso   1.00
C518   C     0.47510   0.36026   0.37901   0.00000  Uiso   1.00
C519   C     0.45571   0.14918   0.63578   0.00000  Uiso   1.00
C520   C     0.29428   0.39917   0.36422   0.00000  Uiso   1.00
C521   C     0.27490   0.11026   0.62099   0.00000  Uiso   1.00
C522   C     0.22510   0.11026   0.37901   0.00000  Uiso   1.00
C523   C     0.20570   0.39919   0.63578   0.00000  Uiso   1.00
C524   C     0.30884   0.43985   0.49977   0.00000  Uiso   1.00
C525   C     0.18879   0.05734   0.50035   0.00000  Uiso   1.00
C526   C     0.19116   0.43985   0.50023   0.00000  Uiso   1.00
C527   C     0.31121   0.05734   0.49965   0.00000  Uiso   1.00
C528   C     0.00228   0.21128   0.35801   0.00000  Uiso   1.00
Cu529  Cu    0.00000   0.25000   0.54689   0.00000  Uiso   1.00
Cu530  Cu    0.00000   0.25000   0.45311   0.00000  Uiso   1.00
Cu531  Cu    0.25000   0.00000   0.54689   0.00000  Uiso   1.00
Cu532  Cu    0.25000   0.00000   0.45311   0.00000  Uiso   1.00
H533   H     0.05965   0.13249   0.39354   0.00000  Uiso   1.00
H534   H     0.44034   0.13249   0.60646   0.00000  Uiso   1.00
H535   H     0.43197   0.17095   0.65326   0.00000  Uiso   1.00
H536   H     0.46526   0.12241   0.65982   0.00000  Uiso   1.00
H537   H     0.30965   0.38248   0.39353   0.00000  Uiso   1.00
H538   H     0.31802   0.42094   0.34673   0.00000  Uiso   1.00
H539   H     0.28472   0.37240   0.34019   0.00000  Uiso   1.00
H540   H     0.28952   0.11565   0.58677   0.00000  Uiso   1.00
H541   H     0.29966   0.10204   0.64659   0.00000  Uiso   1.00
H542   H     0.26065   0.14284   0.62997   0.00000  Uiso   1.00
H543   H     0.21048   0.11564   0.41323   0.00000  Uiso   1.00
H544   H     0.06803   0.17096   0.34676   0.00000  Uiso   1.00
H545   H     0.20035   0.10204   0.35341   0.00000  Uiso   1.00
H546   H     0.23935   0.14284   0.37004   0.00000  Uiso   1.00
H547   H     0.19034   0.38249   0.60646   0.00000  Uiso   1.00
H548   H     0.18196   0.42098   0.65323   0.00000  Uiso   1.00
H549   H     0.21523   0.37243   0.65983   0.00000  Uiso   1.00
H550   H     0.03475   0.12242   0.34018   0.00000  Uiso   1.00
H551   H     0.03952   0.36565   0.58677   0.00000  Uiso   1.00
H552   H     0.04965   0.35204   0.64659   0.00000  Uiso   1.00
H553   H     0.01065   0.39284   0.62997   0.00000  Uiso   1.00
H554   H     0.46048   0.36564   0.41323   0.00000  Uiso   1.00
H555   H     0.45035   0.35204   0.35341   0.00000  Uiso   1.00
H556   H     0.48935   0.39284   0.37003   0.00000  Uiso   1.00
I557   I     0.46622   0.09818   0.43570   0.00000  Uiso   1.00
I558   I     0.37416   0.06413   0.59653   0.00000  Uiso   1.00
I559   I     0.36292   0.06815   0.39302   0.00000  Uiso   1.00
I560   I     0.11530   0.44650   0.58712   0.00000  Uiso   1.00
I561   I     0.28379   0.34819   0.56431   0.00000  Uiso   1.00
I562   I     0.12584   0.06413   0.40347   0.00000  Uiso   1.00
I563   I     0.13709   0.06816   0.60698   0.00000  Uiso   1.00
I564   I     0.38467   0.44648   0.41285   0.00000  Uiso   1.00
I565   I     0.12416   0.31414   0.59653   0.00000  Uiso   1.00
I566   I     0.11291   0.31815   0.39302   0.00000  Uiso   1.00
I567   I     0.36532   0.19649   0.58713   0.00000  Uiso   1.00
I568   I     0.03378   0.09818   0.56430   0.00000  Uiso   1.00
I569   I     0.37584   0.31413   0.40347   0.00000  Uiso   1.00
I570   I     0.38709   0.31816   0.60698   0.00000  Uiso   1.00
I571   I     0.13469   0.19649   0.41287   0.00000  Uiso   1.00
I572   I     0.21622   0.34818   0.43571   0.00000  Uiso   1.00
N573   N     0.00000   0.25000   0.61736   0.00000  Uiso   1.00
N574   N     0.00000   0.25000   0.38264   0.00000  Uiso   1.00
N575   N     0.25000   0.00000   0.61736   0.00000  Uiso   1.00
N576   N     0.25000   0.00000   0.38264   0.00000  Uiso   1.00
O577   O     0.04508   0.20491   0.53958   0.00000  Uiso   1.00
O578   O     0.20491   0.04509   0.46042   0.00000  Uiso   1.00
O579   O     0.20491   0.04509   0.53958   0.00000  Uiso   1.00
O580   O     0.29508   0.45491   0.46042   0.00000  Uiso   1.00
O581   O     0.20491   0.45491   0.46042   0.00000  Uiso   1.00
O582   O     0.29508   0.04509   0.53958   0.00000  Uiso   1.00
O583   O     0.29508   0.04509   0.46042   0.00000  Uiso   1.00
O584   O     0.20491   0.45491   0.53958   0.00000  Uiso   1.00
O585   O     0.00867   0.17221   0.38186   0.00000  Uiso   1.00
O586   O     0.49260   0.32827   0.61660   0.00000  Uiso   1.00
O587   O     0.00740   0.32827   0.38339   0.00000  Uiso   1.00
O588   O     0.45491   0.29509   0.46042   0.00000  Uiso   1.00
O589   O     0.49133   0.17222   0.61814   0.00000  Uiso   1.00
O590   O     0.25867   0.42221   0.38187   0.00000  Uiso   1.00
O591   O     0.24260   0.07827   0.61660   0.00000  Uiso   1.00
O592   O     0.25740   0.07827   0.38340   0.00000  Uiso   1.00
O593   O     0.24132   0.42222   0.61814   0.00000  Uiso   1.00
O594   O     0.45491   0.29509   0.53958   0.00000  Uiso   1.00
O595   O     0.04508   0.20491   0.46042   0.00000  Uiso   1.00
O596   O     0.45491   0.20491   0.46042   0.00000  Uiso   1.00
O597   O     0.04508   0.29509   0.53958   0.00000  Uiso   1.00
O598   O     0.04508   0.29509   0.46042   0.00000  Uiso   1.00
O599   O     0.45491   0.20491   0.53958   0.00000  Uiso   1.00
O600   O     0.29508   0.45491   0.53958   0.00000  Uiso   1.00
C601   C     0.55884   0.18985   0.49977   0.00000  Uiso   1.00
C602   C     0.50021   0.28959   0.64150   0.00000  Uiso   1.00
C603   C     0.99979   0.28959   0.35850   0.00000  Uiso   1.00
C604   C     0.99772   0.21128   0.64199   0.00000  Uiso   1.00
C605   C     0.75228   0.46128   0.35801   0.00000  Uiso   1.00
C606   C     0.75021   0.03959   0.64150   0.00000  Uiso   1.00
C607   C     0.74979   0.03959   0.35850   0.00000  Uiso   1.00
C608   C     0.74772   0.46128   0.64199   0.00000  Uiso   1.00
C609   C     0.90901   0.12241   0.46456   0.00000  Uiso   1.00
C610   C     0.60973   0.35744   0.54069   0.00000  Uiso   1.00
C611   C     0.62336   0.34544   0.45966   0.00000  Uiso   1.00
C612   C     0.93879   0.30734   0.50035   0.00000  Uiso   1.00
C613   C     0.88254   0.14685   0.53861   0.00000  Uiso   1.00
C614   C     0.59099   0.12241   0.53545   0.00000  Uiso   1.00
C615   C     0.89027   0.35743   0.45930   0.00000  Uiso   1.00
C616   C     0.87664   0.34544   0.54034   0.00000  Uiso   1.00
C617   C     0.61746   0.14685   0.46139   0.00000  Uiso   1.00
C618   C     0.65901   0.37241   0.46456   0.00000  Uiso   1.00
C619   C     0.85973   0.10744   0.54070   0.00000  Uiso   1.00
C620   C     0.87336   0.09544   0.45966   0.00000  Uiso   1.00
C621   C     0.63254   0.39685   0.53861   0.00000  Uiso   1.00
C622   C     0.84099   0.37241   0.53545   0.00000  Uiso   1.00
C623   C     0.94116   0.18985   0.50023   0.00000  Uiso   1.00
C624   C     0.64027   0.10744   0.45931   0.00000  Uiso   1.00
C625   C     0.62664   0.09544   0.54034   0.00000  Uiso   1.00
C626   C     0.86746   0.39685   0.46139   0.00000  Uiso   1.00
C627   C     0.59784   0.33747   0.49920   0.00000  Uiso   1.00
C628   C     0.91000   0.15360   0.50078   0.00000  Uiso   1.00
C629   C     0.90216   0.33746   0.50080   0.00000  Uiso   1.00
C630   C     0.59000   0.15360   0.49922   0.00000  Uiso   1.00
C631   C     0.84784   0.08747   0.49920   0.00000  Uiso   1.00
C632   C     0.66000   0.40360   0.50078   0.00000  Uiso   1.00
C633   C     0.65216   0.08747   0.50080   0.00000  Uiso   1.00
C634   C     0.56121   0.30734   0.49965   0.00000  Uiso   1.00
C635   C     0.84000   0.40360   0.49922   0.00000  Uiso   1.00
C636   C     0.54429   0.14918   0.36422   0.00000  Uiso   1.00
C637   C     0.52490   0.36026   0.62099   0.00000  Uiso   1.00
C638   C     0.97510   0.36026   0.37901   0.00000  Uiso   1.00
C639   C     0.95571   0.14918   0.63578   0.00000  Uiso   1.00
C640   C     0.79428   0.39917   0.36422   0.00000  Uiso   1.00
C641   C     0.77490   0.11026   0.62099   0.00000  Uiso   1.00
C642   C     0.72510   0.11026   0.37901   0.00000  Uiso   1.00
C643   C     0.70570   0.39919   0.63578   0.00000  Uiso   1.00
C644   C     0.80884   0.43985   0.49977   0.00000  Uiso   1.00
C645   C     0.68879   0.05734   0.50035   0.00000  Uiso   1.00
C646   C     0.69116   0.43985   0.50023   0.00000  Uiso   1.00
C647   C     0.81121   0.05734   0.49965   0.00000  Uiso   1.00
C648   C     0.50228   0.21128   0.35801   0.00000  Uiso   1.00
Cu649  Cu    0.50000   0.25000   0.54689   0.00000  Uiso   1.00
Cu650  Cu    0.50000   0.25000   0.45311   0.00000  Uiso   1.00
Cu651  Cu    0.75000   0.00000   0.54689   0.00000  Uiso   1.00
Cu652  Cu    0.75000   0.00000   0.45311   0.00000  Uiso   1.00
H653   H     0.55965   0.13249   0.39354   0.00000  Uiso   1.00
H654   H     0.94034   0.13249   0.60646   0.00000  Uiso   1.00
H655   H     0.93197   0.17095   0.65326   0.00000  Uiso   1.00
H656   H     0.96526   0.12241   0.65982   0.00000  Uiso   1.00
H657   H     0.80965   0.38248   0.39353   0.00000  Uiso   1.00
H658   H     0.81802   0.42094   0.34673   0.00000  Uiso   1.00
H659   H     0.78472   0.37240   0.34019   0.00000  Uiso   1.00
H660   H     0.78952   0.11565   0.58677   0.00000  Uiso   1.00
H661   H     0.79966   0.10204   0.64659   0.00000  Uiso   1.00
H662   H     0.76065   0.14284   0.62997   0.00000  Uiso   1.00
H663   H     0.71048   0.11564   0.41323   0.00000  Uiso   1.00
H664   H     0.56803   0.17096   0.34676   0.00000  Uiso   1.00
H665   H     0.70035   0.10204   0.35341   0.00000  Uiso   1.00
H666   H     0.73935   0.14284   0.37004   0.00000  Uiso   1.00
H667   H     0.69034   0.38249   0.60646   0.00000  Uiso   1.00
H668   H     0.68196   0.42098   0.65323   0.00000  Uiso   1.00
H669   H     0.71523   0.37243   0.65983   0.00000  Uiso   1.00
H670   H     0.53475   0.12242   0.34018   0.00000  Uiso   1.00
H671   H     0.53952   0.36565   0.58677   0.00000  Uiso   1.00
H672   H     0.54965   0.35204   0.64659   0.00000  Uiso   1.00
H673   H     0.51065   0.39284   0.62997   0.00000  Uiso   1.00
H674   H     0.96048   0.36564   0.41323   0.00000  Uiso   1.00
H675   H     0.95035   0.35204   0.35341   0.00000  Uiso   1.00
H676   H     0.98935   0.39284   0.37003   0.00000  Uiso   1.00
I677   I     0.96622   0.09818   0.43570   0.00000  Uiso   1.00
I678   I     0.87416   0.06413   0.59653   0.00000  Uiso   1.00
I679   I     0.86292   0.06815   0.39302   0.00000  Uiso   1.00
I680   I     0.61530   0.44650   0.58712   0.00000  Uiso   1.00
I681   I     0.78379   0.34819   0.56431   0.00000  Uiso   1.00
I682   I     0.62584   0.06413   0.40347   0.00000  Uiso   1.00
I683   I     0.63709   0.06816   0.60698   0.00000  Uiso   1.00
I684   I     0.88467   0.44648   0.41285   0.00000  Uiso   1.00
I685   I     0.62416   0.31414   0.59653   0.00000  Uiso   1.00
I686   I     0.61291   0.31815   0.39302   0.00000  Uiso   1.00
I687   I     0.86532   0.19649   0.58713   0.00000  Uiso   1.00
I688   I     0.53378   0.09818   0.56430   0.00000  Uiso   1.00
I689   I     0.87584   0.31413   0.40347   0.00000  Uiso   1.00
I690   I     0.88709   0.31816   0.60698   0.00000  Uiso   1.00
I691   I     0.63469   0.19649   0.41287   0.00000  Uiso   1.00
I692   I     0.71622   0.34818   0.43571   0.00000  Uiso   1.00
N693   N     0.50000   0.25000   0.61736   0.00000  Uiso   1.00
N694   N     0.50000   0.25000   0.38264   0.00000  Uiso   1.00
N695   N     0.75000   0.00000   0.61736   0.00000  Uiso   1.00
N696   N     0.75000   0.00000   0.38264   0.00000  Uiso   1.00
O697   O     0.54508   0.20491   0.53958   0.00000  Uiso   1.00
O698   O     0.70491   0.04509   0.46042   0.00000  Uiso   1.00
O699   O     0.70491   0.04509   0.53958   0.00000  Uiso   1.00
O700   O     0.79508   0.45491   0.46042   0.00000  Uiso   1.00
O701   O     0.70491   0.45491   0.46042   0.00000  Uiso   1.00
O702   O     0.79508   0.04509   0.53958   0.00000  Uiso   1.00
O703   O     0.79508   0.04509   0.46042   0.00000  Uiso   1.00
O704   O     0.70491   0.45491   0.53958   0.00000  Uiso   1.00
O705   O     0.50867   0.17221   0.38186   0.00000  Uiso   1.00
O706   O     0.99260   0.32827   0.61660   0.00000  Uiso   1.00
O707   O     0.50740   0.32827   0.38339   0.00000  Uiso   1.00
O708   O     0.95491   0.29509   0.46042   0.00000  Uiso   1.00
O709   O     0.99133   0.17222   0.61814   0.00000  Uiso   1.00
O710   O     0.75867   0.42221   0.38187   0.00000  Uiso   1.00
O711   O     0.74260   0.07827   0.61660   0.00000  Uiso   1.00
O712   O     0.75740   0.07827   0.38340   0.00000  Uiso   1.00
O713   O     0.74132   0.42222   0.61814   0.00000  Uiso   1.00
O714   O     0.95491   0.29509   0.53958   0.00000  Uiso   1.00
O715   O     0.54508   0.20491   0.46042   0.00000  Uiso   1.00
O716   O     0.95491   0.20491   0.46042   0.00000  Uiso   1.00
O717   O     0.54508   0.29509   0.53958   0.00000  Uiso   1.00
O718   O     0.54508   0.29509   0.46042   0.00000  Uiso   1.00
O719   O     0.95491   0.20491   0.53958   0.00000  Uiso   1.00
O720   O     0.79508   0.45491   0.53958   0.00000  Uiso   1.00
C721   C     0.05884   0.68985   0.49977   0.00000  Uiso   1.00
C722   C     0.00021   0.78959   0.64150   0.00000  Uiso   1.00
C723   C     0.49979   0.78959   0.35850   0.00000  Uiso   1.00
C724   C     0.49772   0.71128   0.64199   0.00000  Uiso   1.00
C725   C     0.25228   0.96128   0.35801   0.00000  Uiso   1.00
C726   C     0.25021   0.53959   0.64150   0.00000  Uiso   1.00
C727   C     0.24979   0.53959   0.35850   0.00000  Uiso   1.00
C728   C     0.24772   0.96128   0.64199   0.00000  Uiso   1.00
C729   C     0.40901   0.62241   0.46456   0.00000  Uiso   1.00
C730   C     0.10973   0.85744   0.54069   0.00000  Uiso   1.00
C731   C     0.12336   0.84544   0.45966   0.00000  Uiso   1.00
C732   C     0.43879   0.80734   0.50035   0.00000  Uiso   1.00
C733   C     0.38254   0.64685   0.53861   0.00000  Uiso   1.00
C734   C     0.09099   0.62241   0.53545   0.00000  Uiso   1.00
C735   C     0.39027   0.85743   0.45930   0.00000  Uiso   1.00
C736   C     0.37664   0.84544   0.54034   0.00000  Uiso   1.00
C737   C     0.11746   0.64685   0.46139   0.00000  Uiso   1.00
C738   C     0.15901   0.87241   0.46456   0.00000  Uiso   1.00
C739   C     0.35973   0.60744   0.54070   0.00000  Uiso   1.00
C740   C     0.37336   0.59544   0.45966   0.00000  Uiso   1.00
C741   C     0.13254   0.89685   0.53861   0.00000  Uiso   1.00
C742   C     0.34099   0.87241   0.53545   0.00000  Uiso   1.00
C743   C     0.44116   0.68985   0.50023   0.00000  Uiso   1.00
C744   C     0.14027   0.60744   0.45931   0.00000  Uiso   1.00
C745   C     0.12664   0.59544   0.54034   0.00000  Uiso   1.00
C746   C     0.36746   0.89685   0.46139   0.00000  Uiso   1.00
C747   C     0.09784   0.83747   0.49920   0.00000  Uiso   1.00
C748   C     0.41000   0.65360   0.50078   0.00000  Uiso   1.00
C749   C     0.40216   0.83746   0.50080   0.00000  Uiso   1.00
C750   C     0.09000   0.65360   0.49922   0.00000  Uiso   1.00
C751   C     0.34784   0.58747   0.49920   0.00000  Uiso   1.00
C752   C     0.16000   0.90360   0.50078   0.00000  Uiso   1.00
C753   C     0.15216   0.58747   0.50080   0.00000  Uiso   1.00
C754   C     0.06121   0.80734   0.49965   0.00000  Uiso   1.00
C755   C     0.34000   0.90360   0.49922   0.00000  Uiso   1.00
C756   C     0.04429   0.64918   0.36422   0.00000  Uiso   1.00
C757   C     0.02490   0.86026   0.62099   0.00000  Uiso   1.00
C758   C     0.47510   0.86026   0.37901   0.00000  Uiso   1.00
C759   C     0.45571   0.64918   0.63578   0.00000  Uiso   1.00
C760   C     0.29428   0.89917   0.36422   0.00000  Uiso   1.00
C761   C     0.27490   0.61026   0.62099   0.00000  Uiso   1.00
C762   C     0.22510   0.61026   0.37901   0.00000  Uiso   1.00
C763   C     0.20570   0.89919   0.63578   0.00000  Uiso   1.00
C764   C     0.30884   0.93985   0.49977   0.00000  Uiso   1.00
C765   C     0.18879   0.55734   0.50035   0.00000  Uiso   1.00
C766   C     0.19116   0.93985   0.50023   0.00000  Uiso   1.00
C767   C     0.31121   0.55734   0.49965   0.00000  Uiso   1.00
C768   C     0.00228   0.71128   0.35801   0.00000  Uiso   1.00
Cu769  Cu    0.00000   0.75000   0.54689   0.00000  Uiso   1.00
Cu770  Cu    0.00000   0.75000   0.45311   0.00000  Uiso   1.00
Cu771  Cu    0.25000   0.50000   0.54689   0.00000  Uiso   1.00
Cu772  Cu    0.25000   0.50000   0.45311   0.00000  Uiso   1.00
H773   H     0.05965   0.63249   0.39354   0.00000  Uiso   1.00
H774   H     0.44034   0.63249   0.60646   0.00000  Uiso   1.00
H775   H     0.43197   0.67095   0.65326   0.00000  Uiso   1.00
H776   H     0.46526   0.62241   0.65982   0.00000  Uiso   1.00
H777   H     0.30965   0.88248   0.39353   0.00000  Uiso   1.00
H778   H     0.31802   0.92094   0.34673   0.00000  Uiso   1.00
H779   H     0.28472   0.87240   0.34019   0.00000  Uiso   1.00
H780   H     0.28952   0.61565   0.58677   0.00000  Uiso   1.00
H781   H     0.29966   0.60204   0.64659   0.00000  Uiso   1.00
H782   H     0.26065   0.64284   0.62997   0.00000  Uiso   1.00
H783   H     0.21048   0.61564   0.41323   0.00000  Uiso   1.00
H784   H     0.06803   0.67096   0.34676   0.00000  Uiso   1.00
H785   H     0.20035   0.60204   0.35341   0.00000  Uiso   1.00
H786   H     0.23935   0.64284   0.37004   0.00000  Uiso   1.00
H787   H     0.19034   0.88249   0.60646   0.00000  Uiso   1.00
H788   H     0.18196   0.92098   0.65323   0.00000  Uiso   1.00
H789   H     0.21523   0.87243   0.65983   0.00000  Uiso   1.00
H790   H     0.03475   0.62242   0.34018   0.00000  Uiso   1.00
H791   H     0.03952   0.86565   0.58677   0.00000  Uiso   1.00
H792   H     0.04965   0.85204   0.64659   0.00000  Uiso   1.00
H793   H     0.01065   0.89284   0.62997   0.00000  Uiso   1.00
H794   H     0.46048   0.86564   0.41323   0.00000  Uiso   1.00
H795   H     0.45035   0.85204   0.35341   0.00000  Uiso   1.00
H796   H     0.48935   0.89284   0.37003   0.00000  Uiso   1.00
I797   I     0.46622   0.59818   0.43570   0.00000  Uiso   1.00
I798   I     0.37416   0.56413   0.59653   0.00000  Uiso   1.00
I799   I     0.36292   0.56815   0.39302   0.00000  Uiso   1.00
I800   I     0.11530   0.94650   0.58712   0.00000  Uiso   1.00
I801   I     0.28379   0.84819   0.56431   0.00000  Uiso   1.00
I802   I     0.12584   0.56413   0.40347   0.00000  Uiso   1.00
I803   I     0.13709   0.56816   0.60698   0.00000  Uiso   1.00
I804   I     0.38467   0.94648   0.41285   0.00000  Uiso   1.00
I805   I     0.12416   0.81414   0.59653   0.00000  Uiso   1.00
I806   I     0.11291   0.81815   0.39302   0.00000  Uiso   1.00
I807   I     0.36532   0.69649   0.58713   0.00000  Uiso   1.00
I808   I     0.03378   0.59818   0.56430   0.00000  Uiso   1.00
I809   I     0.37584   0.81413   0.40347   0.00000  Uiso   1.00
I810   I     0.38709   0.81816   0.60698   0.00000  Uiso   1.00
I811   I     0.13469   0.69649   0.41287   0.00000  Uiso   1.00
I812   I     0.21622   0.84818   0.43571   0.00000  Uiso   1.00
N813   N     0.00000   0.75000   0.61736   0.00000  Uiso   1.00
N814   N     0.00000   0.75000   0.38264   0.00000  Uiso   1.00
N815   N     0.25000   0.50000   0.61736   0.00000  Uiso   1.00
N816   N     0.25000   0.50000   0.38264   0.00000  Uiso   1.00
O817   O     0.04508   0.70491   0.53958   0.00000  Uiso   1.00
O818   O     0.20491   0.54509   0.46042   0.00000  Uiso   1.00
O819   O     0.20491   0.54509   0.53958   0.00000  Uiso   1.00
O820   O     0.29508   0.95491   0.46042   0.00000  Uiso   1.00
O821   O     0.20491   0.95491   0.46042   0.00000  Uiso   1.00
O822   O     0.29508   0.54509   0.53958   0.00000  Uiso   1.00
O823   O     0.29508   0.54509   0.46042   0.00000  Uiso   1.00
O824   O     0.20491   0.95491   0.53958   0.00000  Uiso   1.00
O825   O     0.00867   0.67221   0.38186   0.00000  Uiso   1.00
O826   O     0.49260   0.82827   0.61660   0.00000  Uiso   1.00
O827   O     0.00740   0.82827   0.38339   0.00000  Uiso   1.00
O828   O     0.45491   0.79509   0.46042   0.00000  Uiso   1.00
O829   O     0.49133   0.67222   0.61814   0.00000  Uiso   1.00
O830   O     0.25867   0.92221   0.38187   0.00000  Uiso   1.00
O831   O     0.24260   0.57827   0.61660   0.00000  Uiso   1.00
O832   O     0.25740   0.57827   0.38340   0.00000  Uiso   1.00
O833   O     0.24132   0.92222   0.61814   0.00000  Uiso   1.00
O834   O     0.45491   0.79509   0.53958   0.00000  Uiso   1.00
O835   O     0.04508   0.70491   0.46042   0.00000  Uiso   1.00
O836   O     0.45491   0.70491   0.46042   0.00000  Uiso   1.00
O837   O     0.04508   0.79509   0.53958   0.00000  Uiso   1.00
O838   O     0.04508   0.79509   0.46042   0.00000  Uiso   1.00
O839   O     0.45491   0.70491   0.53958   0.00000  Uiso   1.00
O840   O     0.29508   0.95491   0.53958   0.00000  Uiso   1.00
C841   C     0.55884   0.68985   0.49977   0.00000  Uiso   1.00
C842   C     0.50021   0.78959   0.64150   0.00000  Uiso   1.00
C843   C     0.99979   0.78959   0.35850   0.00000  Uiso   1.00
C844   C     0.99772   0.71128   0.64199   0.00000  Uiso   1.00
C845   C     0.75228   0.96128   0.35801   0.00000  Uiso   1.00
C846   C     0.75021   0.53959   0.64150   0.00000  Uiso   1.00
C847   C     0.74979   0.53959   0.35850   0.00000  Uiso   1.00
C848   C     0.74772   0.96128   0.64199   0.00000  Uiso   1.00
C849   C     0.90901   0.62241   0.46456   0.00000  Uiso   1.00
C850   C     0.60973   0.85744   0.54069   0.00000  Uiso   1.00
C851   C     0.62336   0.84544   0.45966   0.00000  Uiso   1.00
C852   C     0.93879   0.80734   0.50035   0.00000  Uiso   1.00
C853   C     0.88254   0.64685   0.53861   0.00000  Uiso   1.00
C854   C     0.59099   0.62241   0.53545   0.00000  Uiso   1.00
C855   C     0.89027   0.85743   0.45930   0.00000  Uiso   1.00
C856   C     0.87664   0.84544   0.54034   0.00000  Uiso   1.00
C857   C     0.61746   0.64685   0.46139   0.00000  Uiso   1.00
C858   C     0.65901   0.87241   0.46456   0.00000  Uiso   1.00
C859   C     0.85973   0.60744   0.54070   0.00000  Uiso   1.00
C860   C     0.87336   0.59544   0.45966   0.00000  Uiso   1.00
C861   C     0.63254   0.89685   0.53861   0.00000  Uiso   1.00
C862   C     0.84099   0.87241   0.53545   0.00000  Uiso   1.00
C863   C     0.94116   0.68985   0.50023   0.00000  Uiso   1.00
C864   C     0.64027   0.60744   0.45931   0.00000  Uiso   1.00
C865   C     0.62664   0.59544   0.54034   0.00000  Uiso   1.00
C866   C     0.86746   0.89685   0.46139   0.00000  Uiso   1.00
C867   C     0.59784   0.83747   0.49920   0.00000  Uiso   1.00
C868   C     0.91000   0.65360   0.50078   0.00000  Uiso   1.00
C869   C     0.90216   0.83746   0.50080   0.00000  Uiso   1.00
C870   C     0.59000   0.65360   0.49922   0.00000  Uiso   1.00
C871   C     0.84784   0.58747   0.49920   0.00000  Uiso   1.00
C872   C     0.66000   0.90360   0.50078   0.00000  Uiso   1.00
C873   C     0.65216   0.58747   0.50080   0.00000  Uiso   1.00
C874   C     0.56121   0.80734   0.49965   0.00000  Uiso   1.00
C875   C     0.84000   0.90360   0.49922   0.00000  Uiso   1.00
C876   C     0.54429   0.64918   0.36422   0.00000  Uiso   1.00
C877   C     0.52490   0.86026   0.62099   0.00000  Uiso   1.00
C878   C     0.97510   0.86026   0.37901   0.00000  Uiso   1.00
C879   C     0.95571   0.64918   0.63578   0.00000  Uiso   1.00
C880   C     0.79428   0.89917   0.36422   0.00000  Uiso   1.00
C881   C     0.77490   0.61026   0.62099   0.00000  Uiso   1.00
C882   C     0.72510   0.61026   0.37901   0.00000  Uiso   1.00
C883   C     0.70570   0.89919   0.63578   0.00000  Uiso   1.00
C884   C     0.80884   0.93985   0.49977   0.00000  Uiso   1.00
C885   C     0.68879   0.55734   0.50035   0.00000  Uiso   1.00
C886   C     0.69116   0.93985   0.50023   0.00000  Uiso   1.00
C887   C     0.81121   0.55734   0.49965   0.00000  Uiso   1.00
C888   C     0.50228   0.71128   0.35801   0.00000  Uiso   1.00
Cu889  Cu    0.50000   0.75000   0.54689   0.00000  Uiso   1.00
Cu890  Cu    0.50000   0.75000   0.45311   0.00000  Uiso   1.00
Cu891  Cu    0.75000   0.50000   0.54689   0.00000  Uiso   1.00
Cu892  Cu    0.75000   0.50000   0.45311   0.00000  Uiso   1.00
H893   H     0.55965   0.63249   0.39354   0.00000  Uiso   1.00
H894   H     0.94034   0.63249   0.60646   0.00000  Uiso   1.00
H895   H     0.93197   0.67095   0.65326   0.00000  Uiso   1.00
H896   H     0.96526   0.62241   0.65982   0.00000  Uiso   1.00
H897   H     0.80965   0.88248   0.39353   0.00000  Uiso   1.00
H898   H     0.81802   0.92094   0.34673   0.00000  Uiso   1.00
H899   H     0.78472   0.87240   0.34019   0.00000  Uiso   1.00
H900   H     0.78952   0.61565   0.58677   0.00000  Uiso   1.00
H901   H     0.79966   0.60204   0.64659   0.00000  Uiso   1.00
H902   H     0.76065   0.64284   0.62997   0.00000  Uiso   1.00
H903   H     0.71048   0.61564   0.41323   0.00000  Uiso   1.00
H904   H     0.56803   0.67096   0.34676   0.00000  Uiso   1.00
H905   H     0.70035   0.60204   0.35341   0.00000  Uiso   1.00
H906   H     0.73935   0.64284   0.37004   0.00000  Uiso   1.00
H907   H     0.69034   0.88249   0.60646   0.00000  Uiso   1.00
H908   H     0.68196   0.92098   0.65323   0.00000  Uiso   1.00
H909   H     0.71523   0.87243   0.65983   0.00000  Uiso   1.00
H910   H     0.53475   0.62242   0.34018   0.00000  Uiso   1.00
H911   H     0.53952   0.86565   0.58677   0.00000  Uiso   1.00
H912   H     0.54965   0.85204   0.64659   0.00000  Uiso   1.00
H913   H     0.51065   0.89284   0.62997   0.00000  Uiso   1.00
H914   H     0.96048   0.86564   0.41323   0.00000  Uiso   1.00
H915   H     0.95035   0.85204   0.35341   0.00000  Uiso   1.00
H916   H     0.98935   0.89284   0.37003   0.00000  Uiso   1.00
I917   I     0.96622   0.59818   0.43570   0.00000  Uiso   1.00
I918   I     0.87416   0.56413   0.59653   0.00000  Uiso   1.00
I919   I     0.86292   0.56815   0.39302   0.00000  Uiso   1.00
I920   I     0.61530   0.94650   0.58712   0.00000  Uiso   1.00
I921   I     0.78379   0.84819   0.56431   0.00000  Uiso   1.00
I922   I     0.62584   0.56413   0.40347   0.00000  Uiso   1.00
I923   I     0.63709   0.56816   0.60698   0.00000  Uiso   1.00
I924   I     0.88467   0.94648   0.41285   0.00000  Uiso   1.00
I925   I     0.62416   0.81414   0.59653   0.00000  Uiso   1.00
I926   I     0.61291   0.81815   0.39302   0.00000  Uiso   1.00
I927   I     0.86532   0.69649   0.58713   0.00000  Uiso   1.00
I928   I     0.53378   0.59818   0.56430   0.00000  Uiso   1.00
I929   I     0.87584   0.81413   0.40347   0.00000  Uiso   1.00
I930   I     0.88709   0.81816   0.60698   0.00000  Uiso   1.00
I931   I     0.63469   0.69649   0.41287   0.00000  Uiso   1.00
I932   I     0.71622   0.84818   0.43571   0.00000  Uiso   1.00
N933   N     0.50000   0.75000   0.61736   0.00000  Uiso   1.00
N934   N     0.50000   0.75000   0.38264   0.00000  Uiso   1.00
N935   N     0.75000   0.50000   0.61736   0.00000  Uiso   1.00
N936   N     0.75000   0.50000   0.38264   0.00000  Uiso   1.00
O937   O     0.54508   0.70491   0.53958   0.00000  Uiso   1.00
O938   O     0.70491   0.54509   0.46042   0.00000  Uiso   1.00
O939   O     0.70491   0.54509   0.53958   0.00000  Uiso   1.00
O940   O     0.79508   0.95491   0.46042   0.00000  Uiso   1.00
O941   O     0.70491   0.95491   0.46042   0.00000  Uiso   1.00
O942   O     0.79508   0.54509   0.53958   0.00000  Uiso   1.00
O943   O     0.79508   0.54509   0.46042   0.00000  Uiso   1.00
O944   O     0.70491   0.95491   0.53958   0.00000  Uiso   1.00
O945   O     0.50867   0.67221   0.38186   0.00000  Uiso   1.00
O946   O     0.99260   0.82827   0.61660   0.00000  Uiso   1.00
O947   O     0.50740   0.82827   0.38339   0.00000  Uiso   1.00
O948   O     0.95491   0.79509   0.46042   0.00000  Uiso   1.00
O949   O     0.99133   0.67222   0.61814   0.00000  Uiso   1.00
O950   O     0.75867   0.92221   0.38187   0.00000  Uiso   1.00
O951   O     0.74260   0.57827   0.61660   0.00000  Uiso   1.00
O952   O     0.75740   0.57827   0.38340   0.00000  Uiso   1.00
O953   O     0.74132   0.92222   0.61814   0.00000  Uiso   1.00
O954   O     0.95491   0.79509   0.53958   0.00000  Uiso   1.00
O955   O     0.54508   0.70491   0.46042   0.00000  Uiso   1.00
O956   O     0.95491   0.70491   0.46042   0.00000  Uiso   1.00
O957   O     0.54508   0.79509   0.53958   0.00000  Uiso   1.00
O958   O     0.54508   0.79509   0.46042   0.00000  Uiso   1.00
O959   O     0.95491   0.70491   0.53958   0.00000  Uiso   1.00
O960   O     0.79508   0.95491   0.53958   0.00000  Uiso   1.00
C961   C     0.05884   0.18985   0.83310   0.00000  Uiso   1.00
C962   C     0.00021   0.28959   0.97483   0.00000  Uiso   1.00
C963   C     0.49979   0.28959   0.69183   0.00000  Uiso   1.00
C964   C     0.49772   0.21128   0.97532   0.00000  Uiso   1.00
C965   C     0.25228   0.46128   0.69134   0.00000  Uiso   1.00
C966   C     0.25021   0.03959   0.97483   0.00000  Uiso   1.00
C967   C     0.24979   0.03959   0.69183   0.00000  Uiso   1.00
C968   C     0.24772   0.46128   0.97532   0.00000  Uiso   1.00
C969   C     0.40901   0.12241   0.79789   0.00000  Uiso   1.00
C970   C     0.10973   0.35744   0.87403   0.00000  Uiso   1.00
C971   C     0.12336   0.34544   0.79299   0.00000  Uiso   1.00
C972   C     0.43879   0.30734   0.83368   0.00000  Uiso   1.00
C973   C     0.38254   0.14685   0.87194   0.00000  Uiso   1.00
C974   C     0.09099   0.12241   0.86878   0.00000  Uiso   1.00
C975   C     0.39027   0.35743   0.79264   0.00000  Uiso   1.00
C976   C     0.37664   0.34544   0.87367   0.00000  Uiso   1.00
C977   C     0.11746   0.14685   0.79473   0.00000  Uiso   1.00
C978   C     0.15901   0.37241   0.79789   0.00000  Uiso   1.00
C979   C     0.35973   0.10744   0.87403   0.00000  Uiso   1.00
C980   C     0.37336   0.09544   0.79299   0.00000  Uiso   1.00
C981   C     0.13254   0.39685   0.87194   0.00000  Uiso   1.00
C982   C     0.34099   0.37241   0.86878   0.00000  Uiso   1.00
C983   C     0.44116   0.18985   0.83357   0.00000  Uiso   1.00
C984   C     0.14027   0.10744   0.79264   0.00000  Uiso   1.00
C985   C     0.12664   0.09544   0.87367   0.00000  Uiso   1.00
C986   C     0.36746   0.39685   0.79472   0.00000  Uiso   1.00
C987   C     0.09784   0.33747   0.83253   0.00000  Uiso   1.00
C988   C     0.41000   0.15360   0.83412   0.00000  Uiso   1.00
C989   C     0.40216   0.33746   0.83413   0.00000  Uiso   1.00
C990   C     0.09000   0.15360   0.83255   0.00000  Uiso   1.00
C991   C     0.34784   0.08747   0.83253   0.00000  Uiso   1.00
C992   C     0.16000   0.40360   0.83412   0.00000  Uiso   1.00
C993   C     0.15216   0.08747   0.83413   0.00000  Uiso   1.00
C994   C     0.06121   0.30734   0.83298   0.00000  Uiso   1.00
C995   C     0.34000   0.40360   0.83255   0.00000  Uiso   1.00
C996   C     0.04429   0.14918   0.69756   0.00000  Uiso   1.00
C997   C     0.02490   0.36026   0.95432   0.00000  Uiso   1.00
C998   C     0.47510   0.36026   0.71234   0.00000  Uiso   1.00
C999   C     0.45571   0.14918   0.96911   0.00000  Uiso   1.00
C1000  C     0.29428   0.39917   0.69755   0.00000  Uiso   1.00
C1001  C     0.27490   0.11026   0.95432   0.00000  Uiso   1.00
C1002  C     0.22510   0.11026   0.71234   0.00000  Uiso   1.00
C1003  C     0.20570   0.39919   0.96911   0.00000  Uiso   1.00
C1004  C     0.30884   0.43985   0.83310   0.00000  Uiso   1.00
C1005  C     0.18879   0.05734   0.83368   0.00000  Uiso   1.00
C1006  C     0.19116   0.43985   0.83357   0.00000  Uiso   1.00
C1007  C     0.31121   0.05734   0.83298   0.00000  Uiso   1.00
C1008  C     0.00228   0.21128   0.69134   0.00000  Uiso   1.00
Cu1009 Cu    0.00000   0.25000   0.88022   0.00000  Uiso   1.00
Cu1010 Cu    0.00000   0.25000   0.78645   0.00000  Uiso   1.00
Cu1011 Cu    0.25000   0.00000   0.88022   0.00000  Uiso   1.00
Cu1012 Cu    0.25000   0.00000   0.78645   0.00000  Uiso   1.00
H1013  H     0.05965   0.13249   0.72687   0.00000  Uiso   1.00
H1014  H     0.44034   0.13249   0.93980   0.00000  Uiso   1.00
H1015  H     0.43197   0.17095   0.98659   0.00000  Uiso   1.00
H1016  H     0.46526   0.12241   0.99315   0.00000  Uiso   1.00
H1017  H     0.30965   0.38248   0.72687   0.00000  Uiso   1.00
H1018  H     0.31802   0.42094   0.68006   0.00000  Uiso   1.00
H1019  H     0.28472   0.37240   0.67352   0.00000  Uiso   1.00
H1020  H     0.28952   0.11565   0.92011   0.00000  Uiso   1.00
H1021  H     0.29966   0.10204   0.97992   0.00000  Uiso   1.00
H1022  H     0.26065   0.14284   0.96330   0.00000  Uiso   1.00
H1023  H     0.21048   0.11564   0.74656   0.00000  Uiso   1.00
H1024  H     0.06803   0.17096   0.68009   0.00000  Uiso   1.00
H1025  H     0.20035   0.10204   0.68675   0.00000  Uiso   1.00
H1026  H     0.23935   0.14284   0.70337   0.00000  Uiso   1.00
H1027  H     0.19034   0.38249   0.93979   0.00000  Uiso   1.00
H1028  H     0.18196   0.42098   0.98657   0.00000  Uiso   1.00
H1029  H     0.21523   0.37243   0.99316   0.00000  Uiso   1.00
H1030  H     0.03475   0.12242   0.67351   0.00000  Uiso   1.00
H1031  H     0.03952   0.36565   0.92010   0.00000  Uiso   1.00
H1032  H     0.04965   0.35204   0.97992   0.00000  Uiso   1.00
H1033  H     0.01065   0.39284   0.96330   0.00000  Uiso   1.00
H1034  H     0.46048   0.36564   0.74656   0.00000  Uiso   1.00
H1035  H     0.45035   0.35204   0.68675   0.00000  Uiso   1.00
H1036  H     0.48935   0.39284   0.70337   0.00000  Uiso   1.00
I1037  I     0.46622   0.09818   0.76904   0.00000  Uiso   1.00
I1038  I     0.37416   0.06413   0.92986   0.00000  Uiso   1.00
I1039  I     0.36292   0.06815   0.72636   0.00000  Uiso   1.00
I1040  I     0.11530   0.44650   0.92045   0.00000  Uiso   1.00
I1041  I     0.28379   0.34819   0.89764   0.00000  Uiso   1.00
I1042  I     0.12584   0.06413   0.73681   0.00000  Uiso   1.00
I1043  I     0.13709   0.06816   0.94031   0.00000  Uiso   1.00
I1044  I     0.38467   0.44648   0.74619   0.00000  Uiso   1.00
I1045  I     0.12416   0.31414   0.92986   0.00000  Uiso   1.00
I1046  I     0.11291   0.31815   0.72636   0.00000  Uiso   1.00
I1047  I     0.36532   0.19649   0.92047   0.00000  Uiso   1.00
I1048  I     0.03378   0.09818   0.89763   0.00000  Uiso   1.00
I1049  I     0.37584   0.31413   0.73680   0.00000  Uiso   1.00
I1050  I     0.38709   0.31816   0.94031   0.00000  Uiso   1.00
I1051  I     0.13469   0.19649   0.74620   0.00000  Uiso   1.00
I1052  I     0.21622   0.34818   0.76904   0.00000  Uiso   1.00
N1053  N     0.00000   0.25000   0.95069   0.00000  Uiso   1.00
N1054  N     0.00000   0.25000   0.71598   0.00000  Uiso   1.00
N1055  N     0.25000   0.00000   0.95069   0.00000  Uiso   1.00
N1056  N     0.25000   0.00000   0.71598   0.00000  Uiso   1.00
O1057  O     0.04508   0.20491   0.87291   0.00000  Uiso   1.00
O1058  O     0.20491   0.04509   0.79375   0.00000  Uiso   1.00
O1059  O     0.20491   0.04509   0.87291   0.00000  Uiso   1.00
O1060  O     0.29508   0.45491   0.79375   0.00000  Uiso   1.00
O1061  O     0.20491   0.45491   0.79375   0.00000  Uiso   1.00
O1062  O     0.29508   0.04509   0.87291   0.00000  Uiso   1.00
O1063  O     0.29508   0.04509   0.79375   0.00000  Uiso   1.00
O1064  O     0.20491   0.45491   0.87291   0.00000  Uiso   1.00
O1065  O     0.00867   0.17221   0.71520   0.00000  Uiso   1.00
O1066  O     0.49260   0.32827   0.94994   0.00000  Uiso   1.00
O1067  O     0.00740   0.32827   0.71673   0.00000  Uiso   1.00
O1068  O     0.45491   0.29509   0.79375   0.00000  Uiso   1.00
O1069  O     0.49133   0.17222   0.95147   0.00000  Uiso   1.00
O1070  O     0.25867   0.42221   0.71520   0.00000  Uiso   1.00
O1071  O     0.24260   0.07827   0.94994   0.00000  Uiso   1.00
O1072  O     0.25740   0.07827   0.71673   0.00000  Uiso   1.00
O1073  O     0.24132   0.42222   0.95147   0.00000  Uiso   1.00
O1074  O     0.45491   0.29509   0.87291   0.00000  Uiso   1.00
O1075  O     0.04508   0.20491   0.79375   0.00000  Uiso   1.00
O1076  O     0.45491   0.20491   0.79375   0.00000  Uiso   1.00
O1077  O     0.04508   0.29509   0.87291   0.00000  Uiso   1.00
O1078  O     0.04508   0.29509   0.79375   0.00000  Uiso   1.00
O1079  O     0.45491   0.20491   0.87291   0.00000  Uiso   1.00
O1080  O     0.29508   0.45491   0.87291   0.00000  Uiso   1.00
C1081  C     0.55884   0.18985   0.83310   0.00000  Uiso   1.00
C1082  C     0.50021   0.28959   0.97483   0.00000  Uiso   1.00
C1083  C     0.99979   0.28959   0.69183   0.00000  Uiso   1.00
C1084  C     0.99772   0.21128   0.97532   0.00000  Uiso   1.00
C1085  C     0.75228   0.46128   0.69134   0.00000  Uiso   1.00
C1086  C     0.75021   0.03959   0.97483   0.00000  Uiso   1.00
C1087  C     0.74979   0.03959   0.69183   0.00000  Uiso   1.00
C1088  C     0.74772   0.46128   0.97532   0.00000  Uiso   1.00
C1089  C     0.90901   0.12241   0.79789   0.00000  Uiso   1.00
C1090  C     0.60973   0.35744   0.87403   0.00000  Uiso   1.00
C1091  C     0.62336   0.34544   0.79299   0.00000  Uiso   1.00
C1092  C     0.93879   0.30734   0.83368   0.00000  Uiso   1.00
C1093  C     0.88254   0.14685   0.87194   0.00000  Uiso   1.00
C1094  C     0.59099   0.12241   0.86878   0.00000  Uiso   1.00
C1095  C     0.89027   0.35743   0.79264   0.00000  Uiso   1.00
C1096  C     0.87664   0.34544   0.87367   0.00000  Uiso   1.00
C1097  C     0.61746   0.14685   0.79473   0.00000  Uiso   1.00
C1098  C     0.65901   0.37241   0.79789   0.00000  Uiso   1.00
C1099  C     0.85973   0.10744   0.87403   0.00000  Uiso   1.00
C1100  C     0.87336   0.09544   0.79299   0.00000  Uiso   1.00
C1101  C     0.63254   0.39685   0.87194   0.00000  Uiso   1.00
C1102  C     0.84099   0.37241   0.86878   0.00000  Uiso   1.00
C1103  C     0.94116   0.18985   0.83357   0.00000  Uiso   1.00
C1104  C     0.64027   0.10744   0.79264   0.00000  Uiso   1.00
C1105  C     0.62664   0.09544   0.87367   0.00000  Uiso   1.00
C1106  C     0.86746   0.39685   0.79472   0.00000  Uiso   1.00
C1107  C     0.59784   0.33747   0.83253   0.00000  Uiso   1.00
C1108  C     0.91000   0.15360   0.83412   0.00000  Uiso   1.00
C1109  C     0.90216   0.33746   0.83413   0.00000  Uiso   1.00
C1110  C     0.59000   0.15360   0.83255   0.00000  Uiso   1.00
C1111  C     0.84784   0.08747   0.83253   0.00000  Uiso   1.00
C1112  C     0.66000   0.40360   0.83412   0.00000  Uiso   1.00
C1113  C     0.65216   0.08747   0.83413   0.00000  Uiso   1.00
C1114  C     0.56121   0.30734   0.83298   0.00000  Uiso   1.00
C1115  C     0.84000   0.40360   0.83255   0.00000  Uiso   1.00
C1116  C     0.54429   0.14918   0.69756   0.00000  Uiso   1.00
C1117  C     0.52490   0.36026   0.95432   0.00000  Uiso   1.00
C1118  C     0.97510   0.36026   0.71234   0.00000  Uiso   1.00
C1119  C     0.95571   0.14918   0.96911   0.00000  Uiso   1.00
C1120  C     0.79428   0.39917   0.69755   0.00000  Uiso   1.00
C1121  C     0.77490   0.11026   0.95432   0.00000  Uiso   1.00
C1122  C     0.72510   0.11026   0.71234   0.00000  Uiso   1.00
C1123  C     0.70570   0.39919   0.96911   0.00000  Uiso   1.00
C1124  C     0.80884   0.43985   0.83310   0.00000  Uiso   1.00
C1125  C     0.68879   0.05734   0.83368   0.00000  Uiso   1.00
C1126  C     0.69116   0.43985   0.83357   0.00000  Uiso   1.00
C1127  C     0.81121   0.05734   0.83298   0.00000  Uiso   1.00
C1128  C     0.50228   0.21128   0.69134   0.00000  Uiso   1.00
Cu1129 Cu    0.50000   0.25000   0.88022   0.00000  Uiso   1.00
Cu1130 Cu    0.50000   0.25000   0.78645   0.00000  Uiso   1.00
Cu1131 Cu    0.75000   0.00000   0.88022   0.00000  Uiso   1.00
Cu1132 Cu    0.75000   0.00000   0.78645   0.00000  Uiso   1.00
H1133  H     0.55965   0.13249   0.72687   0.00000  Uiso   1.00
H1134  H     0.94034   0.13249   0.93980   0.00000  Uiso   1.00
H1135  H     0.93197   0.17095   0.98659   0.00000  Uiso   1.00
H1136  H     0.96526   0.12241   0.99315   0.00000  Uiso   1.00
H1137  H     0.80965   0.38248   0.72687   0.00000  Uiso   1.00
H1138  H     0.81802   0.42094   0.68006   0.00000  Uiso   1.00
H1139  H     0.78472   0.37240   0.67352   0.00000  Uiso   1.00
H1140  H     0.78952   0.11565   0.92011   0.00000  Uiso   1.00
H1141  H     0.79966   0.10204   0.97992   0.00000  Uiso   1.00
H1142  H     0.76065   0.14284   0.96330   0.00000  Uiso   1.00
H1143  H     0.71048   0.11564   0.74656   0.00000  Uiso   1.00
H1144  H     0.56803   0.17096   0.68009   0.00000  Uiso   1.00
H1145  H     0.70035   0.10204   0.68675   0.00000  Uiso   1.00
H1146  H     0.73935   0.14284   0.70337   0.00000  Uiso   1.00
H1147  H     0.69034   0.38249   0.93979   0.00000  Uiso   1.00
H1148  H     0.68196   0.42098   0.98657   0.00000  Uiso   1.00
H1149  H     0.71523   0.37243   0.99316   0.00000  Uiso   1.00
H1150  H     0.53475   0.12242   0.67351   0.00000  Uiso   1.00
H1151  H     0.53952   0.36565   0.92010   0.00000  Uiso   1.00
H1152  H     0.54965   0.35204   0.97992   0.00000  Uiso   1.00
H1153  H     0.51065   0.39284   0.96330   0.00000  Uiso   1.00
H1154  H     0.96048   0.36564   0.74656   0.00000  Uiso   1.00
H1155  H     0.95035   0.35204   0.68675   0.00000  Uiso   1.00
H1156  H     0.98935   0.39284   0.70337   0.00000  Uiso   1.00
I1157  I     0.96622   0.09818   0.76904   0.00000  Uiso   1.00
I1158  I     0.87416   0.06413   0.92986   0.00000  Uiso   1.00
I1159  I     0.86292   0.06815   0.72636   0.00000  Uiso   1.00
I1160  I     0.61530   0.44650   0.92045   0.00000  Uiso   1.00
I1161  I     0.78379   0.34819   0.89764   0.00000  Uiso   1.00
I1162  I     0.62584   0.06413   0.73681   0.00000  Uiso   1.00
I1163  I     0.63709   0.06816   0.94031   0.00000  Uiso   1.00
I1164  I     0.88467   0.44648   0.74619   0.00000  Uiso   1.00
I1165  I     0.62416   0.31414   0.92986   0.00000  Uiso   1.00
I1166  I     0.61291   0.31815   0.72636   0.00000  Uiso   1.00
I1167  I     0.86532   0.19649   0.92047   0.00000  Uiso   1.00
I1168  I     0.53378   0.09818   0.89763   0.00000  Uiso   1.00
I1169  I     0.87584   0.31413   0.73680   0.00000  Uiso   1.00
I1170  I     0.88709   0.31816   0.94031   0.00000  Uiso   1.00
I1171  I     0.63469   0.19649   0.74620   0.00000  Uiso   1.00
I1172  I     0.71622   0.34818   0.76904   0.00000  Uiso   1.00
N1173  N     0.50000   0.25000   0.95069   0.00000  Uiso   1.00
N1174  N     0.50000   0.25000   0.71598   0.00000  Uiso   1.00
N1175  N     0.75000   0.00000   0.95069   0.00000  Uiso   1.00
N1176  N     0.75000   0.00000   0.71598   0.00000  Uiso   1.00
O1177  O     0.54508   0.20491   0.87291   0.00000  Uiso   1.00
O1178  O     0.70491   0.04509   0.79375   0.00000  Uiso   1.00
O1179  O     0.70491   0.04509   0.87291   0.00000  Uiso   1.00
O1180  O     0.79508   0.45491   0.79375   0.00000  Uiso   1.00
O1181  O     0.70491   0.45491   0.79375   0.00000  Uiso   1.00
O1182  O     0.79508   0.04509   0.87291   0.00000  Uiso   1.00
O1183  O     0.79508   0.04509   0.79375   0.00000  Uiso   1.00
O1184  O     0.70491   0.45491   0.87291   0.00000  Uiso   1.00
O1185  O     0.50867   0.17221   0.71520   0.00000  Uiso   1.00
O1186  O     0.99260   0.32827   0.94994   0.00000  Uiso   1.00
O1187  O     0.50740   0.32827   0.71673   0.00000  Uiso   1.00
O1188  O     0.95491   0.29509   0.79375   0.00000  Uiso   1.00
O1189  O     0.99133   0.17222   0.95147   0.00000  Uiso   1.00
O1190  O     0.75867   0.42221   0.71520   0.00000  Uiso   1.00
O1191  O     0.74260   0.07827   0.94994   0.00000  Uiso   1.00
O1192  O     0.75740   0.07827   0.71673   0.00000  Uiso   1.00
O1193  O     0.74132   0.42222   0.95147   0.00000  Uiso   1.00
O1194  O     0.95491   0.29509   0.87291   0.00000  Uiso   1.00
O1195  O     0.54508   0.20491   0.79375   0.00000  Uiso   1.00
O1196  O     0.95491   0.20491   0.79375   0.00000  Uiso   1.00
O1197  O     0.54508   0.29509   0.87291   0.00000  Uiso   1.00
O1198  O     0.54508   0.29509   0.79375   0.00000  Uiso   1.00
O1199  O     0.95491   0.20491   0.87291   0.00000  Uiso   1.00
O1200  O     0.79508   0.45491   0.87291   0.00000  Uiso   1.00
C1201  C     0.05884   0.68985   0.83310   0.00000  Uiso   1.00
C1202  C     0.00021   0.78959   0.97483   0.00000  Uiso   1.00
C1203  C     0.49979   0.78959   0.69183   0.00000  Uiso   1.00
C1204  C     0.49772   0.71128   0.97532   0.00000  Uiso   1.00
C1205  C     0.25228   0.96128   0.69134   0.00000  Uiso   1.00
C1206  C     0.25021   0.53959   0.97483   0.00000  Uiso   1.00
C1207  C     0.24979   0.53959   0.69183   0.00000  Uiso   1.00
C1208  C     0.24772   0.96128   0.97532   0.00000  Uiso   1.00
C1209  C     0.40901   0.62241   0.79789   0.00000  Uiso   1.00
C1210  C     0.10973   0.85744   0.87403   0.00000  Uiso   1.00
C1211  C     0.12336   0.84544   0.79299   0.00000  Uiso   1.00
C1212  C     0.43879   0.80734   0.83368   0.00000  Uiso   1.00
C1213  C     0.38254   0.64685   0.87194   0.00000  Uiso   1.00
C1214  C     0.09099   0.62241   0.86878   0.00000  Uiso   1.00
C1215  C     0.39027   0.85743   0.79264   0.00000  Uiso   1.00
C1216  C     0.37664   0.84544   0.87367   0.00000  Uiso   1.00
C1217  C     0.11746   0.64685   0.79473   0.00000  Uiso   1.00
C1218  C     0.15901   0.87241   0.79789   0.00000  Uiso   1.00
C1219  C     0.35973   0.60744   0.87403   0.00000  Uiso   1.00
C1220  C     0.37336   0.59544   0.79299   0.00000  Uiso   1.00
C1221  C     0.13254   0.89685   0.87194   0.00000  Uiso   1.00
C1222  C     0.34099   0.87241   0.86878   0.00000  Uiso   1.00
C1223  C     0.44116   0.68985   0.83357   0.00000  Uiso   1.00
C1224  C     0.14027   0.60744   0.79264   0.00000  Uiso   1.00
C1225  C     0.12664   0.59544   0.87367   0.00000  Uiso   1.00
C1226  C     0.36746   0.89685   0.79472   0.00000  Uiso   1.00
C1227  C     0.09784   0.83747   0.83253   0.00000  Uiso   1.00
C1228  C     0.41000   0.65360   0.83412   0.00000  Uiso   1.00
C1229  C     0.40216   0.83746   0.83413   0.00000  Uiso   1.00
C1230  C     0.09000   0.65360   0.83255   0.00000  Uiso   1.00
C1231  C     0.34784   0.58747   0.83253   0.00000  Uiso   1.00
C1232  C     0.16000   0.90360   0.83412   0.00000  Uiso   1.00
C1233  C     0.15216   0.58747   0.83413   0.00000  Uiso   1.00
C1234  C     0.06121   0.80734   0.83298   0.00000  Uiso   1.00
C1235  C     0.34000   0.90360   0.83255   0.00000  Uiso   1.00
C1236  C     0.04429   0.64918   0.69756   0.00000  Uiso   1.00
C1237  C     0.02490   0.86026   0.95432   0.00000  Uiso   1.00
C1238  C     0.47510   0.86026   0.71234   0.00000  Uiso   1.00
C1239  C     0.45571   0.64918   0.96911   0.00000  Uiso   1.00
C1240  C     0.29428   0.89917   0.69755   0.00000  Uiso   1.00
C1241  C     0.27490   0.61026   0.95432   0.00000  Uiso   1.00
C1242  C     0.22510   0.61026   0.71234   0.00000  Uiso   1.00
C1243  C     0.20570   0.89919   0.96911   0.00000  Uiso   1.00
C1244  C     0.30884   0.93985   0.83310   0.00000  Uiso   1.00
C1245  C     0.18879   0.55734   0.83368   0.00000  Uiso   1.00
C1246  C     0.19116   0.93985   0.83357   0.00000  Uiso   1.00
C1247  C     0.31121   0.55734   0.83298   0.00000  Uiso   1.00
C1248  C     0.00228   0.71128   0.69134   0.00000  Uiso   1.00
Cu1249 Cu    0.00000   0.75000   0.88022   0.00000  Uiso   1.00
Cu1250 Cu    0.00000   0.75000   0.78645   0.00000  Uiso   1.00
Cu1251 Cu    0.25000   0.50000   0.88022   0.00000  Uiso   1.00
Cu1252 Cu    0.25000   0.50000   0.78645   0.00000  Uiso   1.00
H1253  H     0.05965   0.63249   0.72687   0.00000  Uiso   1.00
H1254  H     0.44034   0.63249   0.93980   0.00000  Uiso   1.00
H1255  H     0.43197   0.67095   0.98659   0.00000  Uiso   1.00
H1256  H     0.46526   0.62241   0.99315   0.00000  Uiso   1.00
H1257  H     0.30965   0.88248   0.72687   0.00000  Uiso   1.00
H1258  H     0.31802   0.92094   0.68006   0.00000  Uiso   1.00
H1259  H     0.28472   0.87240   0.67352   0.00000  Uiso   1.00
H1260  H     0.28952   0.61565   0.92011   0.00000  Uiso   1.00
H1261  H     0.29966   0.60204   0.97992   0.00000  Uiso   1.00
H1262  H     0.26065   0.64284   0.96330   0.00000  Uiso   1.00
H1263  H     0.21048   0.61564   0.74656   0.00000  Uiso   1.00
H1264  H     0.06803   0.67096   0.68009   0.00000  Uiso   1.00
H1265  H     0.20035   0.60204   0.68675   0.00000  Uiso   1.00
H1266  H     0.23935   0.64284   0.70337   0.00000  Uiso   1.00
H1267  H     0.19034   0.88249   0.93979   0.00000  Uiso   1.00
H1268  H     0.18196   0.92098   0.98657   0.00000  Uiso   1.00
H1269  H     0.21523   0.87243   0.99316   0.00000  Uiso   1.00
H1270  H     0.03475   0.62242   0.67351   0.00000  Uiso   1.00
H1271  H     0.03952   0.86565   0.92010   0.00000  Uiso   1.00
H1272  H     0.04965   0.85204   0.97992   0.00000  Uiso   1.00
H1273  H     0.01065   0.89284   0.96330   0.00000  Uiso   1.00
H1274  H     0.46048   0.86564   0.74656   0.00000  Uiso   1.00
H1275  H     0.45035   0.85204   0.68675   0.00000  Uiso   1.00
H1276  H     0.48935   0.89284   0.70337   0.00000  Uiso   1.00
I1277  I     0.46622   0.59818   0.76904   0.00000  Uiso   1.00
I1278  I     0.37416   0.56413   0.92986   0.00000  Uiso   1.00
I1279  I     0.36292   0.56815   0.72636   0.00000  Uiso   1.00
I1280  I     0.11530   0.94650   0.92045   0.00000  Uiso   1.00
I1281  I     0.28379   0.84819   0.89764   0.00000  Uiso   1.00
I1282  I     0.12584   0.56413   0.73681   0.00000  Uiso   1.00
I1283  I     0.13709   0.56816   0.94031   0.00000  Uiso   1.00
I1284  I     0.38467   0.94648   0.74619   0.00000  Uiso   1.00
I1285  I     0.12416   0.81414   0.92986   0.00000  Uiso   1.00
I1286  I     0.11291   0.81815   0.72636   0.00000  Uiso   1.00
I1287  I     0.36532   0.69649   0.92047   0.00000  Uiso   1.00
I1288  I     0.03378   0.59818   0.89763   0.00000  Uiso   1.00
I1289  I     0.37584   0.81413   0.73680   0.00000  Uiso   1.00
I1290  I     0.38709   0.81816   0.94031   0.00000  Uiso   1.00
I1291  I     0.13469   0.69649   0.74620   0.00000  Uiso   1.00
I1292  I     0.21622   0.84818   0.76904   0.00000  Uiso   1.00
N1293  N     0.00000   0.75000   0.95069   0.00000  Uiso   1.00
N1294  N     0.00000   0.75000   0.71598   0.00000  Uiso   1.00
N1295  N     0.25000   0.50000   0.95069   0.00000  Uiso   1.00
N1296  N     0.25000   0.50000   0.71598   0.00000  Uiso   1.00
O1297  O     0.04508   0.70491   0.87291   0.00000  Uiso   1.00
O1298  O     0.20491   0.54509   0.79375   0.00000  Uiso   1.00
O1299  O     0.20491   0.54509   0.87291   0.00000  Uiso   1.00
O1300  O     0.29508   0.95491   0.79375   0.00000  Uiso   1.00
O1301  O     0.20491   0.95491   0.79375   0.00000  Uiso   1.00
O1302  O     0.29508   0.54509   0.87291   0.00000  Uiso   1.00
O1303  O     0.29508   0.54509   0.79375   0.00000  Uiso   1.00
O1304  O     0.20491   0.95491   0.87291   0.00000  Uiso   1.00
O1305  O     0.00867   0.67221   0.71520   0.00000  Uiso   1.00
O1306  O     0.49260   0.82827   0.94994   0.00000  Uiso   1.00
O1307  O     0.00740   0.82827   0.71673   0.00000  Uiso   1.00
O1308  O     0.45491   0.79509   0.79375   0.00000  Uiso   1.00
O1309  O     0.49133   0.67222   0.95147   0.00000  Uiso   1.00
O1310  O     0.25867   0.92221   0.71520   0.00000  Uiso   1.00
O1311  O     0.24260   0.57827   0.94994   0.00000  Uiso   1.00
O1312  O     0.25740   0.57827   0.71673   0.00000  Uiso   1.00
O1313  O     0.24132   0.92222   0.95147   0.00000  Uiso   1.00
O1314  O     0.45491   0.79509   0.87291   0.00000  Uiso   1.00
O1315  O     0.04508   0.70491   0.79375   0.00000  Uiso   1.00
O1316  O     0.45491   0.70491   0.79375   0.00000  Uiso   1.00
O1317  O     0.04508   0.79509   0.87291   0.00000  Uiso   1.00
O1318  O     0.04508   0.79509   0.79375   0.00000  Uiso   1.00
O1319  O     0.45491   0.70491   0.87291   0.00000  Uiso   1.00
O1320  O     0.29508   0.95491   0.87291   0.00000  Uiso   1.00
C1321  C     0.55884   0.68985   0.83310   0.00000  Uiso   1.00
C1322  C     0.50021   0.78959   0.97483   0.00000  Uiso   1.00
C1323  C     0.99979   0.78959   0.69183   0.00000  Uiso   1.00
C1324  C     0.99772   0.71128   0.97532   0.00000  Uiso   1.00
C1325  C     0.75228   0.96128   0.69134   0.00000  Uiso   1.00
C1326  C     0.75021   0.53959   0.97483   0.00000  Uiso   1.00
C1327  C     0.74979   0.53959   0.69183   0.00000  Uiso   1.00
C1328  C     0.74772   0.96128   0.97532   0.00000  Uiso   1.00
C1329  C     0.90901   0.62241   0.79789   0.00000  Uiso   1.00
C1330  C     0.60973   0.85744   0.87403   0.00000  Uiso   1.00
C1331  C     0.62336   0.84544   0.79299   0.00000  Uiso   1.00
C1332  C     0.93879   0.80734   0.83368   0.00000  Uiso   1.00
C1333  C     0.88254   0.64685   0.87194   0.00000  Uiso   1.00
C1334  C     0.59099   0.62241   0.86878   0.00000  Uiso   1.00
C1335  C     0.89027   0.85743   0.79264   0.00000  Uiso   1.00
C1336  C     0.87664   0.84544   0.87367   0.00000  Uiso   1.00
C1337  C     0.61746   0.64685   0.79473   0.00000  Uiso   1.00
C1338  C     0.65901   0.87241   0.79789   0.00000  Uiso   1.00
C1339  C     0.85973   0.60744   0.87403   0.00000  Uiso   1.00
C1340  C     0.87336   0.59544   0.79299   0.00000  Uiso   1.00
C1341  C     0.63254   0.89685   0.87194   0.00000  Uiso   1.00
C1342  C     0.84099   0.87241   0.86878   0.00000  Uiso   1.00
C1343  C     0.94116   0.68985   0.83357   0.00000  Uiso   1.00
C1344  C     0.64027   0.60744   0.79264   0.00000  Uiso   1.00
C1345  C     0.62664   0.59544   0.87367   0.00000  Uiso   1.00
C1346  C     0.86746   0.89685   0.79472   0.00000  Uiso   1.00
C1347  C     0.59784   0.83747   0.83253   0.00000  Uiso   1.00
C1348  C     0.91000   0.65360   0.83412   0.00000  Uiso   1.00
C1349  C     0.90216   0.83746   0.83413   0.00000  Uiso   1.00
C1350  C     0.59000   0.65360   0.83255   0.00000  Uiso   1.00
C1351  C     0.84784   0.58747   0.83253   0.00000  Uiso   1.00
C1352  C     0.66000   0.90360   0.83412   0.00000  Uiso   1.00
C1353  C     0.65216   0.58747   0.83413   0.00000  Uiso   1.00
C1354  C     0.56121   0.80734   0.83298   0.00000  Uiso   1.00
C1355  C     0.84000   0.90360   0.83255   0.00000  Uiso   1.00
C1356  C     0.54429   0.64918   0.69756   0.00000  Uiso   1.00
C1357  C     0.52490   0.86026   0.95432   0.00000  Uiso   1.00
C1358  C     0.97510   0.86026   0.71234   0.00000  Uiso   1.00
C1359  C     0.95571   0.64918   0.96911   0.00000  Uiso   1.00
C1360  C     0.79428   0.89917   0.69755   0.00000  Uiso   1.00
C1361  C     0.77490   0.61026   0.95432   0.00000  Uiso   1.00
C1362  C     0.72510   0.61026   0.71234   0.00000  Uiso   1.00
C1363  C     0.70570   0.89919   0.96911   0.00000  Uiso   1.00
C1364  C     0.80884   0.93985   0.83310   0.00000  Uiso   1.00
C1365  C     0.68879   0.55734   0.83368   0.00000  Uiso   1.00
C1366  C     0.69116   0.93985   0.83357   0.00000  Uiso   1.00
C1367  C     0.81121   0.55734   0.83298   0.00000  Uiso   1.00
C1368  C     0.50228   0.71128   0.69134   0.00000  Uiso   1.00
Cu1369 Cu    0.50000   0.75000   0.88022   0.00000  Uiso   1.00
Cu1370 Cu    0.50000   0.75000   0.78645   0.00000  Uiso   1.00
Cu1371 Cu    0.75000   0.50000   0.88022   0.00000  Uiso   1.00
Cu1372 Cu    0.75000   0.50000   0.78645   0.00000  Uiso   1.00
H1373  H     0.55965   0.63249   0.72687   0.00000  Uiso   1.00
H1374  H     0.94034   0.63249   0.93980   0.00000  Uiso   1.00
H1375  H     0.93197   0.67095   0.98659   0.00000  Uiso   1.00
H1376  H     0.96526   0.62241   0.99315   0.00000  Uiso   1.00
H1377  H     0.80965   0.88248   0.72687   0.00000  Uiso   1.00
H1378  H     0.81802   0.92094   0.68006   0.00000  Uiso   1.00
H1379  H     0.78472   0.87240   0.67352   0.00000  Uiso   1.00
H1380  H     0.78952   0.61565   0.92011   0.00000  Uiso   1.00
H1381  H     0.79966   0.60204   0.97992   0.00000  Uiso   1.00
H1382  H     0.76065   0.64284   0.96330   0.00000  Uiso   1.00
H1383  H     0.71048   0.61564   0.74656   0.00000  Uiso   1.00
H1384  H     0.56803   0.67096   0.68009   0.00000  Uiso   1.00
H1385  H     0.70035   0.60204   0.68675   0.00000  Uiso   1.00
H1386  H     0.73935   0.64284   0.70337   0.00000  Uiso   1.00
H1387  H     0.69034   0.88249   0.93979   0.00000  Uiso   1.00
H1388  H     0.68196   0.92098   0.98657   0.00000  Uiso   1.00
H1389  H     0.71523   0.87243   0.99316   0.00000  Uiso   1.00
H1390  H     0.53475   0.62242   0.67351   0.00000  Uiso   1.00
H1391  H     0.53952   0.86565   0.92010   0.00000  Uiso   1.00
H1392  H     0.54965   0.85204   0.97992   0.00000  Uiso   1.00
H1393  H     0.51065   0.89284   0.96330   0.00000  Uiso   1.00
H1394  H     0.96048   0.86564   0.74656   0.00000  Uiso   1.00
H1395  H     0.95035   0.85204   0.68675   0.00000  Uiso   1.00
H1396  H     0.98935   0.89284   0.70337   0.00000  Uiso   1.00
I1397  I     0.96622   0.59818   0.76904   0.00000  Uiso   1.00
I1398  I     0.87416   0.56413   0.92986   0.00000  Uiso   1.00
I1399  I     0.86292   0.56815   0.72636   0.00000  Uiso   1.00
I1400  I     0.61530   0.94650   0.92045   0.00000  Uiso   1.00
I1401  I     0.78379   0.84819   0.89764   0.00000  Uiso   1.00
I1402  I     0.62584   0.56413   0.73681   0.00000  Uiso   1.00
I1403  I     0.63709   0.56816   0.94031   0.00000  Uiso   1.00
I1404  I     0.88467   0.94648   0.74619   0.00000  Uiso   1.00
I1405  I     0.62416   0.81414   0.92986   0.00000  Uiso   1.00
I1406  I     0.61291   0.81815   0.72636   0.00000  Uiso   1.00
I1407  I     0.86532   0.69649   0.92047   0.00000  Uiso   1.00
I1408  I     0.53378   0.59818   0.89763   0.00000  Uiso   1.00
I1409  I     0.87584   0.81413   0.73680   0.00000  Uiso   1.00
I1410  I     0.88709   0.81816   0.94031   0.00000  Uiso   1.00
I1411  I     0.63469   0.69649   0.74620   0.00000  Uiso   1.00
I1412  I     0.71622   0.84818   0.76904   0.00000  Uiso   1.00
N1413  N     0.50000   0.75000   0.95069   0.00000  Uiso   1.00
N1414  N     0.50000   0.75000   0.71598   0.00000  Uiso   1.00
N1415  N     0.75000   0.50000   0.95069   0.00000  Uiso   1.00
N1416  N     0.75000   0.50000   0.71598   0.00000  Uiso   1.00
O1417  O     0.54508   0.70491   0.87291   0.00000  Uiso   1.00
O1418  O     0.70491   0.54509   0.79375   0.00000  Uiso   1.00
O1419  O     0.70491   0.54509   0.87291   0.00000  Uiso   1.00
O1420  O     0.79508   0.95491   0.79375   0.00000  Uiso   1.00
O1421  O     0.70491   0.95491   0.79375   0.00000  Uiso   1.00
O1422  O     0.79508   0.54509   0.87291   0.00000  Uiso   1.00
O1423  O     0.79508   0.54509   0.79375   0.00000  Uiso   1.00
O1424  O     0.70491   0.95491   0.87291   0.00000  Uiso   1.00
O1425  O     0.50867   0.67221   0.71520   0.00000  Uiso   1.00
O1426  O     0.99260   0.82827   0.94994   0.00000  Uiso   1.00
O1427  O     0.50740   0.82827   0.71673   0.00000  Uiso   1.00
O1428  O     0.95491   0.79509   0.79375   0.00000  Uiso   1.00
O1429  O     0.99133   0.67222   0.95147   0.00000  Uiso   1.00
O1430  O     0.75867   0.92221   0.71520   0.00000  Uiso   1.00
O1431  O     0.74260   0.57827   0.94994   0.00000  Uiso   1.00
O1432  O     0.75740   0.57827   0.71673   0.00000  Uiso   1.00
O1433  O     0.74132   0.92222   0.95147   0.00000  Uiso   1.00
O1434  O     0.95491   0.79509   0.87291   0.00000  Uiso   1.00
O1435  O     0.54508   0.70491   0.79375   0.00000  Uiso   1.00
O1436  O     0.95491   0.70491   0.79375   0.00000  Uiso   1.00
O1437  O     0.54508   0.79509   0.87291   0.00000  Uiso   1.00
O1438  O     0.54508   0.79509   0.79375   0.00000  Uiso   1.00
O1439  O     0.95491   0.70491   0.87291   0.00000  Uiso   1.00
O1440  O     0.79508   0.95491   0.87291   0.00000  Uiso   1.00
loop_
_geom_bond_atom_site_label_1
_geom_bond_atom_site_label_2
_geom_bond_distance
_geom_bond_site_symmetry_2
_ccdc_geom_bond_type
C1     O97     1.308   .     A
C1     C30     1.469   .     S
C1     O115    1.303   .     A
C2     N93     1.378   .     A
C2     C603    1.456   1_455 S
C2     O226    1.388   1_455 S
C3     C1082   1.456   1_554 S
C3     N214    1.378   .     S
C3     O227    1.388   .     S
C4     O109    1.376   .     S
C4     C648    1.436   .     S
C4     N213    1.364   .     S
C5     O110    1.376   .     S
C5     C968    1.436   1_554 S
C5     N336    1.364   .     S
C6     O111    1.388   .     S
C6     N95     1.378   .     A
C6     C487    1.456   .     S
C7     O112    1.388   .     S
C7     N96     1.378   .     A
C7     C966    1.456   1_554 S
C8     O113    1.376   .     S
C8     C485    1.436   .     S
C8     N335    1.364   .     S
C9     C20     1.398   .     A
C9     I77     2.118   .     S
C9     C28     1.406   .     A
C10    C27     1.396   .     A
C10    I85     2.126   .     S
C10    C21     1.387   .     A
C11    C18     1.398   .     A
C11    I86     2.123   .     S
C11    C27     1.415   .     A
C12    C29     1.471   .     S
C12    O114    1.302   .     A
C12    O108    1.311   .     A
C13    C28     1.407   .     A
C13    C19     1.387   .     A
C13    I87     2.115   .     S
C14    C30     1.406   .     A
C14    I88     2.118   .     S
C14    C25     1.398   .     A
C15    C29     1.396   .     A
C15    C26     1.387   .     A
C15    I89     2.126   .     S
C16    I90     2.123   .     S
C16    C22     1.398   .     A
C16    C29     1.415   .     A
C17    I91     2.115   .     S
C17    C30     1.407   .     A
C17    C24     1.387   .     A
C18    C32     1.406   .     A
C18    I92     2.118   .     S
C19    C31     1.396   .     A
C19    I78     2.126   .     S
C20    I79     2.123   .     S
C20    C31     1.415   .     A
C21    C32     1.407   .     A
C21    I80     2.115   .     S
C22    C35     1.406   .     A
C22    I81     2.118   .     S
C23    O119    1.303   .     A
C23    O116    1.308   .     A
C23    C28     1.469   .     S
C24    I82     2.126   .     S
C24    C33     1.396   .     A
C25    I83     2.123   .     S
C25    C33     1.415   .     A
C26    I84     2.115   .     S
C26    C35     1.407   .     A
C27    C34     1.471   .     S
C31    C47     1.471   .     S
C32    C46     1.469   .     S
C33    C45     1.471   .     S
C34    O118    1.302   .     A
C34    O117    1.311   .     A
C35    C44     1.469   .     S
C36    H53     1.102   .     S
C36    H70     1.106   .     S
C36    O105    1.415   .     S
C36    H64     1.114   .     S
C37    H71     1.101   .     S
C37    H73     1.107   .     S
C37    H72     1.111   .     S
C37    O226    1.410   1_455 S
C38    H76     1.107   .     S
C38    H75     1.111   .     S
C38    H74     1.101   .     S
C38    O227    1.410   .     S
C39    H54     1.102   .     S
C39    H55     1.114   .     S
C39    H56     1.106   .     S
C39    O109    1.415   .     S
C40    H58     1.114   .     S
C40    O110    1.415   .     S
C40    H57     1.102   .     S
C40    H59     1.106   .     S
C41    H61     1.111   .     S
C41    H62     1.107   .     S
C41    H60     1.101   .     S
C41    O111    1.410   .     S
C42    O112    1.410   .     S
C42    H65     1.111   .     S
C42    H66     1.107   .     S
C42    H63     1.101   .     S
C43    H68     1.114   .     S
C43    H67     1.102   .     S
C43    O113    1.415   .     S
C43    H69     1.106   .     S
C44    O120    1.308   .     A
C44    O100    1.303   .     A
C45    O98     1.311   .     A
C45    O99     1.302   .     A
C46    O101    1.308   .     A
C46    O104    1.303   .     A
C47    O102    1.311   .     A
C47    O103    1.302   .     A
C48    N94     1.364   .     A
C48    O105    1.376   .     S
C48    C1084   1.436   1_454 S
Cu49   O117    1.978   .     S
Cu49   O97     1.978   .     S
Cu49   Cu50    2.712   .     S
Cu49   N93     2.038   .     S
Cu49   O234    1.980   1_455 S
Cu49   O239    1.980   1_455 S
Cu50   O115    1.980   .     S
Cu50   N94     2.038   .     S
Cu50   O118    1.980   .     S
Cu50   O228    1.978   1_455 S
Cu50   O236    1.978   1_455 S
Cu51   O102    1.978   .     S
Cu51   O99     1.980   .     S
Cu51   Cu52    2.712   .     S
Cu51   N95     2.038   .     S
Cu51   O344    1.980   1_545 S
Cu51   O360    1.978   1_545 S
Cu52   O103    1.980   .     S
Cu52   O98     1.978   .     S
Cu52   N96     2.038   .     S
Cu52   O340    1.980   1_545 S
Cu52   O341    1.978   1_545 S
N93    C124    1.364   1_455 S
N94    C123    1.378   1_455 S
N95    C248    1.364   1_545 S
N96    C245    1.364   1_545 S
O100   Cu292   1.980   .     S
O101   Cu292   1.978   .     S
O104   Cu291   1.980   .     S
O106   C157    1.410   .     S
O106   C122    1.388   .     S
O107   C158    1.410   1_455 S
O107   C123    1.388   1_455 S
O108   Cu170   1.978   .     S
O114   Cu169   1.980   .     S
O116   Cu170   1.978   .     S
O119   Cu169   1.980   .     S
O120   Cu291   1.978   .     S
C121   O217    1.308   .     A
C121   C150    1.469   .     S
C121   O235    1.303   .     A
C122   N213    1.378   .     A
C122   C483    1.456   .     S
C123   C962    1.456   1_654 S
C123   N94     1.378   1_655 S
C123   O107    1.388   1_655 S
C124   O229    1.376   .     S
C124   C528    1.436   1_655 S
C124   N93     1.364   1_655 S
C125   O230    1.376   .     S
C125   C1088   1.436   1_554 S
C125   N456    1.364   .     S
C126   O231    1.388   .     S
C126   N215    1.378   .     A
C126   C607    1.456   .     S
C127   O232    1.388   .     S
C127   N216    1.378   .     A
C127   C1086   1.456   1_554 S
C128   O233    1.376   .     S
C128   C605    1.436   .     S
C128   N455    1.364   .     S
C129   C140    1.398   .     A
C129   I197    2.118   .     S
C129   C148    1.406   .     A
C130   C147    1.396   .     A
C130   I205    2.126   .     S
C130   C141    1.387   .     A
C131   C138    1.398   .     A
C131   I206    2.123   .     S
C131   C147    1.415   .     A
C132   C149    1.471   .     S
C132   O234    1.302   .     A
C132   O228    1.311   .     A
C133   C148    1.407   .     A
C133   C139    1.387   .     A
C133   I207    2.115   .     S
C134   C150    1.406   .     A
C134   I208    2.118   .     S
C134   C145    1.398   .     A
C135   C149    1.396   .     A
C135   C146    1.387   .     A
C135   I209    2.126   .     S
C136   I210    2.123   .     S
C136   C142    1.398   .     A
C136   C149    1.415   .     A
C137   I211    2.115   .     S
C137   C150    1.407   .     A
C137   C144    1.387   .     A
C138   C152    1.406   .     A
C138   I212    2.118   .     S
C139   C151    1.396   .     A
C139   I198    2.126   .     S
C140   I199    2.123   .     S
C140   C151    1.415   .     A
C141   C152    1.407   .     A
C141   I200    2.115   .     S
C142   C155    1.406   .     A
C142   I201    2.118   .     S
C143   O239    1.303   .     A
C143   O236    1.308   .     A
C143   C148    1.469   .     S
C144   I202    2.126   .     S
C144   C153    1.396   .     A
C145   I203    2.123   .     S
C145   C153    1.415   .     A
C146   I204    2.115   .     S
C146   C155    1.407   .     A
C147   C154    1.471   .     S
C151   C167    1.471   .     S
C152   C166    1.469   .     S
C153   C165    1.471   .     S
C154   O238    1.302   .     A
C154   O237    1.311   .     A
C155   C164    1.469   .     S
C156   H173    1.102   .     S
C156   H190    1.106   .     S
C156   O225    1.415   .     S
C156   H184    1.114   .     S
C157   H191    1.101   .     S
C157   H193    1.107   .     S
C157   H192    1.111   .     S
C158   H196    1.107   .     S
C158   H195    1.111   .     S
C158   H194    1.101   .     S
C158   O107    1.410   1_655 S
C159   H174    1.102   .     S
C159   H175    1.114   .     S
C159   H176    1.106   .     S
C159   O229    1.415   .     S
C160   H178    1.114   .     S
C160   O230    1.415   .     S
C160   H177    1.102   .     S
C160   H179    1.106   .     S
C161   H181    1.111   .     S
C161   H182    1.107   .     S
C161   H180    1.101   .     S
C161   O231    1.410   .     S
C162   O232    1.410   .     S
C162   H185    1.111   .     S
C162   H186    1.107   .     S
C162   H183    1.101   .     S
C163   H188    1.114   .     S
C163   H187    1.102   .     S
C163   O233    1.415   .     S
C163   H189    1.106   .     S
C164   O240    1.308   .     A
C164   O220    1.303   .     A
C165   O218    1.311   .     A
C165   O219    1.302   .     A
C166   O221    1.308   .     A
C166   O224    1.303   .     A
C167   O222    1.311   .     A
C167   O223    1.302   .     A
C168   N214    1.364   .     A
C168   O225    1.376   .     S
C168   C964    1.436   1_554 S
Cu169  O237    1.978   .     S
Cu169  O217    1.978   .     S
Cu169  Cu170   2.712   .     S
Cu169  N213    2.038   .     S
Cu170  O235    1.980   .     S
Cu170  N214    2.038   .     S
Cu170  O238    1.980   .     S
Cu171  O222    1.978   .     S
Cu171  O219    1.980   .     S
Cu171  Cu172   2.712   .     S
Cu171  N215    2.038   .     S
Cu171  O464    1.980   1_545 S
Cu171  O480    1.978   1_545 S
Cu172  O223    1.980   .     S
Cu172  O218    1.978   .     S
Cu172  N216    2.038   .     S
Cu172  O460    1.980   1_545 S
Cu172  O461    1.978   1_545 S
N215   C368    1.364   1_545 S
N216   C365    1.364   1_545 S
O220   Cu412   1.980   .     S
O221   Cu412   1.978   .     S
O224   Cu411   1.980   .     S
O226   C37     1.410   1_655 S
O226   C2      1.388   1_655 S
O228   Cu50    1.978   1_655 S
O234   Cu49    1.980   1_655 S
O236   Cu50    1.978   1_655 S
O239   Cu49    1.980   1_655 S
O240   Cu411   1.978   .     S
C241   O337    1.308   .     A
C241   C270    1.469   .     S
C241   O355    1.303   .     A
C242   N333    1.378   .     A
C242   C843    1.456   1_455 S
C242   O466    1.388   1_455 S
C243   C1322   1.456   1_554 S
C243   N454    1.378   .     S
C243   O467    1.388   .     S
C244   O349    1.376   .     S
C244   C888    1.436   .     S
C244   N453    1.364   .     S
C245   O350    1.376   .     S
C245   C1208   1.436   1_554 S
C245   N96     1.364   1_565 S
C246   O351    1.388   .     S
C246   N335    1.378   .     A
C246   C727    1.456   .     S
C247   O352    1.388   .     S
C247   N336    1.378   .     A
C247   C1206   1.456   1_554 S
C248   O353    1.376   .     S
C248   C725    1.436   .     S
C248   N95     1.364   1_565 S
C249   C260    1.398   .     A
C249   I317    2.118   .     S
C249   C268    1.406   .     A
C250   C267    1.396   .     A
C250   I325    2.126   .     S
C250   C261    1.387   .     A
C251   C258    1.398   .     A
C251   I326    2.123   .     S
C251   C267    1.415   .     A
C252   C269    1.471   .     S
C252   O354    1.302   .     A
C252   O348    1.311   .     A
C253   C268    1.407   .     A
C253   C259    1.387   .     A
C253   I327    2.115   .     S
C254   C270    1.406   .     A
C254   I328    2.118   .     S
C254   C265    1.398   .     A
C255   C269    1.396   .     A
C255   C266    1.387   .     A
C255   I329    2.126   .     S
C256   I330    2.123   .     S
C256   C262    1.398   .     A
C256   C269    1.415   .     A
C257   I331    2.115   .     S
C257   C270    1.407   .     A
C257   C264    1.387   .     A
C258   C272    1.406   .     A
C258   I332    2.118   .     S
C259   C271    1.396   .     A
C259   I318    2.126   .     S
C260   I319    2.123   .     S
C260   C271    1.415   .     A
C261   C272    1.407   .     A
C261   I320    2.115   .     S
C262   C275    1.406   .     A
C262   I321    2.118   .     S
C263   O359    1.303   .     A
C263   O356    1.308   .     A
C263   C268    1.469   .     S
C264   I322    2.126   .     S
C264   C273    1.396   .     A
C265   I323    2.123   .     S
C265   C273    1.415   .     A
C266   I324    2.115   .     S
C266   C275    1.407   .     A
C267   C274    1.471   .     S
C271   C287    1.471   .     S
C272   C286    1.469   .     S
C273   C285    1.471   .     S
C274   O358    1.302   .     A
C274   O357    1.311   .     A
C275   C284    1.469   .     S
C276   H293    1.102   .     S
C276   H310    1.106   .     S
C276   O345    1.415   .     S
C276   H304    1.114   .     S
C277   H311    1.101   .     S
C277   H313    1.107   .     S
C277   H312    1.111   .     S
C277   O466    1.410   1_455 S
C278   H316    1.107   .     S
C278   H315    1.111   .     S
C278   H314    1.101   .     S
C278   O467    1.410   .     S
C279   H294    1.102   .     S
C279   H295    1.114   .     S
C279   H296    1.106   .     S
C279   O349    1.415   .     S
C280   H298    1.114   .     S
C280   O350    1.415   .     S
C280   H297    1.102   .     S
C280   H299    1.106   .     S
C281   H301    1.111   .     S
C281   H302    1.107   .     S
C281   H300    1.101   .     S
C281   O351    1.410   .     S
C282   O352    1.410   .     S
C282   H305    1.111   .     S
C282   H306    1.107   .     S
C282   H303    1.101   .     S
C283   H308    1.114   .     S
C283   H307    1.102   .     S
C283   O353    1.415   .     S
C283   H309    1.106   .     S
C284   O360    1.308   .     A
C284   O340    1.303   .     A
C285   O338    1.311   .     A
C285   O339    1.302   .     A
C286   O341    1.308   .     A
C286   O344    1.303   .     A
C287   O342    1.311   .     A
C287   O343    1.302   .     A
C288   N334    1.364   .     A
C288   O345    1.376   .     S
C288   C1324   1.436   1_454 S
Cu289  O357    1.978   .     S
Cu289  O337    1.978   .     S
Cu289  Cu290   2.712   .     S
Cu289  N333    2.038   .     S
Cu289  O474    1.980   1_455 S
Cu289  O479    1.980   1_455 S
Cu290  O355    1.980   .     S
Cu290  N334    2.038   .     S
Cu290  O358    1.980   .     S
Cu290  O468    1.978   1_455 S
Cu290  O476    1.978   1_455 S
Cu291  O342    1.978   .     S
Cu291  O339    1.980   .     S
Cu291  Cu292   2.712   .     S
Cu291  N335    2.038   .     S
Cu292  O343    1.980   .     S
Cu292  O338    1.978   .     S
Cu292  N336    2.038   .     S
N333   C364    1.364   1_455 S
N334   C363    1.378   1_455 S
O340   Cu52    1.980   1_565 S
O341   Cu52    1.978   1_565 S
O344   Cu51    1.980   1_565 S
O346   C397    1.410   .     S
O346   C362    1.388   .     S
O347   C398    1.410   1_455 S
O347   C363    1.388   1_455 S
O348   Cu410   1.978   .     S
O354   Cu409   1.980   .     S
O356   Cu410   1.978   .     S
O359   Cu409   1.980   .     S
O360   Cu51    1.978   1_565 S
C361   O457    1.308   .     A
C361   C390    1.469   .     S
C361   O475    1.303   .     A
C362   N453    1.378   .     A
C362   C723    1.456   .     S
C363   C1202   1.456   1_654 S
C363   N334    1.378   1_655 S
C363   O347    1.388   1_655 S
C364   O469    1.376   .     S
C364   C768    1.436   1_655 S
C364   N333    1.364   1_655 S
C365   O470    1.376   .     S
C365   C1328   1.436   1_554 S
C365   N216    1.364   1_565 S
C366   O471    1.388   .     S
C366   N455    1.378   .     A
C366   C847    1.456   .     S
C367   O472    1.388   .     S
C367   N456    1.378   .     A
C367   C1326   1.456   1_554 S
C368   O473    1.376   .     S
C368   C845    1.436   .     S
C368   N215    1.364   1_565 S
C369   C380    1.398   .     A
C369   I437    2.118   .     S
C369   C388    1.406   .     A
C370   C387    1.396   .     A
C370   I445    2.126   .     S
C370   C381    1.387   .     A
C371   C378    1.398   .     A
C371   I446    2.123   .     S
C371   C387    1.415   .     A
C372   C389    1.471   .     S
C372   O474    1.302   .     A
C372   O468    1.311   .     A
C373   C388    1.407   .     A
C373   C379    1.387   .     A
C373   I447    2.115   .     S
C374   C390    1.406   .     A
C374   I448    2.118   .     S
C374   C385    1.398   .     A
C375   C389    1.396   .     A
C375   C386    1.387   .     A
C375   I449    2.126   .     S
C376   I450    2.123   .     S
C376   C382    1.398   .     A
C376   C389    1.415   .     A
C377   I451    2.115   .     S
C377   C390    1.407   .     A
C377   C384    1.387   .     A
C378   C392    1.406   .     A
C378   I452    2.118   .     S
C379   C391    1.396   .     A
C379   I438    2.126   .     S
C380   I439    2.123   .     S
C380   C391    1.415   .     A
C381   C392    1.407   .     A
C381   I440    2.115   .     S
C382   C395    1.406   .     A
C382   I441    2.118   .     S
C383   O479    1.303   .     A
C383   O476    1.308   .     A
C383   C388    1.469   .     S
C384   I442    2.126   .     S
C384   C393    1.396   .     A
C385   I443    2.123   .     S
C385   C393    1.415   .     A
C386   I444    2.115   .     S
C386   C395    1.407   .     A
C387   C394    1.471   .     S
C391   C407    1.471   .     S
C392   C406    1.469   .     S
C393   C405    1.471   .     S
C394   O478    1.302   .     A
C394   O477    1.311   .     A
C395   C404    1.469   .     S
C396   H413    1.102   .     S
C396   H430    1.106   .     S
C396   O465    1.415   .     S
C396   H424    1.114   .     S
C397   H431    1.101   .     S
C397   H433    1.107   .     S
C397   H432    1.111   .     S
C398   H436    1.107   .     S
C398   H435    1.111   .     S
C398   H434    1.101   .     S
C398   O347    1.410   1_655 S
C399   H414    1.102   .     S
C399   H415    1.114   .     S
C399   H416    1.106   .     S
C399   O469    1.415   .     S
C400   H418    1.114   .     S
C400   O470    1.415   .     S
C400   H417    1.102   .     S
C400   H419    1.106   .     S
C401   H421    1.111   .     S
C401   H422    1.107   .     S
C401   H420    1.101   .     S
C401   O471    1.410   .     S
C402   O472    1.410   .     S
C402   H425    1.111   .     S
C402   H426    1.107   .     S
C402   H423    1.101   .     S
C403   H428    1.114   .     S
C403   H427    1.102   .     S
C403   O473    1.415   .     S
C403   H429    1.106   .     S
C404   O480    1.308   .     A
C404   O460    1.303   .     A
C405   O458    1.311   .     A
C405   O459    1.302   .     A
C406   O461    1.308   .     A
C406   O464    1.303   .     A
C407   O462    1.311   .     A
C407   O463    1.302   .     A
C408   N454    1.364   .     A
C408   O465    1.376   .     S
C408   C1204   1.436   1_554 S
Cu409  O477    1.978   .     S
Cu409  O457    1.978   .     S
Cu409  Cu410   2.712   .     S
Cu409  N453    2.038   .     S
Cu410  O475    1.980   .     S
Cu410  N454    2.038   .     S
Cu410  O478    1.980   .     S
Cu411  O462    1.978   .     S
Cu411  O459    1.980   .     S
Cu411  Cu412   2.712   .     S
Cu411  N455    2.038   .     S
Cu412  O463    1.980   .     S
Cu412  O458    1.978   .     S
Cu412  N456    2.038   .     S
O460   Cu172   1.980   1_565 S
O461   Cu172   1.978   1_565 S
O464   Cu171   1.980   1_565 S
O466   C277    1.410   1_655 S
O466   C242    1.388   1_655 S
O468   Cu290   1.978   1_655 S
O474   Cu289   1.980   1_655 S
O476   Cu290   1.978   1_655 S
O479   Cu289   1.980   1_655 S
O480   Cu171   1.978   1_565 S
C481   O577    1.308   .     A
C481   C510    1.469   .     S
C481   O595    1.303   .     A
C482   N573    1.378   .     A
C482   C1083   1.456   1_455 S
C482   O706    1.388   1_455 S
C483   N694    1.378   .     S
C483   O707    1.388   .     S
C484   O589    1.376   .     S
C484   C1128   1.436   .     S
C484   N693    1.364   .     S
C485   O590    1.376   .     S
C485   N816    1.364   .     S
C486   O591    1.388   .     S
C486   N575    1.378   .     A
C486   C967    1.456   .     S
C487   O592    1.388   .     S
C487   N576    1.378   .     A
C488   O593    1.376   .     S
C488   C965    1.436   .     S
C488   N815    1.364   .     S
C489   C500    1.398   .     A
C489   I557    2.118   .     S
C489   C508    1.406   .     A
C490   C507    1.396   .     A
C490   I565    2.126   .     S
C490   C501    1.387   .     A
C491   C498    1.398   .     A
C491   I566    2.123   .     S
C491   C507    1.415   .     A
C492   C509    1.471   .     S
C492   O594    1.302   .     A
C492   O588    1.311   .     A
C493   C508    1.407   .     A
C493   C499    1.387   .     A
C493   I567    2.115   .     S
C494   C510    1.406   .     A
C494   I568    2.118   .     S
C494   C505    1.398   .     A
C495   C509    1.396   .     A
C495   C506    1.387   .     A
C495   I569    2.126   .     S
C496   I570    2.123   .     S
C496   C502    1.398   .     A
C496   C509    1.415   .     A
C497   I571    2.115   .     S
C497   C510    1.407   .     A
C497   C504    1.387   .     A
C498   C512    1.406   .     A
C498   I572    2.118   .     S
C499   C511    1.396   .     A
C499   I558    2.126   .     S
C500   I559    2.123   .     S
C500   C511    1.415   .     A
C501   C512    1.407   .     A
C501   I560    2.115   .     S
C502   C515    1.406   .     A
C502   I561    2.118   .     S
C503   O599    1.303   .     A
C503   O596    1.308   .     A
C503   C508    1.469   .     S
C504   I562    2.126   .     S
C504   C513    1.396   .     A
C505   I563    2.123   .     S
C505   C513    1.415   .     A
C506   I564    2.115   .     S
C506   C515    1.407   .     A
C507   C514    1.471   .     S
C511   C527    1.471   .     S
C512   C526    1.469   .     S
C513   C525    1.471   .     S
C514   O598    1.302   .     A
C514   O597    1.311   .     A
C515   C524    1.469   .     S
C516   H533    1.102   .     S
C516   H550    1.106   .     S
C516   O585    1.415   .     S
C516   H544    1.114   .     S
C517   H551    1.101   .     S
C517   H553    1.107   .     S
C517   H552    1.111   .     S
C517   O706    1.410   1_455 S
C518   H556    1.107   .     S
C518   H555    1.111   .     S
C518   H554    1.101   .     S
C518   O707    1.410   .     S
C519   H534    1.102   .     S
C519   H535    1.114   .     S
C519   H536    1.106   .     S
C519   O589    1.415   .     S
C520   H538    1.114   .     S
C520   O590    1.415   .     S
C520   H537    1.102   .     S
C520   H539    1.106   .     S
C521   H541    1.111   .     S
C521   H542    1.107   .     S
C521   H540    1.101   .     S
C521   O591    1.410   .     S
C522   O592    1.410   .     S
C522   H545    1.111   .     S
C522   H546    1.107   .     S
C522   H543    1.101   .     S
C523   H548    1.114   .     S
C523   H547    1.102   .     S
C523   O593    1.415   .     S
C523   H549    1.106   .     S
C524   O600    1.308   .     A
C524   O580    1.303   .     A
C525   O578    1.311   .     A
C525   O579    1.302   .     A
C526   O581    1.308   .     A
C526   O584    1.303   .     A
C527   O582    1.311   .     A
C527   O583    1.302   .     A
C528   N574    1.364   .     A
C528   O585    1.376   .     S
C528   C124    1.436   1_455 S
Cu529  O597    1.978   .     S
Cu529  O577    1.978   .     S
Cu529  Cu530   2.712   .     S
Cu529  N573    2.038   .     S
Cu529  O714    1.980   1_455 S
Cu529  O719    1.980   1_455 S
Cu530  O595    1.980   .     S
Cu530  N574    2.038   .     S
Cu530  O598    1.980   .     S
Cu530  O708    1.978   1_455 S
Cu530  O716    1.978   1_455 S
Cu531  O582    1.978   .     S
Cu531  O579    1.980   .     S
Cu531  Cu532   2.712   .     S
Cu531  N575    2.038   .     S
Cu531  O824    1.980   1_545 S
Cu531  O840    1.978   1_545 S
Cu532  O583    1.980   .     S
Cu532  O578    1.978   .     S
Cu532  N576    2.038   .     S
Cu532  O820    1.980   1_545 S
Cu532  O821    1.978   1_545 S
N573   C604    1.364   1_455 S
N574   C603    1.378   1_455 S
N575   C728    1.364   1_545 S
N576   C725    1.364   1_545 S
O580   Cu772   1.980   .     S
O581   Cu772   1.978   .     S
O584   Cu771   1.980   .     S
O586   C637    1.410   .     S
O586   C602    1.388   .     S
O587   C638    1.410   1_455 S
O587   C603    1.388   1_455 S
O588   Cu650   1.978   .     S
O594   Cu649   1.980   .     S
O596   Cu650   1.978   .     S
O599   Cu649   1.980   .     S
O600   Cu771   1.978   .     S
C601   O697    1.308   .     A
C601   C630    1.469   .     S
C601   O715    1.303   .     A
C602   N693    1.378   .     A
C602   C963    1.456   .     S
C603   C2      1.456   1_655 S
C603   N574    1.378   1_655 S
C603   O587    1.388   1_655 S
C604   O709    1.376   .     S
C604   C1008   1.436   1_655 S
C604   N573    1.364   1_655 S
C605   O710    1.376   .     S
C605   N936    1.364   .     S
C606   O711    1.388   .     S
C606   N695    1.378   .     A
C606   C1087   1.456   .     S
C607   O712    1.388   .     S
C607   N696    1.378   .     A
C608   O713    1.376   .     S
C608   C1085   1.436   .     S
C608   N935    1.364   .     S
C609   C620    1.398   .     A
C609   I677    2.118   .     S
C609   C628    1.406   .     A
C610   C627    1.396   .     A
C610   I685    2.126   .     S
C610   C621    1.387   .     A
C611   C618    1.398   .     A
C611   I686    2.123   .     S
C611   C627    1.415   .     A
C612   C629    1.471   .     S
C612   O714    1.302   .     A
C612   O708    1.311   .     A
C613   C628    1.407   .     A
C613   C619    1.387   .     A
C613   I687    2.115   .     S
C614   C630    1.406   .     A
C614   I688    2.118   .     S
C614   C625    1.398   .     A
C615   C629    1.396   .     A
C615   C626    1.387   .     A
C615   I689    2.126   .     S
C616   I690    2.123   .     S
C616   C622    1.398   .     A
C616   C629    1.415   .     A
C617   I691    2.115   .     S
C617   C630    1.407   .     A
C617   C624    1.387   .     A
C618   C632    1.406   .     A
C618   I692    2.118   .     S
C619   C631    1.396   .     A
C619   I678    2.126   .     S
C620   I679    2.123   .     S
C620   C631    1.415   .     A
C621   C632    1.407   .     A
C621   I680    2.115   .     S
C622   C635    1.406   .     A
C622   I681    2.118   .     S
C623   O719    1.303   .     A
C623   O716    1.308   .     A
C623   C628    1.469   .     S
C624   I682    2.126   .     S
C624   C633    1.396   .     A
C625   I683    2.123   .     S
C625   C633    1.415   .     A
C626   I684    2.115   .     S
C626   C635    1.407   .     A
C627   C634    1.471   .     S
C631   C647    1.471   .     S
C632   C646    1.469   .     S
C633   C645    1.471   .     S
C634   O718    1.302   .     A
C634   O717    1.311   .     A
C635   C644    1.469   .     S
C636   H653    1.102   .     S
C636   H670    1.106   .     S
C636   O705    1.415   .     S
C636   H664    1.114   .     S
C637   H671    1.101   .     S
C637   H673    1.107   .     S
C637   H672    1.111   .     S
C638   H676    1.107   .     S
C638   H675    1.111   .     S
C638   H674    1.101   .     S
C638   O587    1.410   1_655 S
C639   H654    1.102   .     S
C639   H655    1.114   .     S
C639   H656    1.106   .     S
C639   O709    1.415   .     S
C640   H658    1.114   .     S
C640   O710    1.415   .     S
C640   H657    1.102   .     S
C640   H659    1.106   .     S
C641   H661    1.111   .     S
C641   H662    1.107   .     S
C641   H660    1.101   .     S
C641   O711    1.410   .     S
C642   O712    1.410   .     S
C642   H665    1.111   .     S
C642   H666    1.107   .     S
C642   H663    1.101   .     S
C643   H668    1.114   .     S
C643   H667    1.102   .     S
C643   O713    1.415   .     S
C643   H669    1.106   .     S
C644   O720    1.308   .     A
C644   O700    1.303   .     A
C645   O698    1.311   .     A
C645   O699    1.302   .     A
C646   O701    1.308   .     A
C646   O704    1.303   .     A
C647   O702    1.311   .     A
C647   O703    1.302   .     A
C648   N694    1.364   .     A
C648   O705    1.376   .     S
Cu649  O717    1.978   .     S
Cu649  O697    1.978   .     S
Cu649  Cu650   2.712   .     S
Cu649  N693    2.038   .     S
Cu650  O715    1.980   .     S
Cu650  N694    2.038   .     S
Cu650  O718    1.980   .     S
Cu651  O702    1.978   .     S
Cu651  O699    1.980   .     S
Cu651  Cu652   2.712   .     S
Cu651  N695    2.038   .     S
Cu651  O944    1.980   1_545 S
Cu651  O960    1.978   1_545 S
Cu652  O703    1.980   .     S
Cu652  O698    1.978   .     S
Cu652  N696    2.038   .     S
Cu652  O940    1.980   1_545 S
Cu652  O941    1.978   1_545 S
N695   C848    1.364   1_545 S
N696   C845    1.364   1_545 S
O700   Cu892   1.980   .     S
O701   Cu892   1.978   .     S
O704   Cu891   1.980   .     S
O706   C517    1.410   1_655 S
O706   C482    1.388   1_655 S
O708   Cu530   1.978   1_655 S
O714   Cu529   1.980   1_655 S
O716   Cu530   1.978   1_655 S
O719   Cu529   1.980   1_655 S
O720   Cu891   1.978   .     S
C721   O817    1.308   .     A
C721   C750    1.469   .     S
C721   O835    1.303   .     A
C722   N813    1.378   .     A
C722   C1323   1.456   1_455 S
C722   O946    1.388   1_455 S
C723   N934    1.378   .     S
C723   O947    1.388   .     S
C724   O829    1.376   .     S
C724   C1368   1.436   .     S
C724   N933    1.364   .     S
C725   O830    1.376   .     S
C725   N576    1.364   1_565 S
C726   O831    1.388   .     S
C726   N815    1.378   .     A
C726   C1207   1.456   .     S
C727   O832    1.388   .     S
C727   N816    1.378   .     A
C728   O833    1.376   .     S
C728   C1205   1.436   .     S
C728   N575    1.364   1_565 S
C729   C740    1.398   .     A
C729   I797    2.118   .     S
C729   C748    1.406   .     A
C730   C747    1.396   .     A
C730   I805    2.126   .     S
C730   C741    1.387   .     A
C731   C738    1.398   .     A
C731   I806    2.123   .     S
C731   C747    1.415   .     A
C732   C749    1.471   .     S
C732   O834    1.302   .     A
C732   O828    1.311   .     A
C733   C748    1.407   .     A
C733   C739    1.387   .     A
C733   I807    2.115   .     S
C734   C750    1.406   .     A
C734   I808    2.118   .     S
C734   C745    1.398   .     A
C735   C749    1.396   .     A
C735   C746    1.387   .     A
C735   I809    2.126   .     S
C736   I810    2.123   .     S
C736   C742    1.398   .     A
C736   C749    1.415   .     A
C737   I811    2.115   .     S
C737   C750    1.407   .     A
C737   C744    1.387   .     A
C738   C752    1.406   .     A
C738   I812    2.118   .     S
C739   C751    1.396   .     A
C739   I798    2.126   .     S
C740   I799    2.123   .     S
C740   C751    1.415   .     A
C741   C752    1.407   .     A
C741   I800    2.115   .     S
C742   C755    1.406   .     A
C742   I801    2.118   .     S
C743   O839    1.303   .     A
C743   O836    1.308   .     A
C743   C748    1.469   .     S
C744   I802    2.126   .     S
C744   C753    1.396   .     A
C745   I803    2.123   .     S
C745   C753    1.415   .     A
C746   I804    2.115   .     S
C746   C755    1.407   .     A
C747   C754    1.471   .     S
C751   C767    1.471   .     S
C752   C766    1.469   .     S
C753   C765    1.471   .     S
C754   O838    1.302   .     A
C754   O837    1.311   .     A
C755   C764    1.469   .     S
C756   H773    1.102   .     S
C756   H790    1.106   .     S
C756   O825    1.415   .     S
C756   H784    1.114   .     S
C757   H791    1.101   .     S
C757   H793    1.107   .     S
C757   H792    1.111   .     S
C757   O946    1.410   1_455 S
C758   H796    1.107   .     S
C758   H795    1.111   .     S
C758   H794    1.101   .     S
C758   O947    1.410   .     S
C759   H774    1.102   .     S
C759   H775    1.114   .     S
C759   H776    1.106   .     S
C759   O829    1.415   .     S
C760   H778    1.114   .     S
C760   O830    1.415   .     S
C760   H777    1.102   .     S
C760   H779    1.106   .     S
C761   H781    1.111   .     S
C761   H782    1.107   .     S
C761   H780    1.101   .     S
C761   O831    1.410   .     S
C762   O832    1.410   .     S
C762   H785    1.111   .     S
C762   H786    1.107   .     S
C762   H783    1.101   .     S
C763   H788    1.114   .     S
C763   H787    1.102   .     S
C763   O833    1.415   .     S
C763   H789    1.106   .     S
C764   O840    1.308   .     A
C764   O820    1.303   .     A
C765   O818    1.311   .     A
C765   O819    1.302   .     A
C766   O821    1.308   .     A
C766   O824    1.303   .     A
C767   O822    1.311   .     A
C767   O823    1.302   .     A
C768   N814    1.364   .     A
C768   O825    1.376   .     S
C768   C364    1.436   1_455 S
Cu769  O837    1.978   .     S
Cu769  O817    1.978   .     S
Cu769  Cu770   2.712   .     S
Cu769  N813    2.038   .     S
Cu769  O954    1.980   1_455 S
Cu769  O959    1.980   1_455 S
Cu770  O835    1.980   .     S
Cu770  N814    2.038   .     S
Cu770  O838    1.980   .     S
Cu770  O948    1.978   1_455 S
Cu770  O956    1.978   1_455 S
Cu771  O822    1.978   .     S
Cu771  O819    1.980   .     S
Cu771  Cu772   2.712   .     S
Cu771  N815    2.038   .     S
Cu772  O823    1.980   .     S
Cu772  O818    1.978   .     S
Cu772  N816    2.038   .     S
N813   C844    1.364   1_455 S
N814   C843    1.378   1_455 S
O820   Cu532   1.980   1_565 S
O821   Cu532   1.978   1_565 S
O824   Cu531   1.980   1_565 S
O826   C877    1.410   .     S
O826   C842    1.388   .     S
O827   C878    1.410   1_455 S
O827   C843    1.388   1_455 S
O828   Cu890   1.978   .     S
O834   Cu889   1.980   .     S
O836   Cu890   1.978   .     S
O839   Cu889   1.980   .     S
O840   Cu531   1.978   1_565 S
C841   O937    1.308   .     A
C841   C870    1.469   .     S
C841   O955    1.303   .     A
C842   N933    1.378   .     A
C842   C1203   1.456   .     S
C843   C242    1.456   1_655 S
C843   N814    1.378   1_655 S
C843   O827    1.388   1_655 S
C844   O949    1.376   .     S
C844   C1248   1.436   1_655 S
C844   N813    1.364   1_655 S
C845   O950    1.376   .     S
C845   N696    1.364   1_565 S
C846   O951    1.388   .     S
C846   N935    1.378   .     A
C846   C1327   1.456   .     S
C847   O952    1.388   .     S
C847   N936    1.378   .     A
C848   O953    1.376   .     S
C848   C1325   1.436   .     S
C848   N695    1.364   1_565 S
C849   C860    1.398   .     A
C849   I917    2.118   .     S
C849   C868    1.406   .     A
C850   C867    1.396   .     A
C850   I925    2.126   .     S
C850   C861    1.387   .     A
C851   C858    1.398   .     A
C851   I926    2.123   .     S
C851   C867    1.415   .     A
C852   C869    1.471   .     S
C852   O954    1.302   .     A
C852   O948    1.311   .     A
C853   C868    1.407   .     A
C853   C859    1.387   .     A
C853   I927    2.115   .     S
C854   C870    1.406   .     A
C854   I928    2.118   .     S
C854   C865    1.398   .     A
C855   C869    1.396   .     A
C855   C866    1.387   .     A
C855   I929    2.126   .     S
C856   I930    2.123   .     S
C856   C862    1.398   .     A
C856   C869    1.415   .     A
C857   I931    2.115   .     S
C857   C870    1.407   .     A
C857   C864    1.387   .     A
C858   C872    1.406   .     A
C858   I932    2.118   .     S
C859   C871    1.396   .     A
C859   I918    2.126   .     S
C860   I919    2.123   .     S
C860   C871    1.415   .     A
C861   C872    1.407   .     A
C861   I920    2.115   .     S
C862   C875    1.406   .     A
C862   I921    2.118   .     S
C863   O959    1.303   .     A
C863   O956    1.308   .     A
C863   C868    1.469   .     S
C864   I922    2.126   .     S
C864   C873    1.396   .     A
C865   I923    2.123   .     S
C865   C873    1.415   .     A
C866   I924    2.115   .     S
C866   C875    1.407   .     A
C867   C874    1.471   .     S
C871   C887    1.471   .     S
C872   C886    1.469   .     S
C873   C885    1.471   .     S
C874   O958    1.302   .     A
C874   O957    1.311   .     A
C875   C884    1.469   .     S
C876   H893    1.102   .     S
C876   H910    1.106   .     S
C876   O945    1.415   .     S
C876   H904    1.114   .     S
C877   H911    1.101   .     S
C877   H913    1.107   .     S
C877   H912    1.111   .     S
C878   H916    1.107   .     S
C878   H915    1.111   .     S
C878   H914    1.101   .     S
C878   O827    1.410   1_655 S
C879   H894    1.102   .     S
C879   H895    1.114   .     S
C879   H896    1.106   .     S
C879   O949    1.415   .     S
C880   H898    1.114   .     S
C880   O950    1.415   .     S
C880   H897    1.102   .     S
C880   H899    1.106   .     S
C881   H901    1.111   .     S
C881   H902    1.107   .     S
C881   H900    1.101   .     S
C881   O951    1.410   .     S
C882   O952    1.410   .     S
C882   H905    1.111   .     S
C882   H906    1.107   .     S
C882   H903    1.101   .     S
C883   H908    1.114   .     S
C883   H907    1.102   .     S
C883   O953    1.415   .     S
C883   H909    1.106   .     S
C884   O960    1.308   .     A
C884   O940    1.303   .     A
C885   O938    1.311   .     A
C885   O939    1.302   .     A
C886   O941    1.308   .     A
C886   O944    1.303   .     A
C887   O942    1.311   .     A
C887   O943    1.302   .     A
C888   N934    1.364   .     A
C888   O945    1.376   .     S
Cu889  O957    1.978   .     S
Cu889  O937    1.978   .     S
Cu889  Cu890   2.712   .     S
Cu889  N933    2.038   .     S
Cu890  O955    1.980   .     S
Cu890  N934    2.038   .     S
Cu890  O958    1.980   .     S
Cu891  O942    1.978   .     S
Cu891  O939    1.980   .     S
Cu891  Cu892   2.712   .     S
Cu891  N935    2.038   .     S
Cu892  O943    1.980   .     S
Cu892  O938    1.978   .     S
Cu892  N936    2.038   .     S
O940   Cu652   1.980   1_565 S
O941   Cu652   1.978   1_565 S
O944   Cu651   1.980   1_565 S
O946   C757    1.410   1_655 S
O946   C722    1.388   1_655 S
O948   Cu770   1.978   1_655 S
O954   Cu769   1.980   1_655 S
O956   Cu770   1.978   1_655 S
O959   Cu769   1.980   1_655 S
O960   Cu651   1.978   1_565 S
C961   O1057   1.308   .     A
C961   C990    1.469   .     S
C961   O1075   1.303   .     A
C962   N1053   1.378   .     A
C962   C123    1.456   1_456 S
C962   O1186   1.388   1_455 S
C963   N1174   1.378   .     S
C963   O1187   1.388   .     S
C964   O1069   1.376   .     S
C964   C168    1.436   1_556 S
C964   N1173   1.364   .     S
C965   O1070   1.376   .     S
C965   N1296   1.364   .     S
C966   O1071   1.388   .     S
C966   N1055   1.378   .     A
C966   C7      1.456   1_556 S
C967   O1072   1.388   .     S
C967   N1056   1.378   .     A
C968   O1073   1.376   .     S
C968   C5      1.436   1_556 S
C968   N1295   1.364   .     S
C969   C980    1.398   .     A
C969   I1037   2.118   .     S
C969   C988    1.406   .     A
C970   C987    1.396   .     A
C970   I1045   2.126   .     S
C970   C981    1.387   .     A
C971   C978    1.398   .     A
C971   I1046   2.123   .     S
C971   C987    1.415   .     A
C972   C989    1.471   .     S
C972   O1074   1.302   .     A
C972   O1068   1.311   .     A
C973   C988    1.407   .     A
C973   C979    1.387   .     A
C973   I1047   2.115   .     S
C974   C990    1.406   .     A
C974   I1048   2.118   .     S
C974   C985    1.398   .     A
C975   C989    1.396   .     A
C975   C986    1.387   .     A
C975   I1049   2.126   .     S
C976   I1050   2.123   .     S
C976   C982    1.398   .     A
C976   C989    1.415   .     A
C977   I1051   2.115   .     S
C977   C990    1.407   .     A
C977   C984    1.387   .     A
C978   C992    1.406   .     A
C978   I1052   2.118   .     S
C979   C991    1.396   .     A
C979   I1038   2.126   .     S
C980   I1039   2.123   .     S
C980   C991    1.415   .     A
C981   C992    1.407   .     A
C981   I1040   2.115   .     S
C982   C995    1.406   .     A
C982   I1041   2.118   .     S
C983   O1079   1.303   .     A
C983   O1076   1.308   .     A
C983   C988    1.469   .     S
C984   I1042   2.126   .     S
C984   C993    1.396   .     A
C985   I1043   2.123   .     S
C985   C993    1.415   .     A
C986   I1044   2.115   .     S
C986   C995    1.407   .     A
C987   C994    1.471   .     S
C991   C1007   1.471   .     S
C992   C1006   1.469   .     S
C993   C1005   1.471   .     S
C994   O1078   1.302   .     A
C994   O1077   1.311   .     A
C995   C1004   1.469   .     S
C996   H1013   1.102   .     S
C996   H1030   1.106   .     S
C996   O1065   1.415   .     S
C996   H1024   1.114   .     S
C997   H1031   1.101   .     S
C997   H1033   1.107   .     S
C997   H1032   1.111   .     S
C997   O1186   1.410   1_455 S
C998   H1036   1.107   .     S
C998   H1035   1.111   .     S
C998   H1034   1.101   .     S
C998   O1187   1.410   .     S
C999   H1014   1.102   .     S
C999   H1015   1.114   .     S
C999   H1016   1.106   .     S
C999   O1069   1.415   .     S
C1000  H1018   1.114   .     S
C1000  O1070   1.415   .     S
C1000  H1017   1.102   .     S
C1000  H1019   1.106   .     S
C1001  H1021   1.111   .     S
C1001  H1022   1.107   .     S
C1001  H1020   1.101   .     S
C1001  O1071   1.410   .     S
C1002  O1072   1.410   .     S
C1002  H1025   1.111   .     S
C1002  H1026   1.107   .     S
C1002  H1023   1.101   .     S
C1003  H1028   1.114   .     S
C1003  H1027   1.102   .     S
C1003  O1073   1.415   .     S
C1003  H1029   1.106   .     S
C1004  O1080   1.308   .     A
C1004  O1060   1.303   .     A
C1005  O1058   1.311   .     A
C1005  O1059   1.302   .     A
C1006  O1061   1.308   .     A
C1006  O1064   1.303   .     A
C1007  O1062   1.311   .     A
C1007  O1063   1.302   .     A
C1008  N1054   1.364   .     A
C1008  O1065   1.376   .     S
C1008  C604    1.436   1_455 S
Cu1009 O1077   1.978   .     S
Cu1009 O1057   1.978   .     S
Cu1009 Cu1010  2.712   .     S
Cu1009 N1053   2.038   .     S
Cu1009 O1194   1.980   1_455 S
Cu1009 O1199   1.980   1_455 S
Cu1010 O1075   1.980   .     S
Cu1010 N1054   2.038   .     S
Cu1010 O1078   1.980   .     S
Cu1010 O1188   1.978   1_455 S
Cu1010 O1196   1.978   1_455 S
Cu1011 O1062   1.978   .     S
Cu1011 O1059   1.980   .     S
Cu1011 Cu1012  2.712   .     S
Cu1011 N1055   2.038   .     S
Cu1011 O1304   1.980   1_545 S
Cu1011 O1320   1.978   1_545 S
Cu1012 O1063   1.980   .     S
Cu1012 O1058   1.978   .     S
Cu1012 N1056   2.038   .     S
Cu1012 O1300   1.980   1_545 S
Cu1012 O1301   1.978   1_545 S
N1053  C1084   1.364   1_455 S
N1054  C1083   1.378   1_455 S
N1055  C1208   1.364   1_545 S
N1056  C1205   1.364   1_545 S
O1060  Cu1252  1.980   .     S
O1061  Cu1252  1.978   .     S
O1064  Cu1251  1.980   .     S
O1066  C1117   1.410   .     S
O1066  C1082   1.388   .     S
O1067  C1118   1.410   1_455 S
O1067  C1083   1.388   1_455 S
O1068  Cu1130  1.978   .     S
O1074  Cu1129  1.980   .     S
O1076  Cu1130  1.978   .     S
O1079  Cu1129  1.980   .     S
O1080  Cu1251  1.978   .     S
C1081  O1177   1.308   .     A
C1081  C1110   1.469   .     S
C1081  O1195   1.303   .     A
C1082  N1173   1.378   .     A
C1082  C3      1.456   1_556 S
C1083  C482    1.456   1_655 S
C1083  N1054   1.378   1_655 S
C1083  O1067   1.388   1_655 S
C1084  O1189   1.376   .     S
C1084  C48     1.436   1_656 S
C1084  N1053   1.364   1_655 S
C1085  O1190   1.376   .     S
C1085  N1416   1.364   .     S
C1086  O1191   1.388   .     S
C1086  N1175   1.378   .     A
C1086  C127    1.456   1_556 S
C1087  O1192   1.388   .     S
C1087  N1176   1.378   .     A
C1088  O1193   1.376   .     S
C1088  C125    1.436   1_556 S
C1088  N1415   1.364   .     S
C1089  C1100   1.398   .     A
C1089  I1157   2.118   .     S
C1089  C1108   1.406   .     A
C1090  C1107   1.396   .     A
C1090  I1165   2.126   .     S
C1090  C1101   1.387   .     A
C1091  C1098   1.398   .     A
C1091  I1166   2.123   .     S
C1091  C1107   1.415   .     A
C1092  C1109   1.471   .     S
C1092  O1194   1.302   .     A
C1092  O1188   1.311   .     A
C1093  C1108   1.407   .     A
C1093  C1099   1.387   .     A
C1093  I1167   2.115   .     S
C1094  C1110   1.406   .     A
C1094  I1168   2.118   .     S
C1094  C1105   1.398   .     A
C1095  C1109   1.396   .     A
C1095  C1106   1.387   .     A
C1095  I1169   2.126   .     S
C1096  I1170   2.123   .     S
C1096  C1102   1.398   .     A
C1096  C1109   1.415   .     A
C1097  I1171   2.115   .     S
C1097  C1110   1.407   .     A
C1097  C1104   1.387   .     A
C1098  C1112   1.406   .     A
C1098  I1172   2.118   .     S
C1099  C1111   1.396   .     A
C1099  I1158   2.126   .     S
C1100  I1159   2.123   .     S
C1100  C1111   1.415   .     A
C1101  C1112   1.407   .     A
C1101  I1160   2.115   .     S
C1102  C1115   1.406   .     A
C1102  I1161   2.118   .     S
C1103  O1199   1.303   .     A
C1103  O1196   1.308   .     A
C1103  C1108   1.469   .     S
C1104  I1162   2.126   .     S
C1104  C1113   1.396   .     A
C1105  I1163   2.123   .     S
C1105  C1113   1.415   .     A
C1106  I1164   2.115   .     S
C1106  C1115   1.407   .     A
C1107  C1114   1.471   .     S
C1111  C1127   1.471   .     S
C1112  C1126   1.469   .     S
C1113  C1125   1.471   .     S
C1114  O1198   1.302   .     A
C1114  O1197   1.311   .     A
C1115  C1124   1.469   .     S
C1116  H1133   1.102   .     S
C1116  H1150   1.106   .     S
C1116  O1185   1.415   .     S
C1116  H1144   1.114   .     S
C1117  H1151   1.101   .     S
C1117  H1153   1.107   .     S
C1117  H1152   1.111   .     S
C1118  H1156   1.107   .     S
C1118  H1155   1.111   .     S
C1118  H1154   1.101   .     S
C1118  O1067   1.410   1_655 S
C1119  H1134   1.102   .     S
C1119  H1135   1.114   .     S
C1119  H1136   1.106   .     S
C1119  O1189   1.415   .     S
C1120  H1138   1.114   .     S
C1120  O1190   1.415   .     S
C1120  H1137   1.102   .     S
C1120  H1139   1.106   .     S
C1121  H1141   1.111   .     S
C1121  H1142   1.107   .     S
C1121  H1140   1.101   .     S
C1121  O1191   1.410   .     S
C1122  O1192   1.410   .     S
C1122  H1145   1.111   .     S
C1122  H1146   1.107   .     S
C1122  H1143   1.101   .     S
C1123  H1148   1.114   .     S
C1123  H1147   1.102   .     S
C1123  O1193   1.415   .     S
C1123  H1149   1.106   .     S
C1124  O1200   1.308   .     A
C1124  O1180   1.303   .     A
C1125  O1178   1.311   .     A
C1125  O1179   1.302   .     A
C1126  O1181   1.308   .     A
C1126  O1184   1.303   .     A
C1127  O1182   1.311   .     A
C1127  O1183   1.302   .     A
C1128  N1174   1.364   .     A
C1128  O1185   1.376   .     S
Cu1129 O1197   1.978   .     S
Cu1129 O1177   1.978   .     S
Cu1129 Cu1130  2.712   .     S
Cu1129 N1173   2.038   .     S
Cu1130 O1195   1.980   .     S
Cu1130 N1174   2.038   .     S
Cu1130 O1198   1.980   .     S
Cu1131 O1182   1.978   .     S
Cu1131 O1179   1.980   .     S
Cu1131 Cu1132  2.712   .     S
Cu1131 N1175   2.038   .     S
Cu1131 O1424   1.980   1_545 S
Cu1131 O1440   1.978   1_545 S
Cu1132 O1183   1.980   .     S
Cu1132 O1178   1.978   .     S
Cu1132 N1176   2.038   .     S
Cu1132 O1420   1.980   1_545 S
Cu1132 O1421   1.978   1_545 S
N1175  C1328   1.364   1_545 S
N1176  C1325   1.364   1_545 S
O1180  Cu1372  1.980   .     S
O1181  Cu1372  1.978   .     S
O1184  Cu1371  1.980   .     S
O1186  C997    1.410   1_655 S
O1186  C962    1.388   1_655 S
O1188  Cu1010  1.978   1_655 S
O1194  Cu1009  1.980   1_655 S
O1196  Cu1010  1.978   1_655 S
O1199  Cu1009  1.980   1_655 S
O1200  Cu1371  1.978   .     S
C1201  O1297   1.308   .     A
C1201  C1230   1.469   .     S
C1201  O1315   1.303   .     A
C1202  N1293   1.378   .     A
C1202  C363    1.456   1_456 S
C1202  O1426   1.388   1_455 S
C1203  N1414   1.378   .     S
C1203  O1427   1.388   .     S
C1204  O1309   1.376   .     S
C1204  C408    1.436   1_556 S
C1204  N1413   1.364   .     S
C1205  O1310   1.376   .     S
C1205  N1056   1.364   1_565 S
C1206  O1311   1.388   .     S
C1206  N1295   1.378   .     A
C1206  C247    1.456   1_556 S
C1207  O1312   1.388   .     S
C1207  N1296   1.378   .     A
C1208  O1313   1.376   .     S
C1208  C245    1.436   1_556 S
C1208  N1055   1.364   1_565 S
C1209  C1220   1.398   .     A
C1209  I1277   2.118   .     S
C1209  C1228   1.406   .     A
C1210  C1227   1.396   .     A
C1210  I1285   2.126   .     S
C1210  C1221   1.387   .     A
C1211  C1218   1.398   .     A
C1211  I1286   2.123   .     S
C1211  C1227   1.415   .     A
C1212  C1229   1.471   .     S
C1212  O1314   1.302   .     A
C1212  O1308   1.311   .     A
C1213  C1228   1.407   .     A
C1213  C1219   1.387   .     A
C1213  I1287   2.115   .     S
C1214  C1230   1.406   .     A
C1214  I1288   2.118   .     S
C1214  C1225   1.398   .     A
C1215  C1229   1.396   .     A
C1215  C1226   1.387   .     A
C1215  I1289   2.126   .     S
C1216  I1290   2.123   .     S
C1216  C1222   1.398   .     A
C1216  C1229   1.415   .     A
C1217  I1291   2.115   .     S
C1217  C1230   1.407   .     A
C1217  C1224   1.387   .     A
C1218  C1232   1.406   .     A
C1218  I1292   2.118   .     S
C1219  C1231   1.396   .     A
C1219  I1278   2.126   .     S
C1220  I1279   2.123   .     S
C1220  C1231   1.415   .     A
C1221  C1232   1.407   .     A
C1221  I1280   2.115   .     S
C1222  C1235   1.406   .     A
C1222  I1281   2.118   .     S
C1223  O1319   1.303   .     A
C1223  O1316   1.308   .     A
C1223  C1228   1.469   .     S
C1224  I1282   2.126   .     S
C1224  C1233   1.396   .     A
C1225  I1283   2.123   .     S
C1225  C1233   1.415   .     A
C1226  I1284   2.115   .     S
C1226  C1235   1.407   .     A
C1227  C1234   1.471   .     S
C1231  C1247   1.471   .     S
C1232  C1246   1.469   .     S
C1233  C1245   1.471   .     S
C1234  O1318   1.302   .     A
C1234  O1317   1.311   .     A
C1235  C1244   1.469   .     S
C1236  H1253   1.102   .     S
C1236  H1270   1.106   .     S
C1236  O1305   1.415   .     S
C1236  H1264   1.114   .     S
C1237  H1271   1.101   .     S
C1237  H1273   1.107   .     S
C1237  H1272   1.111   .     S
C1237  O1426   1.410   1_455 S
C1238  H1276   1.107   .     S
C1238  H1275   1.111   .     S
C1238  H1274   1.101   .     S
C1238  O1427   1.410   .     S
C1239  H1254   1.102   .     S
C1239  H1255   1.114   .     S
C1239  H1256   1.106   .     S
C1239  O1309   1.415   .     S
C1240  H1258   1.114   .     S
C1240  O1310   1.415   .     S
C1240  H1257   1.102   .     S
C1240  H1259   1.106   .     S
C1241  H1261   1.111   .     S
C1241  H1262   1.107   .     S
C1241  H1260   1.101   .     S
C1241  O1311   1.410   .     S
C1242  O1312   1.410   .     S
C1242  H1265   1.111   .     S
C1242  H1266   1.107   .     S
C1242  H1263   1.101   .     S
C1243  H1268   1.114   .     S
C1243  H1267   1.102   .     S
C1243  O1313   1.415   .     S
C1243  H1269   1.106   .     S
C1244  O1320   1.308   .     A
C1244  O1300   1.303   .     A
C1245  O1298   1.311   .     A
C1245  O1299   1.302   .     A
C1246  O1301   1.308   .     A
C1246  O1304   1.303   .     A
C1247  O1302   1.311   .     A
C1247  O1303   1.302   .     A
C1248  N1294   1.364   .     A
C1248  O1305   1.376   .     S
C1248  C844    1.436   1_455 S
Cu1249 O1317   1.978   .     S
Cu1249 O1297   1.978   .     S
Cu1249 Cu1250  2.712   .     S
Cu1249 N1293   2.038   .     S
Cu1249 O1434   1.980   1_455 S
Cu1249 O1439   1.980   1_455 S
Cu1250 O1315   1.980   .     S
Cu1250 N1294   2.038   .     S
Cu1250 O1318   1.980   .     S
Cu1250 O1428   1.978   1_455 S
Cu1250 O1436   1.978   1_455 S
Cu1251 O1302   1.978   .     S
Cu1251 O1299   1.980   .     S
Cu1251 Cu1252  2.712   .     S
Cu1251 N1295   2.038   .     S
Cu1252 O1303   1.980   .     S
Cu1252 O1298   1.978   .     S
Cu1252 N1296   2.038   .     S
N1293  C1324   1.364   1_455 S
N1294  C1323   1.378   1_455 S
O1300  Cu1012  1.980   1_565 S
O1301  Cu1012  1.978   1_565 S
O1304  Cu1011  1.980   1_565 S
O1306  C1357   1.410   .     S
O1306  C1322   1.388   .     S
O1307  C1358   1.410   1_455 S
O1307  C1323   1.388   1_455 S
O1308  Cu1370  1.978   .     S
O1314  Cu1369  1.980   .     S
O1316  Cu1370  1.978   .     S
O1319  Cu1369  1.980   .     S
O1320  Cu1011  1.978   1_565 S
C1321  O1417   1.308   .     A
C1321  C1350   1.469   .     S
C1321  O1435   1.303   .     A
C1322  N1413   1.378   .     A
C1322  C243    1.456   1_556 S
C1323  C722    1.456   1_655 S
C1323  N1294   1.378   1_655 S
C1323  O1307   1.388   1_655 S
C1324  O1429   1.376   .     S
C1324  C288    1.436   1_656 S
C1324  N1293   1.364   1_655 S
C1325  O1430   1.376   .     S
C1325  N1176   1.364   1_565 S
C1326  O1431   1.388   .     S
C1326  N1415   1.378   .     A
C1326  C367    1.456   1_556 S
C1327  O1432   1.388   .     S
C1327  N1416   1.378   .     A
C1328  O1433   1.376   .     S
C1328  C365    1.436   1_556 S
C1328  N1175   1.364   1_565 S
C1329  C1340   1.398   .     A
C1329  I1397   2.118   .     S
C1329  C1348   1.406   .     A
C1330  C1347   1.396   .     A
C1330  I1405   2.126   .     S
C1330  C1341   1.387   .     A
C1331  C1338   1.398   .     A
C1331  I1406   2.123   .     S
C1331  C1347   1.415   .     A
C1332  C1349   1.471   .     S
C1332  O1434   1.302   .     A
C1332  O1428   1.311   .     A
C1333  C1348   1.407   .     A
C1333  C1339   1.387   .     A
C1333  I1407   2.115   .     S
C1334  C1350   1.406   .     A
C1334  I1408   2.118   .     S
C1334  C1345   1.398   .     A
C1335  C1349   1.396   .     A
C1335  C1346   1.387   .     A
C1335  I1409   2.126   .     S
C1336  I1410   2.123   .     S
C1336  C1342   1.398   .     A
C1336  C1349   1.415   .     A
C1337  I1411   2.115   .     S
C1337  C1350   1.407   .     A
C1337  C1344   1.387   .     A
C1338  C1352   1.406   .     A
C1338  I1412   2.118   .     S
C1339  C1351   1.396   .     A
C1339  I1398   2.126   .     S
C1340  I1399   2.123   .     S
C1340  C1351   1.415   .     A
C1341  C1352   1.407   .     A
C1341  I1400   2.115   .     S
C1342  C1355   1.406   .     A
C1342  I1401   2.118   .     S
C1343  O1439   1.303   .     A
C1343  O1436   1.308   .     A
C1343  C1348   1.469   .     S
C1344  I1402   2.126   .     S
C1344  C1353   1.396   .     A
C1345  I1403   2.123   .     S
C1345  C1353   1.415   .     A
C1346  I1404   2.115   .     S
C1346  C1355   1.407   .     A
C1347  C1354   1.471   .     S
C1351  C1367   1.471   .     S
C1352  C1366   1.469   .     S
C1353  C1365   1.471   .     S
C1354  O1438   1.302   .     A
C1354  O1437   1.311   .     A
C1355  C1364   1.469   .     S
C1356  H1373   1.102   .     S
C1356  H1390   1.106   .     S
C1356  O1425   1.415   .     S
C1356  H1384   1.114   .     S
C1357  H1391   1.101   .     S
C1357  H1393   1.107   .     S
C1357  H1392   1.111   .     S
C1358  H1396   1.107   .     S
C1358  H1395   1.111   .     S
C1358  H1394   1.101   .     S
C1358  O1307   1.410   1_655 S
C1359  H1374   1.102   .     S
C1359  H1375   1.114   .     S
C1359  H1376   1.106   .     S
C1359  O1429   1.415   .     S
C1360  H1378   1.114   .     S
C1360  O1430   1.415   .     S
C1360  H1377   1.102   .     S
C1360  H1379   1.106   .     S
C1361  H1381   1.111   .     S
C1361  H1382   1.107   .     S
C1361  H1380   1.101   .     S
C1361  O1431   1.410   .     S
C1362  O1432   1.410   .     S
C1362  H1385   1.111   .     S
C1362  H1386   1.107   .     S
C1362  H1383   1.101   .     S
C1363  H1388   1.114   .     S
C1363  H1387   1.102   .     S
C1363  O1433   1.415   .     S
C1363  H1389   1.106   .     S
C1364  O1440   1.308   .     A
C1364  O1420   1.303   .     A
C1365  O1418   1.311   .     A
C1365  O1419   1.302   .     A
C1366  O1421   1.308   .     A
C1366  O1424   1.303   .     A
C1367  O1422   1.311   .     A
C1367  O1423   1.302   .     A
C1368  N1414   1.364   .     A
C1368  O1425   1.376   .     S
Cu1369 O1437   1.978   .     S
Cu1369 O1417   1.978   .     S
Cu1369 Cu1370  2.712   .     S
Cu1369 N1413   2.038   .     S
Cu1370 O1435   1.980   .     S
Cu1370 N1414   2.038   .     S
Cu1370 O1438   1.980   .     S
Cu1371 O1422   1.978   .     S
Cu1371 O1419   1.980   .     S
Cu1371 Cu1372  2.712   .     S
Cu1371 N1415   2.038   .     S
Cu1372 O1423   1.980   .     S
Cu1372 O1418   1.978   .     S
Cu1372 N1416   2.038   .     S
O1420  Cu1132  1.980   1_565 S
O1421  Cu1132  1.978   1_565 S
O1424  Cu1131  1.980   1_565 S
O1426  C1237   1.410   1_655 S
O1426  C1202   1.388   1_655 S
O1428  Cu1250  1.978   1_655 S
O1434  Cu1249  1.980   1_655 S
O1436  Cu1250  1.978   1_655 S
O1439  Cu1249  1.980   1_655 S
O1440  Cu1131  1.978   1_565 S
