data_str_m1_o10_o16_pcu_sym.39
_audit_creation_date              2020-01-03
_audit_creation_method            'Materials Studio'
_symmetry_space_group_name_H-M    'P1'
_symmetry_Int_Tables_number       1
_symmetry_cell_setting            triclinic
loop_
_symmetry_equiv_pos_as_xyz
  x,y,z
_cell_length_a                    32.5562
_cell_length_b                    32.5008
_cell_length_c                    31.0897
_cell_angle_alpha                 96.4981
_cell_angle_beta                  75.0476
_cell_angle_gamma                 98.3173
loop_
_atom_site_label
_atom_site_type_symbol
_atom_site_fract_x
_atom_site_fract_y
_atom_site_fract_z
_atom_site_U_iso_or_equiv
_atom_site_adp_type
_atom_site_occupancy
C1     C     0.05297   0.15947   0.26001   0.00000  Uiso   1.00
C2     C     0.17456   0.16715   0.06020   0.00000  Uiso   1.00
C3     C     0.21301   0.10815   0.05817   0.00000  Uiso   1.00
C4     C     0.28071   0.17386   0.24037   0.00000  Uiso   1.00
C5     C     0.14639   0.19811   0.41925   0.00000  Uiso   1.00
C6     C     0.32657   0.17631   0.23711   0.00000  Uiso   1.00
C7     C     0.00751   0.15558   0.26463   0.00000  Uiso   1.00
C8     C     0.17752   0.32215   0.23629   0.00000  Uiso   1.00
C9     C     0.15096   0.01217   0.26630   0.00000  Uiso   1.00
C10    C     0.15658   0.05602   0.25999   0.00000  Uiso   1.00
C11    C     0.17624   0.27787   0.24036   0.00000  Uiso   1.00
C12    C     0.10513   0.22958   0.48898   0.00000  Uiso   1.00
C13    C     0.18518   0.14802   0.12961   0.00000  Uiso   1.00
C14    C     0.15042   0.18642   0.37072   0.00000  Uiso   1.00
C15    C     0.22048   0.10340   0.01193   0.00000  Uiso   1.00
C16    C     0.19145   0.14101   0.08183   0.00000  Uiso   1.00
C17    C     0.11506   0.22379   0.44246   0.00000  Uiso   1.00
C18    C     0.32309   0.09493   0.30224   0.00000  Uiso   1.00
C19    C     0.30674   0.06397   0.26753   0.00000  Uiso   1.00
C20    C     0.31665   0.01995   0.27002   0.00000  Uiso   1.00
C21    C     0.09002   0.01809   0.32623   0.00000  Uiso   1.00
C22    C     0.09828   0.04642   0.36678   0.00000  Uiso   1.00
C23    C     0.12333   0.20683   0.01309   0.00000  Uiso   1.00
C24    C     0.06163   0.07257   0.38708   0.00000  Uiso   1.00
C25    C     0.21930   0.07368   0.39225   0.00000  Uiso   1.00
C26    C     0.23047   0.02937   0.39054   0.00000  Uiso   1.00
C27    C     0.20781   0.33258   0.36020   0.00000  Uiso   1.00
C28    C     0.08866   0.29621   0.01022   0.00000  Uiso   1.00
C29    C     0.10921   0.31130   0.04930   0.00000  Uiso   1.00
C30    C     0.12397   0.02475   0.04988   0.00000  Uiso   1.00
C31    C     0.25525   0.21579   0.39211   0.00000  Uiso   1.00
C32    C     0.29096   0.22815   0.35153   0.00000  Uiso   1.00
C33    C     0.31296   0.27208   0.35897   0.00000  Uiso   1.00
C34    C     0.15755   0.18349   0.49108   0.00000  Uiso   1.00
C35    C     0.02831   0.23895   0.21358   0.00000  Uiso   1.00
C36    C     0.06840   0.25792   0.18094   0.00000  Uiso   1.00
C37    C     0.07660   0.30505   0.19056   0.00000  Uiso   1.00
C38    C     0.17085   0.18160   0.44367   0.00000  Uiso   1.00
C39    C     0.17838   0.16071   0.01404   0.00000  Uiso   1.00
C40    C     0.20495   0.13060   0.48948   0.00000  Uiso   1.00
C41    C     0.21791   0.13015   0.44302   0.00000  Uiso   1.00
C42    C     0.20772   0.16178   0.42231   0.00000  Uiso   1.00
F43    F     0.22859   0.08211   0.07960   0.00000  Uiso   1.00
F44    F     0.09234   0.24213   0.42054   0.00000  Uiso   1.00
F45    F     0.10492   0.20623   0.05746   0.00000  Uiso   1.00
H46    H     0.20010   0.00254   0.20775   0.00000  Uiso   1.00
H47    H     0.30033   0.00848   0.30311   0.00000  Uiso   1.00
H48    H     0.06243   0.32788   0.33845   0.00000  Uiso   1.00
H49    H     0.07979   0.03559   0.30276   0.00000  Uiso   1.00
H50    H     0.10177   0.02689   0.39245   0.00000  Uiso   1.00
H51    H     0.12839   0.06768   0.35708   0.00000  Uiso   1.00
H52    H     0.05908   0.09397   0.36270   0.00000  Uiso   1.00
H53    H     0.06789   0.09161   0.41722   0.00000  Uiso   1.00
H54    H     0.03085   0.05211   0.39689   0.00000  Uiso   1.00
H55    H     0.22760   0.08417   0.35791   0.00000  Uiso   1.00
H56    H     0.18380   0.07253   0.40565   0.00000  Uiso   1.00
H57    H     0.23949   0.07932   0.49379   0.00000  Uiso   1.00
H58    H     0.26561   0.02931   0.37825   0.00000  Uiso   1.00
H59    H     0.22071   0.01858   0.42480   0.00000  Uiso   1.00
H60    H     0.21670   0.00957   0.32580   0.00000  Uiso   1.00
H61    H     0.21721   0.30088   0.35883   0.00000  Uiso   1.00
H62    H     0.17256   0.33086   0.37340   0.00000  Uiso   1.00
H63    H     0.06092   0.31365   0.01356   0.00000  Uiso   1.00
H64    H     0.11156   0.30402   0.47789   0.00000  Uiso   1.00
H65    H     0.08562   0.30444   0.08129   0.00000  Uiso   1.00
H66    H     0.13733   0.29452   0.04642   0.00000  Uiso   1.00
H67    H     0.14812   0.03218   0.01843   0.00000  Uiso   1.00
H68    H     0.16027   0.19323   0.08000   0.00000  Uiso   1.00
H69    H     0.13872   0.03467   0.07843   0.00000  Uiso   1.00
H70    H     0.09633   0.04245   0.05368   0.00000  Uiso   1.00
H71    H     0.26939   0.21783   0.42150   0.00000  Uiso   1.00
H72    H     0.23118   0.23827   0.39845   0.00000  Uiso   1.00
H73    H     0.31534   0.20617   0.34489   0.00000  Uiso   1.00
H74    H     0.27736   0.22661   0.32201   0.00000  Uiso   1.00
H75    H     0.28921   0.29477   0.36838   0.00000  Uiso   1.00
H76    H     0.00305   0.28077   0.32756   0.00000  Uiso   1.00
H77    H     0.33011   0.27347   0.38579   0.00000  Uiso   1.00
H78    H     0.03307   0.24586   0.24809   0.00000  Uiso   1.00
H79    H     0.30678   0.08496   0.33597   0.00000  Uiso   1.00
H80    H     0.00019   0.25359   0.21123   0.00000  Uiso   1.00
H81    H     0.09657   0.24357   0.18360   0.00000  Uiso   1.00
H82    H     0.06463   0.25100   0.14622   0.00000  Uiso   1.00
H83    H     0.04984   0.32025   0.18579   0.00000  Uiso   1.00
H84    H     0.10669   0.31747   0.16724   0.00000  Uiso   1.00
H85    H     0.07995   0.31271   0.22530   0.00000  Uiso   1.00
H86    H     0.02435   0.09380   0.29920   0.00000  Uiso   1.00
H87    H     0.27156   0.06372   0.27337   0.00000  Uiso   1.00
H88    H     0.32220   0.07382   0.23343   0.00000  Uiso   1.00
H89    H     0.01833   0.01965   0.26444   0.00000  Uiso   1.00
H90    H     0.30524   0.33185   0.24395   0.00000  Uiso   1.00
O91    O     0.16667   0.16667   0.25000   0.00000  Uiso   1.00
O92    O     0.15451   0.12637   0.15459   0.00000  Uiso   1.00
O93    O     0.12940   0.20391   0.34968   0.00000  Uiso   1.00
O94    O     0.20824   0.17759   0.14606   0.00000  Uiso   1.00
O95    O     0.17451   0.15880   0.34968   0.00000  Uiso   1.00
O96    O     0.31298   0.13554   0.30026   0.00000  Uiso   1.00
O97    O     0.12574   0.32961   0.30597   0.00000  Uiso   1.00
O98    O     0.24329   0.10085   0.41836   0.00000  Uiso   1.00
O99    O     0.07295   0.25326   0.01157   0.00000  Uiso   1.00
O100   O     0.23622   0.17472   0.38344   0.00000  Uiso   1.00
O101   O     0.02213   0.19562   0.20196   0.00000  Uiso   1.00
O102   O     0.17930   0.08019   0.28214   0.00000  Uiso   1.00
O103   O     0.14632   0.26085   0.27014   0.00000  Uiso   1.00
O104   O     0.07412   0.13291   0.23413   0.00000  Uiso   1.00
O105   O     0.26693   0.19272   0.21361   0.00000  Uiso   1.00
O106   O     0.07071   0.18878   0.28213   0.00000  Uiso   1.00
O107   O     0.25491   0.15226   0.27014   0.00000  Uiso   1.00
O108   O     0.13760   0.06944   0.23413   0.00000  Uiso   1.00
O109   O     0.20345   0.25620   0.21361   0.00000  Uiso   1.00
Zn110  Zn    0.19338   0.13994   0.28734   0.00000  Uiso   1.00
Zn111  Zn    0.13379   0.12458   0.21876   0.00000  Uiso   1.00
Zn112  Zn    0.21056   0.19775   0.20657   0.00000  Uiso   1.00
Zn113  Zn    0.12893   0.20439   0.28734   0.00000  Uiso   1.00
C114   C     0.38631   0.15947   0.26001   0.00000  Uiso   1.00
C115   C     0.50790   0.16715   0.06020   0.00000  Uiso   1.00
C116   C     0.54634   0.10815   0.05817   0.00000  Uiso   1.00
C117   C     0.61404   0.17386   0.24037   0.00000  Uiso   1.00
C118   C     0.47973   0.19811   0.41925   0.00000  Uiso   1.00
C119   C     0.65991   0.17631   0.23711   0.00000  Uiso   1.00
C120   C     0.34084   0.15558   0.26463   0.00000  Uiso   1.00
C121   C     0.51086   0.32215   0.23629   0.00000  Uiso   1.00
C122   C     0.48430   0.01217   0.26630   0.00000  Uiso   1.00
C123   C     0.48991   0.05602   0.25999   0.00000  Uiso   1.00
C124   C     0.50957   0.27787   0.24036   0.00000  Uiso   1.00
C125   C     0.43846   0.22958   0.48898   0.00000  Uiso   1.00
C126   C     0.51851   0.14802   0.12961   0.00000  Uiso   1.00
C127   C     0.48376   0.18642   0.37072   0.00000  Uiso   1.00
C128   C     0.55381   0.10340   0.01193   0.00000  Uiso   1.00
C129   C     0.52478   0.14101   0.08183   0.00000  Uiso   1.00
C130   C     0.44839   0.22379   0.44246   0.00000  Uiso   1.00
C131   C     0.65643   0.09493   0.30224   0.00000  Uiso   1.00
C132   C     0.64007   0.06397   0.26753   0.00000  Uiso   1.00
C133   C     0.64998   0.01995   0.27002   0.00000  Uiso   1.00
C134   C     0.42335   0.01809   0.32623   0.00000  Uiso   1.00
C135   C     0.43161   0.04642   0.36678   0.00000  Uiso   1.00
C136   C     0.45667   0.20683   0.01309   0.00000  Uiso   1.00
C137   C     0.39496   0.07257   0.38708   0.00000  Uiso   1.00
C138   C     0.55264   0.07368   0.39225   0.00000  Uiso   1.00
C139   C     0.56381   0.02937   0.39054   0.00000  Uiso   1.00
C140   C     0.54114   0.33258   0.36020   0.00000  Uiso   1.00
C141   C     0.42200   0.29621   0.01022   0.00000  Uiso   1.00
C142   C     0.44254   0.31130   0.04930   0.00000  Uiso   1.00
C143   C     0.45730   0.02475   0.04988   0.00000  Uiso   1.00
C144   C     0.58858   0.21579   0.39211   0.00000  Uiso   1.00
C145   C     0.62430   0.22815   0.35153   0.00000  Uiso   1.00
C146   C     0.64629   0.27208   0.35897   0.00000  Uiso   1.00
C147   C     0.49088   0.18349   0.49108   0.00000  Uiso   1.00
C148   C     0.36165   0.23895   0.21358   0.00000  Uiso   1.00
C149   C     0.40174   0.25792   0.18094   0.00000  Uiso   1.00
C150   C     0.40994   0.30505   0.19056   0.00000  Uiso   1.00
C151   C     0.50419   0.18160   0.44367   0.00000  Uiso   1.00
C152   C     0.51171   0.16071   0.01404   0.00000  Uiso   1.00
C153   C     0.53829   0.13060   0.48948   0.00000  Uiso   1.00
C154   C     0.55124   0.13015   0.44302   0.00000  Uiso   1.00
C155   C     0.54106   0.16178   0.42231   0.00000  Uiso   1.00
F156   F     0.56192   0.08211   0.07960   0.00000  Uiso   1.00
F157   F     0.42567   0.24213   0.42054   0.00000  Uiso   1.00
F158   F     0.43825   0.20623   0.05746   0.00000  Uiso   1.00
H159   H     0.53343   0.00254   0.20775   0.00000  Uiso   1.00
H160   H     0.63366   0.00848   0.30311   0.00000  Uiso   1.00
H161   H     0.39576   0.32788   0.33845   0.00000  Uiso   1.00
H162   H     0.41312   0.03559   0.30276   0.00000  Uiso   1.00
H163   H     0.43511   0.02689   0.39245   0.00000  Uiso   1.00
H164   H     0.46173   0.06768   0.35708   0.00000  Uiso   1.00
H165   H     0.39241   0.09397   0.36270   0.00000  Uiso   1.00
H166   H     0.40122   0.09161   0.41722   0.00000  Uiso   1.00
H167   H     0.36418   0.05211   0.39689   0.00000  Uiso   1.00
H168   H     0.56094   0.08417   0.35791   0.00000  Uiso   1.00
H169   H     0.51714   0.07253   0.40565   0.00000  Uiso   1.00
H170   H     0.57282   0.07932   0.49379   0.00000  Uiso   1.00
H171   H     0.59894   0.02931   0.37825   0.00000  Uiso   1.00
H172   H     0.55404   0.01858   0.42480   0.00000  Uiso   1.00
H173   H     0.55003   0.00957   0.32580   0.00000  Uiso   1.00
H174   H     0.55054   0.30088   0.35883   0.00000  Uiso   1.00
H175   H     0.50590   0.33086   0.37340   0.00000  Uiso   1.00
H176   H     0.39425   0.31365   0.01356   0.00000  Uiso   1.00
H177   H     0.44490   0.30402   0.47789   0.00000  Uiso   1.00
H178   H     0.41895   0.30444   0.08129   0.00000  Uiso   1.00
H179   H     0.47067   0.29452   0.04642   0.00000  Uiso   1.00
H180   H     0.48145   0.03218   0.01843   0.00000  Uiso   1.00
H181   H     0.49361   0.19323   0.08000   0.00000  Uiso   1.00
H182   H     0.47206   0.03467   0.07843   0.00000  Uiso   1.00
H183   H     0.42966   0.04245   0.05368   0.00000  Uiso   1.00
H184   H     0.60272   0.21783   0.42150   0.00000  Uiso   1.00
H185   H     0.56452   0.23827   0.39845   0.00000  Uiso   1.00
H186   H     0.64867   0.20617   0.34489   0.00000  Uiso   1.00
H187   H     0.61070   0.22661   0.32201   0.00000  Uiso   1.00
H188   H     0.62254   0.29477   0.36838   0.00000  Uiso   1.00
H189   H     0.33639   0.28077   0.32756   0.00000  Uiso   1.00
H190   H     0.66345   0.27347   0.38579   0.00000  Uiso   1.00
H191   H     0.36640   0.24586   0.24809   0.00000  Uiso   1.00
H192   H     0.64011   0.08496   0.33597   0.00000  Uiso   1.00
H193   H     0.33352   0.25359   0.21123   0.00000  Uiso   1.00
H194   H     0.42991   0.24357   0.18360   0.00000  Uiso   1.00
H195   H     0.39796   0.25100   0.14622   0.00000  Uiso   1.00
H196   H     0.38317   0.32025   0.18579   0.00000  Uiso   1.00
H197   H     0.44002   0.31747   0.16724   0.00000  Uiso   1.00
H198   H     0.41328   0.31271   0.22530   0.00000  Uiso   1.00
H199   H     0.35768   0.09380   0.29920   0.00000  Uiso   1.00
H200   H     0.60489   0.06372   0.27337   0.00000  Uiso   1.00
H201   H     0.65553   0.07382   0.23343   0.00000  Uiso   1.00
H202   H     0.35166   0.01965   0.26444   0.00000  Uiso   1.00
H203   H     0.63857   0.33185   0.24395   0.00000  Uiso   1.00
O204   O     0.50000   0.16667   0.25000   0.00000  Uiso   1.00
O205   O     0.48784   0.12637   0.15459   0.00000  Uiso   1.00
O206   O     0.46274   0.20391   0.34968   0.00000  Uiso   1.00
O207   O     0.54157   0.17759   0.14606   0.00000  Uiso   1.00
O208   O     0.50785   0.15880   0.34968   0.00000  Uiso   1.00
O209   O     0.64631   0.13554   0.30026   0.00000  Uiso   1.00
O210   O     0.45907   0.32961   0.30597   0.00000  Uiso   1.00
O211   O     0.57662   0.10085   0.41836   0.00000  Uiso   1.00
O212   O     0.40628   0.25326   0.01157   0.00000  Uiso   1.00
O213   O     0.56956   0.17472   0.38344   0.00000  Uiso   1.00
O214   O     0.35546   0.19562   0.20196   0.00000  Uiso   1.00
O215   O     0.51264   0.08019   0.28214   0.00000  Uiso   1.00
O216   O     0.47965   0.26085   0.27014   0.00000  Uiso   1.00
O217   O     0.40745   0.13291   0.23413   0.00000  Uiso   1.00
O218   O     0.60026   0.19272   0.21361   0.00000  Uiso   1.00
O219   O     0.40405   0.18878   0.28213   0.00000  Uiso   1.00
O220   O     0.58824   0.15226   0.27014   0.00000  Uiso   1.00
O221   O     0.47093   0.06944   0.23413   0.00000  Uiso   1.00
O222   O     0.53678   0.25620   0.21361   0.00000  Uiso   1.00
Zn223  Zn    0.52672   0.13994   0.28734   0.00000  Uiso   1.00
Zn224  Zn    0.46713   0.12458   0.21876   0.00000  Uiso   1.00
Zn225  Zn    0.54389   0.19775   0.20657   0.00000  Uiso   1.00
Zn226  Zn    0.46226   0.20439   0.28734   0.00000  Uiso   1.00
C227   C     0.71964   0.15947   0.26001   0.00000  Uiso   1.00
C228   C     0.84123   0.16715   0.06020   0.00000  Uiso   1.00
C229   C     0.87967   0.10815   0.05817   0.00000  Uiso   1.00
C230   C     0.94738   0.17386   0.24037   0.00000  Uiso   1.00
C231   C     0.81306   0.19811   0.41925   0.00000  Uiso   1.00
C232   C     0.99324   0.17631   0.23711   0.00000  Uiso   1.00
C233   C     0.67417   0.15558   0.26463   0.00000  Uiso   1.00
C234   C     0.84419   0.32215   0.23629   0.00000  Uiso   1.00
C235   C     0.81763   0.01217   0.26630   0.00000  Uiso   1.00
C236   C     0.82324   0.05602   0.25999   0.00000  Uiso   1.00
C237   C     0.84290   0.27787   0.24036   0.00000  Uiso   1.00
C238   C     0.77180   0.22958   0.48898   0.00000  Uiso   1.00
C239   C     0.85184   0.14802   0.12961   0.00000  Uiso   1.00
C240   C     0.81709   0.18642   0.37072   0.00000  Uiso   1.00
C241   C     0.88714   0.10340   0.01193   0.00000  Uiso   1.00
C242   C     0.85811   0.14101   0.08183   0.00000  Uiso   1.00
C243   C     0.78173   0.22379   0.44246   0.00000  Uiso   1.00
C244   C     0.98976   0.09493   0.30224   0.00000  Uiso   1.00
C245   C     0.97341   0.06397   0.26753   0.00000  Uiso   1.00
C246   C     0.98331   0.01995   0.27002   0.00000  Uiso   1.00
C247   C     0.75668   0.01809   0.32623   0.00000  Uiso   1.00
C248   C     0.76494   0.04642   0.36678   0.00000  Uiso   1.00
C249   C     0.79000   0.20683   0.01309   0.00000  Uiso   1.00
C250   C     0.72829   0.07257   0.38708   0.00000  Uiso   1.00
C251   C     0.88597   0.07368   0.39225   0.00000  Uiso   1.00
C252   C     0.89714   0.02937   0.39054   0.00000  Uiso   1.00
C253   C     0.87448   0.33258   0.36020   0.00000  Uiso   1.00
C254   C     0.75533   0.29621   0.01022   0.00000  Uiso   1.00
C255   C     0.77588   0.31130   0.04930   0.00000  Uiso   1.00
C256   C     0.79063   0.02475   0.04988   0.00000  Uiso   1.00
C257   C     0.92191   0.21579   0.39211   0.00000  Uiso   1.00
C258   C     0.95763   0.22815   0.35153   0.00000  Uiso   1.00
C259   C     0.97962   0.27208   0.35897   0.00000  Uiso   1.00
C260   C     0.82421   0.18349   0.49108   0.00000  Uiso   1.00
C261   C     0.69498   0.23895   0.21358   0.00000  Uiso   1.00
C262   C     0.73507   0.25792   0.18094   0.00000  Uiso   1.00
C263   C     0.74327   0.30505   0.19056   0.00000  Uiso   1.00
C264   C     0.83752   0.18160   0.44367   0.00000  Uiso   1.00
C265   C     0.84505   0.16071   0.01404   0.00000  Uiso   1.00
C266   C     0.87162   0.13060   0.48948   0.00000  Uiso   1.00
C267   C     0.88458   0.13015   0.44302   0.00000  Uiso   1.00
C268   C     0.87439   0.16178   0.42231   0.00000  Uiso   1.00
F269   F     0.89525   0.08211   0.07960   0.00000  Uiso   1.00
F270   F     0.75901   0.24213   0.42054   0.00000  Uiso   1.00
F271   F     0.77158   0.20623   0.05746   0.00000  Uiso   1.00
H272   H     0.86677   0.00254   0.20775   0.00000  Uiso   1.00
H273   H     0.96700   0.00848   0.30311   0.00000  Uiso   1.00
H274   H     0.72909   0.32788   0.33845   0.00000  Uiso   1.00
H275   H     0.74646   0.03559   0.30276   0.00000  Uiso   1.00
H276   H     0.76844   0.02689   0.39245   0.00000  Uiso   1.00
H277   H     0.79506   0.06768   0.35708   0.00000  Uiso   1.00
H278   H     0.72574   0.09397   0.36270   0.00000  Uiso   1.00
H279   H     0.73456   0.09161   0.41722   0.00000  Uiso   1.00
H280   H     0.69752   0.05211   0.39689   0.00000  Uiso   1.00
H281   H     0.89427   0.08417   0.35791   0.00000  Uiso   1.00
H282   H     0.85047   0.07253   0.40565   0.00000  Uiso   1.00
H283   H     0.90615   0.07932   0.49379   0.00000  Uiso   1.00
H284   H     0.93228   0.02931   0.37825   0.00000  Uiso   1.00
H285   H     0.88738   0.01858   0.42480   0.00000  Uiso   1.00
H286   H     0.88337   0.00957   0.32580   0.00000  Uiso   1.00
H287   H     0.88387   0.30088   0.35883   0.00000  Uiso   1.00
H288   H     0.83923   0.33086   0.37340   0.00000  Uiso   1.00
H289   H     0.72758   0.31365   0.01356   0.00000  Uiso   1.00
H290   H     0.77823   0.30402   0.47789   0.00000  Uiso   1.00
H291   H     0.75229   0.30444   0.08129   0.00000  Uiso   1.00
H292   H     0.80400   0.29452   0.04642   0.00000  Uiso   1.00
H293   H     0.81478   0.03218   0.01843   0.00000  Uiso   1.00
H294   H     0.82694   0.19323   0.08000   0.00000  Uiso   1.00
H295   H     0.80539   0.03467   0.07843   0.00000  Uiso   1.00
H296   H     0.76300   0.04245   0.05368   0.00000  Uiso   1.00
H297   H     0.93605   0.21783   0.42150   0.00000  Uiso   1.00
H298   H     0.89785   0.23827   0.39845   0.00000  Uiso   1.00
H299   H     0.98201   0.20617   0.34489   0.00000  Uiso   1.00
H300   H     0.94403   0.22661   0.32201   0.00000  Uiso   1.00
H301   H     0.95587   0.29477   0.36838   0.00000  Uiso   1.00
H302   H     0.66972   0.28077   0.32756   0.00000  Uiso   1.00
H303   H     0.99678   0.27347   0.38579   0.00000  Uiso   1.00
H304   H     0.69974   0.24586   0.24809   0.00000  Uiso   1.00
H305   H     0.97344   0.08496   0.33597   0.00000  Uiso   1.00
H306   H     0.66685   0.25359   0.21123   0.00000  Uiso   1.00
H307   H     0.76324   0.24357   0.18360   0.00000  Uiso   1.00
H308   H     0.73130   0.25100   0.14622   0.00000  Uiso   1.00
H309   H     0.71651   0.32025   0.18579   0.00000  Uiso   1.00
H310   H     0.77336   0.31747   0.16724   0.00000  Uiso   1.00
H311   H     0.74661   0.31271   0.22530   0.00000  Uiso   1.00
H312   H     0.69102   0.09380   0.29920   0.00000  Uiso   1.00
H313   H     0.93822   0.06372   0.27337   0.00000  Uiso   1.00
H314   H     0.98887   0.07382   0.23343   0.00000  Uiso   1.00
H315   H     0.68499   0.01965   0.26444   0.00000  Uiso   1.00
H316   H     0.97191   0.33185   0.24395   0.00000  Uiso   1.00
O317   O     0.83333   0.16667   0.25000   0.00000  Uiso   1.00
O318   O     0.82118   0.12637   0.15459   0.00000  Uiso   1.00
O319   O     0.79607   0.20391   0.34968   0.00000  Uiso   1.00
O320   O     0.87491   0.17759   0.14606   0.00000  Uiso   1.00
O321   O     0.84118   0.15880   0.34968   0.00000  Uiso   1.00
O322   O     0.97965   0.13554   0.30026   0.00000  Uiso   1.00
O323   O     0.79240   0.32961   0.30597   0.00000  Uiso   1.00
O324   O     0.90995   0.10085   0.41836   0.00000  Uiso   1.00
O325   O     0.73961   0.25326   0.01157   0.00000  Uiso   1.00
O326   O     0.90289   0.17472   0.38344   0.00000  Uiso   1.00
O327   O     0.68880   0.19562   0.20196   0.00000  Uiso   1.00
O328   O     0.84597   0.08019   0.28214   0.00000  Uiso   1.00
O329   O     0.81298   0.26085   0.27014   0.00000  Uiso   1.00
O330   O     0.74078   0.13291   0.23413   0.00000  Uiso   1.00
O331   O     0.93360   0.19272   0.21361   0.00000  Uiso   1.00
O332   O     0.73738   0.18878   0.28213   0.00000  Uiso   1.00
O333   O     0.92158   0.15226   0.27014   0.00000  Uiso   1.00
O334   O     0.80426   0.06944   0.23413   0.00000  Uiso   1.00
O335   O     0.87012   0.25620   0.21361   0.00000  Uiso   1.00
Zn336  Zn    0.86005   0.13994   0.28734   0.00000  Uiso   1.00
Zn337  Zn    0.80046   0.12458   0.21876   0.00000  Uiso   1.00
Zn338  Zn    0.87723   0.19775   0.20657   0.00000  Uiso   1.00
Zn339  Zn    0.79560   0.20439   0.28734   0.00000  Uiso   1.00
C340   C     0.05297   0.49280   0.26001   0.00000  Uiso   1.00
C341   C     0.17456   0.50048   0.06020   0.00000  Uiso   1.00
C342   C     0.21301   0.44148   0.05817   0.00000  Uiso   1.00
C343   C     0.28071   0.50719   0.24037   0.00000  Uiso   1.00
C344   C     0.14639   0.53144   0.41925   0.00000  Uiso   1.00
C345   C     0.32657   0.50964   0.23711   0.00000  Uiso   1.00
C346   C     0.00751   0.48891   0.26463   0.00000  Uiso   1.00
C347   C     0.17752   0.65548   0.23629   0.00000  Uiso   1.00
C348   C     0.15096   0.34551   0.26630   0.00000  Uiso   1.00
C349   C     0.15658   0.38935   0.25999   0.00000  Uiso   1.00
C350   C     0.17624   0.61120   0.24036   0.00000  Uiso   1.00
C351   C     0.10513   0.56291   0.48898   0.00000  Uiso   1.00
C352   C     0.18518   0.48136   0.12961   0.00000  Uiso   1.00
C353   C     0.15042   0.51975   0.37072   0.00000  Uiso   1.00
C354   C     0.22048   0.43673   0.01193   0.00000  Uiso   1.00
C355   C     0.19145   0.47434   0.08183   0.00000  Uiso   1.00
C356   C     0.11506   0.55712   0.44246   0.00000  Uiso   1.00
C357   C     0.32309   0.42826   0.30224   0.00000  Uiso   1.00
C358   C     0.30674   0.39730   0.26753   0.00000  Uiso   1.00
C359   C     0.31665   0.35329   0.27002   0.00000  Uiso   1.00
C360   C     0.09002   0.35142   0.32623   0.00000  Uiso   1.00
C361   C     0.09828   0.37975   0.36678   0.00000  Uiso   1.00
C362   C     0.12333   0.54016   0.01309   0.00000  Uiso   1.00
C363   C     0.06163   0.40591   0.38708   0.00000  Uiso   1.00
C364   C     0.21930   0.40701   0.39225   0.00000  Uiso   1.00
C365   C     0.23047   0.36271   0.39054   0.00000  Uiso   1.00
C366   C     0.20781   0.66592   0.36020   0.00000  Uiso   1.00
C367   C     0.08866   0.62955   0.01022   0.00000  Uiso   1.00
C368   C     0.10921   0.64463   0.04930   0.00000  Uiso   1.00
C369   C     0.12397   0.35808   0.04988   0.00000  Uiso   1.00
C370   C     0.25525   0.54913   0.39211   0.00000  Uiso   1.00
C371   C     0.29096   0.56148   0.35153   0.00000  Uiso   1.00
C372   C     0.31296   0.60541   0.35897   0.00000  Uiso   1.00
C373   C     0.15755   0.51682   0.49108   0.00000  Uiso   1.00
C374   C     0.02831   0.57228   0.21358   0.00000  Uiso   1.00
C375   C     0.06840   0.59125   0.18094   0.00000  Uiso   1.00
C376   C     0.07660   0.63838   0.19056   0.00000  Uiso   1.00
C377   C     0.17085   0.51493   0.44367   0.00000  Uiso   1.00
C378   C     0.17838   0.49405   0.01404   0.00000  Uiso   1.00
C379   C     0.20495   0.46393   0.48948   0.00000  Uiso   1.00
C380   C     0.21791   0.46348   0.44302   0.00000  Uiso   1.00
C381   C     0.20772   0.49512   0.42231   0.00000  Uiso   1.00
F382   F     0.22859   0.41545   0.07960   0.00000  Uiso   1.00
F383   F     0.09234   0.57547   0.42054   0.00000  Uiso   1.00
F384   F     0.10492   0.53956   0.05746   0.00000  Uiso   1.00
H385   H     0.20010   0.33587   0.20775   0.00000  Uiso   1.00
H386   H     0.30033   0.34181   0.30311   0.00000  Uiso   1.00
H387   H     0.06243   0.66121   0.33845   0.00000  Uiso   1.00
H388   H     0.07979   0.36892   0.30276   0.00000  Uiso   1.00
H389   H     0.10177   0.36022   0.39245   0.00000  Uiso   1.00
H390   H     0.12839   0.40102   0.35708   0.00000  Uiso   1.00
H391   H     0.05908   0.42730   0.36270   0.00000  Uiso   1.00
H392   H     0.06789   0.42495   0.41722   0.00000  Uiso   1.00
H393   H     0.03085   0.38545   0.39689   0.00000  Uiso   1.00
H394   H     0.22760   0.41750   0.35791   0.00000  Uiso   1.00
H395   H     0.18380   0.40587   0.40565   0.00000  Uiso   1.00
H396   H     0.23949   0.41266   0.49379   0.00000  Uiso   1.00
H397   H     0.26561   0.36264   0.37825   0.00000  Uiso   1.00
H398   H     0.22071   0.35191   0.42480   0.00000  Uiso   1.00
H399   H     0.21670   0.34290   0.32580   0.00000  Uiso   1.00
H400   H     0.21721   0.63421   0.35883   0.00000  Uiso   1.00
H401   H     0.17256   0.66420   0.37340   0.00000  Uiso   1.00
H402   H     0.06092   0.64698   0.01356   0.00000  Uiso   1.00
H403   H     0.11156   0.63735   0.47789   0.00000  Uiso   1.00
H404   H     0.08562   0.63777   0.08129   0.00000  Uiso   1.00
H405   H     0.13733   0.62786   0.04642   0.00000  Uiso   1.00
H406   H     0.14812   0.36552   0.01843   0.00000  Uiso   1.00
H407   H     0.16027   0.52656   0.08000   0.00000  Uiso   1.00
H408   H     0.13872   0.36800   0.07843   0.00000  Uiso   1.00
H409   H     0.09633   0.37578   0.05368   0.00000  Uiso   1.00
H410   H     0.26939   0.55116   0.42150   0.00000  Uiso   1.00
H411   H     0.23118   0.57160   0.39845   0.00000  Uiso   1.00
H412   H     0.31534   0.53950   0.34489   0.00000  Uiso   1.00
H413   H     0.27736   0.55994   0.32201   0.00000  Uiso   1.00
H414   H     0.28921   0.62810   0.36838   0.00000  Uiso   1.00
H415   H     0.00305   0.61410   0.32756   0.00000  Uiso   1.00
H416   H     0.33011   0.60680   0.38579   0.00000  Uiso   1.00
H417   H     0.03307   0.57919   0.24809   0.00000  Uiso   1.00
H418   H     0.30678   0.41830   0.33597   0.00000  Uiso   1.00
H419   H     0.00019   0.58692   0.21123   0.00000  Uiso   1.00
H420   H     0.09657   0.57691   0.18360   0.00000  Uiso   1.00
H421   H     0.06463   0.58433   0.14622   0.00000  Uiso   1.00
H422   H     0.04984   0.65359   0.18579   0.00000  Uiso   1.00
H423   H     0.10669   0.65080   0.16724   0.00000  Uiso   1.00
H424   H     0.07995   0.64604   0.22530   0.00000  Uiso   1.00
H425   H     0.02435   0.42713   0.29920   0.00000  Uiso   1.00
H426   H     0.27156   0.39705   0.27337   0.00000  Uiso   1.00
H427   H     0.32220   0.40716   0.23343   0.00000  Uiso   1.00
H428   H     0.01833   0.35298   0.26444   0.00000  Uiso   1.00
H429   H     0.30524   0.66518   0.24395   0.00000  Uiso   1.00
O430   O     0.16667   0.50000   0.25000   0.00000  Uiso   1.00
O431   O     0.15451   0.45970   0.15459   0.00000  Uiso   1.00
O432   O     0.12940   0.53724   0.34968   0.00000  Uiso   1.00
O433   O     0.20824   0.51092   0.14606   0.00000  Uiso   1.00
O434   O     0.17451   0.49213   0.34968   0.00000  Uiso   1.00
O435   O     0.31298   0.46887   0.30026   0.00000  Uiso   1.00
O436   O     0.12574   0.66294   0.30597   0.00000  Uiso   1.00
O437   O     0.24329   0.43419   0.41836   0.00000  Uiso   1.00
O438   O     0.07295   0.58659   0.01157   0.00000  Uiso   1.00
O439   O     0.23622   0.50806   0.38344   0.00000  Uiso   1.00
O440   O     0.02213   0.52895   0.20196   0.00000  Uiso   1.00
O441   O     0.17930   0.41352   0.28214   0.00000  Uiso   1.00
O442   O     0.14632   0.59418   0.27014   0.00000  Uiso   1.00
O443   O     0.07412   0.46625   0.23413   0.00000  Uiso   1.00
O444   O     0.26693   0.52605   0.21361   0.00000  Uiso   1.00
O445   O     0.07071   0.52211   0.28213   0.00000  Uiso   1.00
O446   O     0.25491   0.48559   0.27014   0.00000  Uiso   1.00
O447   O     0.13760   0.40277   0.23413   0.00000  Uiso   1.00
O448   O     0.20345   0.58953   0.21361   0.00000  Uiso   1.00
Zn449  Zn    0.19338   0.47327   0.28734   0.00000  Uiso   1.00
Zn450  Zn    0.13379   0.45791   0.21876   0.00000  Uiso   1.00
Zn451  Zn    0.21056   0.53109   0.20657   0.00000  Uiso   1.00
Zn452  Zn    0.12893   0.53773   0.28734   0.00000  Uiso   1.00
C453   C     0.38631   0.49280   0.26001   0.00000  Uiso   1.00
C454   C     0.50790   0.50048   0.06020   0.00000  Uiso   1.00
C455   C     0.54634   0.44148   0.05817   0.00000  Uiso   1.00
C456   C     0.61404   0.50719   0.24037   0.00000  Uiso   1.00
C457   C     0.47973   0.53144   0.41925   0.00000  Uiso   1.00
C458   C     0.65991   0.50964   0.23711   0.00000  Uiso   1.00
C459   C     0.34084   0.48891   0.26463   0.00000  Uiso   1.00
C460   C     0.51086   0.65548   0.23629   0.00000  Uiso   1.00
C461   C     0.48430   0.34551   0.26630   0.00000  Uiso   1.00
C462   C     0.48991   0.38935   0.25999   0.00000  Uiso   1.00
C463   C     0.50957   0.61120   0.24036   0.00000  Uiso   1.00
C464   C     0.43846   0.56291   0.48898   0.00000  Uiso   1.00
C465   C     0.51851   0.48136   0.12961   0.00000  Uiso   1.00
C466   C     0.48376   0.51975   0.37072   0.00000  Uiso   1.00
C467   C     0.55381   0.43673   0.01193   0.00000  Uiso   1.00
C468   C     0.52478   0.47434   0.08183   0.00000  Uiso   1.00
C469   C     0.44839   0.55712   0.44246   0.00000  Uiso   1.00
C470   C     0.65643   0.42826   0.30224   0.00000  Uiso   1.00
C471   C     0.64007   0.39730   0.26753   0.00000  Uiso   1.00
C472   C     0.64998   0.35329   0.27002   0.00000  Uiso   1.00
C473   C     0.42335   0.35142   0.32623   0.00000  Uiso   1.00
C474   C     0.43161   0.37975   0.36678   0.00000  Uiso   1.00
C475   C     0.45667   0.54016   0.01309   0.00000  Uiso   1.00
C476   C     0.39496   0.40591   0.38708   0.00000  Uiso   1.00
C477   C     0.55264   0.40701   0.39225   0.00000  Uiso   1.00
C478   C     0.56381   0.36271   0.39054   0.00000  Uiso   1.00
C479   C     0.54114   0.66592   0.36020   0.00000  Uiso   1.00
C480   C     0.42200   0.62955   0.01022   0.00000  Uiso   1.00
C481   C     0.44254   0.64463   0.04930   0.00000  Uiso   1.00
C482   C     0.45730   0.35808   0.04988   0.00000  Uiso   1.00
C483   C     0.58858   0.54913   0.39211   0.00000  Uiso   1.00
C484   C     0.62430   0.56148   0.35153   0.00000  Uiso   1.00
C485   C     0.64629   0.60541   0.35897   0.00000  Uiso   1.00
C486   C     0.49088   0.51682   0.49108   0.00000  Uiso   1.00
C487   C     0.36165   0.57228   0.21358   0.00000  Uiso   1.00
C488   C     0.40174   0.59125   0.18094   0.00000  Uiso   1.00
C489   C     0.40994   0.63838   0.19056   0.00000  Uiso   1.00
C490   C     0.50419   0.51493   0.44367   0.00000  Uiso   1.00
C491   C     0.51171   0.49405   0.01404   0.00000  Uiso   1.00
C492   C     0.53829   0.46393   0.48948   0.00000  Uiso   1.00
C493   C     0.55124   0.46348   0.44302   0.00000  Uiso   1.00
C494   C     0.54106   0.49512   0.42231   0.00000  Uiso   1.00
F495   F     0.56192   0.41545   0.07960   0.00000  Uiso   1.00
F496   F     0.42567   0.57547   0.42054   0.00000  Uiso   1.00
F497   F     0.43825   0.53956   0.05746   0.00000  Uiso   1.00
H498   H     0.53343   0.33587   0.20775   0.00000  Uiso   1.00
H499   H     0.63366   0.34181   0.30311   0.00000  Uiso   1.00
H500   H     0.39576   0.66121   0.33845   0.00000  Uiso   1.00
H501   H     0.41312   0.36892   0.30276   0.00000  Uiso   1.00
H502   H     0.43511   0.36022   0.39245   0.00000  Uiso   1.00
H503   H     0.46173   0.40102   0.35708   0.00000  Uiso   1.00
H504   H     0.39241   0.42730   0.36270   0.00000  Uiso   1.00
H505   H     0.40122   0.42495   0.41722   0.00000  Uiso   1.00
H506   H     0.36418   0.38545   0.39689   0.00000  Uiso   1.00
H507   H     0.56094   0.41750   0.35791   0.00000  Uiso   1.00
H508   H     0.51714   0.40587   0.40565   0.00000  Uiso   1.00
H509   H     0.57282   0.41266   0.49379   0.00000  Uiso   1.00
H510   H     0.59894   0.36264   0.37825   0.00000  Uiso   1.00
H511   H     0.55404   0.35191   0.42480   0.00000  Uiso   1.00
H512   H     0.55003   0.34290   0.32580   0.00000  Uiso   1.00
H513   H     0.55054   0.63421   0.35883   0.00000  Uiso   1.00
H514   H     0.50590   0.66420   0.37340   0.00000  Uiso   1.00
H515   H     0.39425   0.64698   0.01356   0.00000  Uiso   1.00
H516   H     0.44490   0.63735   0.47789   0.00000  Uiso   1.00
H517   H     0.41895   0.63777   0.08129   0.00000  Uiso   1.00
H518   H     0.47067   0.62786   0.04642   0.00000  Uiso   1.00
H519   H     0.48145   0.36552   0.01843   0.00000  Uiso   1.00
H520   H     0.49361   0.52656   0.08000   0.00000  Uiso   1.00
H521   H     0.47206   0.36800   0.07843   0.00000  Uiso   1.00
H522   H     0.42966   0.37578   0.05368   0.00000  Uiso   1.00
H523   H     0.60272   0.55116   0.42150   0.00000  Uiso   1.00
H524   H     0.56452   0.57160   0.39845   0.00000  Uiso   1.00
H525   H     0.64867   0.53950   0.34489   0.00000  Uiso   1.00
H526   H     0.61070   0.55994   0.32201   0.00000  Uiso   1.00
H527   H     0.62254   0.62810   0.36838   0.00000  Uiso   1.00
H528   H     0.33639   0.61410   0.32756   0.00000  Uiso   1.00
H529   H     0.66345   0.60680   0.38579   0.00000  Uiso   1.00
H530   H     0.36640   0.57919   0.24809   0.00000  Uiso   1.00
H531   H     0.64011   0.41830   0.33597   0.00000  Uiso   1.00
H532   H     0.33352   0.58692   0.21123   0.00000  Uiso   1.00
H533   H     0.42991   0.57691   0.18360   0.00000  Uiso   1.00
H534   H     0.39796   0.58433   0.14622   0.00000  Uiso   1.00
H535   H     0.38317   0.65359   0.18579   0.00000  Uiso   1.00
H536   H     0.44002   0.65080   0.16724   0.00000  Uiso   1.00
H537   H     0.41328   0.64604   0.22530   0.00000  Uiso   1.00
H538   H     0.35768   0.42713   0.29920   0.00000  Uiso   1.00
H539   H     0.60489   0.39705   0.27337   0.00000  Uiso   1.00
H540   H     0.65553   0.40716   0.23343   0.00000  Uiso   1.00
H541   H     0.35166   0.35298   0.26444   0.00000  Uiso   1.00
H542   H     0.63857   0.66518   0.24395   0.00000  Uiso   1.00
O543   O     0.50000   0.50000   0.25000   0.00000  Uiso   1.00
O544   O     0.48784   0.45970   0.15459   0.00000  Uiso   1.00
O545   O     0.46274   0.53724   0.34968   0.00000  Uiso   1.00
O546   O     0.54157   0.51092   0.14606   0.00000  Uiso   1.00
O547   O     0.50785   0.49213   0.34968   0.00000  Uiso   1.00
O548   O     0.64631   0.46887   0.30026   0.00000  Uiso   1.00
O549   O     0.45907   0.66294   0.30597   0.00000  Uiso   1.00
O550   O     0.57662   0.43419   0.41836   0.00000  Uiso   1.00
O551   O     0.40628   0.58659   0.01157   0.00000  Uiso   1.00
O552   O     0.56956   0.50806   0.38344   0.00000  Uiso   1.00
O553   O     0.35546   0.52895   0.20196   0.00000  Uiso   1.00
O554   O     0.51264   0.41352   0.28214   0.00000  Uiso   1.00
O555   O     0.47965   0.59418   0.27014   0.00000  Uiso   1.00
O556   O     0.40745   0.46625   0.23413   0.00000  Uiso   1.00
O557   O     0.60026   0.52605   0.21361   0.00000  Uiso   1.00
O558   O     0.40405   0.52211   0.28213   0.00000  Uiso   1.00
O559   O     0.58824   0.48559   0.27014   0.00000  Uiso   1.00
O560   O     0.47093   0.40277   0.23413   0.00000  Uiso   1.00
O561   O     0.53678   0.58953   0.21361   0.00000  Uiso   1.00
Zn562  Zn    0.52672   0.47327   0.28734   0.00000  Uiso   1.00
Zn563  Zn    0.46713   0.45791   0.21876   0.00000  Uiso   1.00
Zn564  Zn    0.54389   0.53109   0.20657   0.00000  Uiso   1.00
Zn565  Zn    0.46226   0.53773   0.28734   0.00000  Uiso   1.00
C566   C     0.71964   0.49280   0.26001   0.00000  Uiso   1.00
C567   C     0.84123   0.50048   0.06020   0.00000  Uiso   1.00
C568   C     0.87967   0.44148   0.05817   0.00000  Uiso   1.00
C569   C     0.94738   0.50719   0.24037   0.00000  Uiso   1.00
C570   C     0.81306   0.53144   0.41925   0.00000  Uiso   1.00
C571   C     0.99324   0.50964   0.23711   0.00000  Uiso   1.00
C572   C     0.67417   0.48891   0.26463   0.00000  Uiso   1.00
C573   C     0.84419   0.65548   0.23629   0.00000  Uiso   1.00
C574   C     0.81763   0.34551   0.26630   0.00000  Uiso   1.00
C575   C     0.82324   0.38935   0.25999   0.00000  Uiso   1.00
C576   C     0.84290   0.61120   0.24036   0.00000  Uiso   1.00
C577   C     0.77180   0.56291   0.48898   0.00000  Uiso   1.00
C578   C     0.85184   0.48136   0.12961   0.00000  Uiso   1.00
C579   C     0.81709   0.51975   0.37072   0.00000  Uiso   1.00
C580   C     0.88714   0.43673   0.01193   0.00000  Uiso   1.00
C581   C     0.85811   0.47434   0.08183   0.00000  Uiso   1.00
C582   C     0.78173   0.55712   0.44246   0.00000  Uiso   1.00
C583   C     0.98976   0.42826   0.30224   0.00000  Uiso   1.00
C584   C     0.97341   0.39730   0.26753   0.00000  Uiso   1.00
C585   C     0.98331   0.35329   0.27002   0.00000  Uiso   1.00
C586   C     0.75668   0.35142   0.32623   0.00000  Uiso   1.00
C587   C     0.76494   0.37975   0.36678   0.00000  Uiso   1.00
C588   C     0.79000   0.54016   0.01309   0.00000  Uiso   1.00
C589   C     0.72829   0.40591   0.38708   0.00000  Uiso   1.00
C590   C     0.88597   0.40701   0.39225   0.00000  Uiso   1.00
C591   C     0.89714   0.36271   0.39054   0.00000  Uiso   1.00
C592   C     0.87448   0.66592   0.36020   0.00000  Uiso   1.00
C593   C     0.75533   0.62955   0.01022   0.00000  Uiso   1.00
C594   C     0.77588   0.64463   0.04930   0.00000  Uiso   1.00
C595   C     0.79063   0.35808   0.04988   0.00000  Uiso   1.00
C596   C     0.92191   0.54913   0.39211   0.00000  Uiso   1.00
C597   C     0.95763   0.56148   0.35153   0.00000  Uiso   1.00
C598   C     0.97962   0.60541   0.35897   0.00000  Uiso   1.00
C599   C     0.82421   0.51682   0.49108   0.00000  Uiso   1.00
C600   C     0.69498   0.57228   0.21358   0.00000  Uiso   1.00
C601   C     0.73507   0.59125   0.18094   0.00000  Uiso   1.00
C602   C     0.74327   0.63838   0.19056   0.00000  Uiso   1.00
C603   C     0.83752   0.51493   0.44367   0.00000  Uiso   1.00
C604   C     0.84505   0.49405   0.01404   0.00000  Uiso   1.00
C605   C     0.87162   0.46393   0.48948   0.00000  Uiso   1.00
C606   C     0.88458   0.46348   0.44302   0.00000  Uiso   1.00
C607   C     0.87439   0.49512   0.42231   0.00000  Uiso   1.00
F608   F     0.89525   0.41545   0.07960   0.00000  Uiso   1.00
F609   F     0.75901   0.57547   0.42054   0.00000  Uiso   1.00
F610   F     0.77158   0.53956   0.05746   0.00000  Uiso   1.00
H611   H     0.86677   0.33587   0.20775   0.00000  Uiso   1.00
H612   H     0.96700   0.34181   0.30311   0.00000  Uiso   1.00
H613   H     0.72909   0.66121   0.33845   0.00000  Uiso   1.00
H614   H     0.74646   0.36892   0.30276   0.00000  Uiso   1.00
H615   H     0.76844   0.36022   0.39245   0.00000  Uiso   1.00
H616   H     0.79506   0.40102   0.35708   0.00000  Uiso   1.00
H617   H     0.72574   0.42730   0.36270   0.00000  Uiso   1.00
H618   H     0.73456   0.42495   0.41722   0.00000  Uiso   1.00
H619   H     0.69752   0.38545   0.39689   0.00000  Uiso   1.00
H620   H     0.89427   0.41750   0.35791   0.00000  Uiso   1.00
H621   H     0.85047   0.40587   0.40565   0.00000  Uiso   1.00
H622   H     0.90615   0.41266   0.49379   0.00000  Uiso   1.00
H623   H     0.93228   0.36264   0.37825   0.00000  Uiso   1.00
H624   H     0.88738   0.35191   0.42480   0.00000  Uiso   1.00
H625   H     0.88337   0.34290   0.32580   0.00000  Uiso   1.00
H626   H     0.88387   0.63421   0.35883   0.00000  Uiso   1.00
H627   H     0.83923   0.66420   0.37340   0.00000  Uiso   1.00
H628   H     0.72758   0.64698   0.01356   0.00000  Uiso   1.00
H629   H     0.77823   0.63735   0.47789   0.00000  Uiso   1.00
H630   H     0.75229   0.63777   0.08129   0.00000  Uiso   1.00
H631   H     0.80400   0.62786   0.04642   0.00000  Uiso   1.00
H632   H     0.81478   0.36552   0.01843   0.00000  Uiso   1.00
H633   H     0.82694   0.52656   0.08000   0.00000  Uiso   1.00
H634   H     0.80539   0.36800   0.07843   0.00000  Uiso   1.00
H635   H     0.76300   0.37578   0.05368   0.00000  Uiso   1.00
H636   H     0.93605   0.55116   0.42150   0.00000  Uiso   1.00
H637   H     0.89785   0.57160   0.39845   0.00000  Uiso   1.00
H638   H     0.98201   0.53950   0.34489   0.00000  Uiso   1.00
H639   H     0.94403   0.55994   0.32201   0.00000  Uiso   1.00
H640   H     0.95587   0.62810   0.36838   0.00000  Uiso   1.00
H641   H     0.66972   0.61410   0.32756   0.00000  Uiso   1.00
H642   H     0.99678   0.60680   0.38579   0.00000  Uiso   1.00
H643   H     0.69974   0.57919   0.24809   0.00000  Uiso   1.00
H644   H     0.97344   0.41830   0.33597   0.00000  Uiso   1.00
H645   H     0.66685   0.58692   0.21123   0.00000  Uiso   1.00
H646   H     0.76324   0.57691   0.18360   0.00000  Uiso   1.00
H647   H     0.73130   0.58433   0.14622   0.00000  Uiso   1.00
H648   H     0.71651   0.65359   0.18579   0.00000  Uiso   1.00
H649   H     0.77336   0.65080   0.16724   0.00000  Uiso   1.00
H650   H     0.74661   0.64604   0.22530   0.00000  Uiso   1.00
H651   H     0.69102   0.42713   0.29920   0.00000  Uiso   1.00
H652   H     0.93822   0.39705   0.27337   0.00000  Uiso   1.00
H653   H     0.98887   0.40716   0.23343   0.00000  Uiso   1.00
H654   H     0.68499   0.35298   0.26444   0.00000  Uiso   1.00
H655   H     0.97191   0.66518   0.24395   0.00000  Uiso   1.00
O656   O     0.83333   0.50000   0.25000   0.00000  Uiso   1.00
O657   O     0.82118   0.45970   0.15459   0.00000  Uiso   1.00
O658   O     0.79607   0.53724   0.34968   0.00000  Uiso   1.00
O659   O     0.87491   0.51092   0.14606   0.00000  Uiso   1.00
O660   O     0.84118   0.49213   0.34968   0.00000  Uiso   1.00
O661   O     0.97965   0.46887   0.30026   0.00000  Uiso   1.00
O662   O     0.79240   0.66294   0.30597   0.00000  Uiso   1.00
O663   O     0.90995   0.43419   0.41836   0.00000  Uiso   1.00
O664   O     0.73961   0.58659   0.01157   0.00000  Uiso   1.00
O665   O     0.90289   0.50806   0.38344   0.00000  Uiso   1.00
O666   O     0.68880   0.52895   0.20196   0.00000  Uiso   1.00
O667   O     0.84597   0.41352   0.28214   0.00000  Uiso   1.00
O668   O     0.81298   0.59418   0.27014   0.00000  Uiso   1.00
O669   O     0.74078   0.46625   0.23413   0.00000  Uiso   1.00
O670   O     0.93360   0.52605   0.21361   0.00000  Uiso   1.00
O671   O     0.73738   0.52211   0.28213   0.00000  Uiso   1.00
O672   O     0.92158   0.48559   0.27014   0.00000  Uiso   1.00
O673   O     0.80426   0.40277   0.23413   0.00000  Uiso   1.00
O674   O     0.87012   0.58953   0.21361   0.00000  Uiso   1.00
Zn675  Zn    0.86005   0.47327   0.28734   0.00000  Uiso   1.00
Zn676  Zn    0.80046   0.45791   0.21876   0.00000  Uiso   1.00
Zn677  Zn    0.87723   0.53109   0.20657   0.00000  Uiso   1.00
Zn678  Zn    0.79560   0.53773   0.28734   0.00000  Uiso   1.00
C679   C     0.05297   0.82614   0.26001   0.00000  Uiso   1.00
C680   C     0.17456   0.83382   0.06020   0.00000  Uiso   1.00
C681   C     0.21301   0.77481   0.05817   0.00000  Uiso   1.00
C682   C     0.28071   0.84052   0.24037   0.00000  Uiso   1.00
C683   C     0.14639   0.86478   0.41925   0.00000  Uiso   1.00
C684   C     0.32657   0.84298   0.23711   0.00000  Uiso   1.00
C685   C     0.00751   0.82224   0.26463   0.00000  Uiso   1.00
C686   C     0.17752   0.98881   0.23629   0.00000  Uiso   1.00
C687   C     0.15096   0.67884   0.26630   0.00000  Uiso   1.00
C688   C     0.15658   0.72269   0.25999   0.00000  Uiso   1.00
C689   C     0.17624   0.94453   0.24036   0.00000  Uiso   1.00
C690   C     0.10513   0.89624   0.48898   0.00000  Uiso   1.00
C691   C     0.18518   0.81469   0.12961   0.00000  Uiso   1.00
C692   C     0.15042   0.85308   0.37072   0.00000  Uiso   1.00
C693   C     0.22048   0.77007   0.01193   0.00000  Uiso   1.00
C694   C     0.19145   0.80768   0.08183   0.00000  Uiso   1.00
C695   C     0.11506   0.89046   0.44246   0.00000  Uiso   1.00
C696   C     0.32309   0.76159   0.30224   0.00000  Uiso   1.00
C697   C     0.30674   0.73064   0.26753   0.00000  Uiso   1.00
C698   C     0.31665   0.68662   0.27002   0.00000  Uiso   1.00
C699   C     0.09002   0.68476   0.32623   0.00000  Uiso   1.00
C700   C     0.09828   0.71308   0.36678   0.00000  Uiso   1.00
C701   C     0.12333   0.87349   0.01309   0.00000  Uiso   1.00
C702   C     0.06163   0.73924   0.38708   0.00000  Uiso   1.00
C703   C     0.21930   0.74035   0.39225   0.00000  Uiso   1.00
C704   C     0.23047   0.69604   0.39054   0.00000  Uiso   1.00
C705   C     0.20781   0.99925   0.36020   0.00000  Uiso   1.00
C706   C     0.08866   0.96288   0.01022   0.00000  Uiso   1.00
C707   C     0.10921   0.97796   0.04930   0.00000  Uiso   1.00
C708   C     0.12397   0.69142   0.04988   0.00000  Uiso   1.00
C709   C     0.25525   0.88246   0.39211   0.00000  Uiso   1.00
C710   C     0.29096   0.89482   0.35153   0.00000  Uiso   1.00
C711   C     0.31296   0.93875   0.35897   0.00000  Uiso   1.00
C712   C     0.15755   0.85016   0.49108   0.00000  Uiso   1.00
C713   C     0.02831   0.90562   0.21358   0.00000  Uiso   1.00
C714   C     0.06840   0.92458   0.18094   0.00000  Uiso   1.00
C715   C     0.07660   0.97172   0.19056   0.00000  Uiso   1.00
C716   C     0.17085   0.84826   0.44367   0.00000  Uiso   1.00
C717   C     0.17838   0.82738   0.01404   0.00000  Uiso   1.00
C718   C     0.20495   0.79726   0.48948   0.00000  Uiso   1.00
C719   C     0.21791   0.79681   0.44302   0.00000  Uiso   1.00
C720   C     0.20772   0.82845   0.42231   0.00000  Uiso   1.00
F721   F     0.22859   0.74878   0.07960   0.00000  Uiso   1.00
F722   F     0.09234   0.90880   0.42054   0.00000  Uiso   1.00
F723   F     0.10492   0.87289   0.05746   0.00000  Uiso   1.00
H724   H     0.20010   0.66921   0.20775   0.00000  Uiso   1.00
H725   H     0.30033   0.67515   0.30311   0.00000  Uiso   1.00
H726   H     0.06243   0.99454   0.33845   0.00000  Uiso   1.00
H727   H     0.07979   0.70225   0.30276   0.00000  Uiso   1.00
H728   H     0.10177   0.69356   0.39245   0.00000  Uiso   1.00
H729   H     0.12839   0.73435   0.35708   0.00000  Uiso   1.00
H730   H     0.05908   0.76063   0.36270   0.00000  Uiso   1.00
H731   H     0.06789   0.75828   0.41722   0.00000  Uiso   1.00
H732   H     0.03085   0.71878   0.39689   0.00000  Uiso   1.00
H733   H     0.22760   0.75084   0.35791   0.00000  Uiso   1.00
H734   H     0.18380   0.73920   0.40565   0.00000  Uiso   1.00
H735   H     0.23949   0.74599   0.49379   0.00000  Uiso   1.00
H736   H     0.26561   0.69598   0.37825   0.00000  Uiso   1.00
H737   H     0.22071   0.68525   0.42480   0.00000  Uiso   1.00
H738   H     0.21670   0.67624   0.32580   0.00000  Uiso   1.00
H739   H     0.21721   0.96755   0.35883   0.00000  Uiso   1.00
H740   H     0.17256   0.99753   0.37340   0.00000  Uiso   1.00
H741   H     0.06092   0.98031   0.01356   0.00000  Uiso   1.00
H742   H     0.11156   0.97069   0.47789   0.00000  Uiso   1.00
H743   H     0.08562   0.97110   0.08129   0.00000  Uiso   1.00
H744   H     0.13733   0.96119   0.04642   0.00000  Uiso   1.00
H745   H     0.14812   0.69885   0.01843   0.00000  Uiso   1.00
H746   H     0.16027   0.85989   0.08000   0.00000  Uiso   1.00
H747   H     0.13872   0.70133   0.07843   0.00000  Uiso   1.00
H748   H     0.09633   0.70912   0.05368   0.00000  Uiso   1.00
H749   H     0.26939   0.88449   0.42150   0.00000  Uiso   1.00
H750   H     0.23118   0.90494   0.39845   0.00000  Uiso   1.00
H751   H     0.31534   0.87283   0.34489   0.00000  Uiso   1.00
H752   H     0.27736   0.89327   0.32201   0.00000  Uiso   1.00
H753   H     0.28921   0.96143   0.36838   0.00000  Uiso   1.00
H754   H     0.00305   0.94743   0.32756   0.00000  Uiso   1.00
H755   H     0.33011   0.94013   0.38579   0.00000  Uiso   1.00
H756   H     0.03307   0.91252   0.24809   0.00000  Uiso   1.00
H757   H     0.30678   0.75163   0.33597   0.00000  Uiso   1.00
H758   H     0.00019   0.92025   0.21123   0.00000  Uiso   1.00
H759   H     0.09657   0.91024   0.18360   0.00000  Uiso   1.00
H760   H     0.06463   0.91766   0.14622   0.00000  Uiso   1.00
H761   H     0.04984   0.98692   0.18579   0.00000  Uiso   1.00
H762   H     0.10669   0.98413   0.16724   0.00000  Uiso   1.00
H763   H     0.07995   0.97938   0.22530   0.00000  Uiso   1.00
H764   H     0.02435   0.76046   0.29920   0.00000  Uiso   1.00
H765   H     0.27156   0.73038   0.27337   0.00000  Uiso   1.00
H766   H     0.32220   0.74049   0.23343   0.00000  Uiso   1.00
H767   H     0.01833   0.68632   0.26444   0.00000  Uiso   1.00
H768   H     0.30524   0.99851   0.24395   0.00000  Uiso   1.00
O769   O     0.16667   0.83333   0.25000   0.00000  Uiso   1.00
O770   O     0.15451   0.79304   0.15459   0.00000  Uiso   1.00
O771   O     0.12940   0.87058   0.34968   0.00000  Uiso   1.00
O772   O     0.20824   0.84425   0.14606   0.00000  Uiso   1.00
O773   O     0.17451   0.82546   0.34968   0.00000  Uiso   1.00
O774   O     0.31298   0.80221   0.30026   0.00000  Uiso   1.00
O775   O     0.12574   0.99628   0.30597   0.00000  Uiso   1.00
O776   O     0.24329   0.76752   0.41836   0.00000  Uiso   1.00
O777   O     0.07295   0.91993   0.01157   0.00000  Uiso   1.00
O778   O     0.23622   0.84139   0.38344   0.00000  Uiso   1.00
O779   O     0.02213   0.86229   0.20196   0.00000  Uiso   1.00
O780   O     0.17930   0.74686   0.28214   0.00000  Uiso   1.00
O781   O     0.14632   0.92751   0.27014   0.00000  Uiso   1.00
O782   O     0.07412   0.79958   0.23413   0.00000  Uiso   1.00
O783   O     0.26693   0.85939   0.21361   0.00000  Uiso   1.00
O784   O     0.07071   0.85544   0.28213   0.00000  Uiso   1.00
O785   O     0.25491   0.81892   0.27014   0.00000  Uiso   1.00
O786   O     0.13760   0.73610   0.23413   0.00000  Uiso   1.00
O787   O     0.20345   0.92286   0.21361   0.00000  Uiso   1.00
Zn788  Zn    0.19338   0.80661   0.28734   0.00000  Uiso   1.00
Zn789  Zn    0.13379   0.79124   0.21876   0.00000  Uiso   1.00
Zn790  Zn    0.21056   0.86442   0.20657   0.00000  Uiso   1.00
Zn791  Zn    0.12893   0.87106   0.28734   0.00000  Uiso   1.00
C792   C     0.38631   0.82614   0.26001   0.00000  Uiso   1.00
C793   C     0.50790   0.83382   0.06020   0.00000  Uiso   1.00
C794   C     0.54634   0.77481   0.05817   0.00000  Uiso   1.00
C795   C     0.61404   0.84052   0.24037   0.00000  Uiso   1.00
C796   C     0.47973   0.86478   0.41925   0.00000  Uiso   1.00
C797   C     0.65991   0.84298   0.23711   0.00000  Uiso   1.00
C798   C     0.34084   0.82224   0.26463   0.00000  Uiso   1.00
C799   C     0.51086   0.98881   0.23629   0.00000  Uiso   1.00
C800   C     0.48430   0.67884   0.26630   0.00000  Uiso   1.00
C801   C     0.48991   0.72269   0.25999   0.00000  Uiso   1.00
C802   C     0.50957   0.94453   0.24036   0.00000  Uiso   1.00
C803   C     0.43846   0.89624   0.48898   0.00000  Uiso   1.00
C804   C     0.51851   0.81469   0.12961   0.00000  Uiso   1.00
C805   C     0.48376   0.85308   0.37072   0.00000  Uiso   1.00
C806   C     0.55381   0.77007   0.01193   0.00000  Uiso   1.00
C807   C     0.52478   0.80768   0.08183   0.00000  Uiso   1.00
C808   C     0.44839   0.89046   0.44246   0.00000  Uiso   1.00
C809   C     0.65643   0.76159   0.30224   0.00000  Uiso   1.00
C810   C     0.64007   0.73064   0.26753   0.00000  Uiso   1.00
C811   C     0.64998   0.68662   0.27002   0.00000  Uiso   1.00
C812   C     0.42335   0.68476   0.32623   0.00000  Uiso   1.00
C813   C     0.43161   0.71308   0.36678   0.00000  Uiso   1.00
C814   C     0.45667   0.87349   0.01309   0.00000  Uiso   1.00
C815   C     0.39496   0.73924   0.38708   0.00000  Uiso   1.00
C816   C     0.55264   0.74035   0.39225   0.00000  Uiso   1.00
C817   C     0.56381   0.69604   0.39054   0.00000  Uiso   1.00
C818   C     0.54114   0.99925   0.36020   0.00000  Uiso   1.00
C819   C     0.42200   0.96288   0.01022   0.00000  Uiso   1.00
C820   C     0.44254   0.97796   0.04930   0.00000  Uiso   1.00
C821   C     0.45730   0.69142   0.04988   0.00000  Uiso   1.00
C822   C     0.58858   0.88246   0.39211   0.00000  Uiso   1.00
C823   C     0.62430   0.89482   0.35153   0.00000  Uiso   1.00
C824   C     0.64629   0.93875   0.35897   0.00000  Uiso   1.00
C825   C     0.49088   0.85016   0.49108   0.00000  Uiso   1.00
C826   C     0.36165   0.90562   0.21358   0.00000  Uiso   1.00
C827   C     0.40174   0.92458   0.18094   0.00000  Uiso   1.00
C828   C     0.40994   0.97172   0.19056   0.00000  Uiso   1.00
C829   C     0.50419   0.84826   0.44367   0.00000  Uiso   1.00
C830   C     0.51171   0.82738   0.01404   0.00000  Uiso   1.00
C831   C     0.53829   0.79726   0.48948   0.00000  Uiso   1.00
C832   C     0.55124   0.79681   0.44302   0.00000  Uiso   1.00
C833   C     0.54106   0.82845   0.42231   0.00000  Uiso   1.00
F834   F     0.56192   0.74878   0.07960   0.00000  Uiso   1.00
F835   F     0.42567   0.90880   0.42054   0.00000  Uiso   1.00
F836   F     0.43825   0.87289   0.05746   0.00000  Uiso   1.00
H837   H     0.53343   0.66921   0.20775   0.00000  Uiso   1.00
H838   H     0.63366   0.67515   0.30311   0.00000  Uiso   1.00
H839   H     0.39576   0.99454   0.33845   0.00000  Uiso   1.00
H840   H     0.41312   0.70225   0.30276   0.00000  Uiso   1.00
H841   H     0.43511   0.69356   0.39245   0.00000  Uiso   1.00
H842   H     0.46173   0.73435   0.35708   0.00000  Uiso   1.00
H843   H     0.39241   0.76063   0.36270   0.00000  Uiso   1.00
H844   H     0.40122   0.75828   0.41722   0.00000  Uiso   1.00
H845   H     0.36418   0.71878   0.39689   0.00000  Uiso   1.00
H846   H     0.56094   0.75084   0.35791   0.00000  Uiso   1.00
H847   H     0.51714   0.73920   0.40565   0.00000  Uiso   1.00
H848   H     0.57282   0.74599   0.49379   0.00000  Uiso   1.00
H849   H     0.59894   0.69598   0.37825   0.00000  Uiso   1.00
H850   H     0.55404   0.68525   0.42480   0.00000  Uiso   1.00
H851   H     0.55003   0.67624   0.32580   0.00000  Uiso   1.00
H852   H     0.55054   0.96755   0.35883   0.00000  Uiso   1.00
H853   H     0.50590   0.99753   0.37340   0.00000  Uiso   1.00
H854   H     0.39425   0.98031   0.01356   0.00000  Uiso   1.00
H855   H     0.44490   0.97069   0.47789   0.00000  Uiso   1.00
H856   H     0.41895   0.97110   0.08129   0.00000  Uiso   1.00
H857   H     0.47067   0.96119   0.04642   0.00000  Uiso   1.00
H858   H     0.48145   0.69885   0.01843   0.00000  Uiso   1.00
H859   H     0.49361   0.85989   0.08000   0.00000  Uiso   1.00
H860   H     0.47206   0.70133   0.07843   0.00000  Uiso   1.00
H861   H     0.42966   0.70912   0.05368   0.00000  Uiso   1.00
H862   H     0.60272   0.88449   0.42150   0.00000  Uiso   1.00
H863   H     0.56452   0.90494   0.39845   0.00000  Uiso   1.00
H864   H     0.64867   0.87283   0.34489   0.00000  Uiso   1.00
H865   H     0.61070   0.89327   0.32201   0.00000  Uiso   1.00
H866   H     0.62254   0.96143   0.36838   0.00000  Uiso   1.00
H867   H     0.33639   0.94743   0.32756   0.00000  Uiso   1.00
H868   H     0.66345   0.94013   0.38579   0.00000  Uiso   1.00
H869   H     0.36640   0.91252   0.24809   0.00000  Uiso   1.00
H870   H     0.64011   0.75163   0.33597   0.00000  Uiso   1.00
H871   H     0.33352   0.92025   0.21123   0.00000  Uiso   1.00
H872   H     0.42991   0.91024   0.18360   0.00000  Uiso   1.00
H873   H     0.39796   0.91766   0.14622   0.00000  Uiso   1.00
H874   H     0.38317   0.98692   0.18579   0.00000  Uiso   1.00
H875   H     0.44002   0.98413   0.16724   0.00000  Uiso   1.00
H876   H     0.41328   0.97938   0.22530   0.00000  Uiso   1.00
H877   H     0.35768   0.76046   0.29920   0.00000  Uiso   1.00
H878   H     0.60489   0.73038   0.27337   0.00000  Uiso   1.00
H879   H     0.65553   0.74049   0.23343   0.00000  Uiso   1.00
H880   H     0.35166   0.68632   0.26444   0.00000  Uiso   1.00
H881   H     0.63857   0.99851   0.24395   0.00000  Uiso   1.00
O882   O     0.50000   0.83333   0.25000   0.00000  Uiso   1.00
O883   O     0.48784   0.79304   0.15459   0.00000  Uiso   1.00
O884   O     0.46274   0.87058   0.34968   0.00000  Uiso   1.00
O885   O     0.54157   0.84425   0.14606   0.00000  Uiso   1.00
O886   O     0.50785   0.82546   0.34968   0.00000  Uiso   1.00
O887   O     0.64631   0.80221   0.30026   0.00000  Uiso   1.00
O888   O     0.45907   0.99628   0.30597   0.00000  Uiso   1.00
O889   O     0.57662   0.76752   0.41836   0.00000  Uiso   1.00
O890   O     0.40628   0.91993   0.01157   0.00000  Uiso   1.00
O891   O     0.56956   0.84139   0.38344   0.00000  Uiso   1.00
O892   O     0.35546   0.86229   0.20196   0.00000  Uiso   1.00
O893   O     0.51264   0.74686   0.28214   0.00000  Uiso   1.00
O894   O     0.47965   0.92751   0.27014   0.00000  Uiso   1.00
O895   O     0.40745   0.79958   0.23413   0.00000  Uiso   1.00
O896   O     0.60026   0.85939   0.21361   0.00000  Uiso   1.00
O897   O     0.40405   0.85544   0.28213   0.00000  Uiso   1.00
O898   O     0.58824   0.81892   0.27014   0.00000  Uiso   1.00
O899   O     0.47093   0.73610   0.23413   0.00000  Uiso   1.00
O900   O     0.53678   0.92286   0.21361   0.00000  Uiso   1.00
Zn901  Zn    0.52672   0.80661   0.28734   0.00000  Uiso   1.00
Zn902  Zn    0.46713   0.79124   0.21876   0.00000  Uiso   1.00
Zn903  Zn    0.54389   0.86442   0.20657   0.00000  Uiso   1.00
Zn904  Zn    0.46226   0.87106   0.28734   0.00000  Uiso   1.00
C905   C     0.71964   0.82614   0.26001   0.00000  Uiso   1.00
C906   C     0.84123   0.83382   0.06020   0.00000  Uiso   1.00
C907   C     0.87967   0.77481   0.05817   0.00000  Uiso   1.00
C908   C     0.94738   0.84052   0.24037   0.00000  Uiso   1.00
C909   C     0.81306   0.86478   0.41925   0.00000  Uiso   1.00
C910   C     0.99324   0.84298   0.23711   0.00000  Uiso   1.00
C911   C     0.67417   0.82224   0.26463   0.00000  Uiso   1.00
C912   C     0.84419   0.98881   0.23629   0.00000  Uiso   1.00
C913   C     0.81763   0.67884   0.26630   0.00000  Uiso   1.00
C914   C     0.82324   0.72269   0.25999   0.00000  Uiso   1.00
C915   C     0.84290   0.94453   0.24036   0.00000  Uiso   1.00
C916   C     0.77180   0.89624   0.48898   0.00000  Uiso   1.00
C917   C     0.85184   0.81469   0.12961   0.00000  Uiso   1.00
C918   C     0.81709   0.85308   0.37072   0.00000  Uiso   1.00
C919   C     0.88714   0.77007   0.01193   0.00000  Uiso   1.00
C920   C     0.85811   0.80768   0.08183   0.00000  Uiso   1.00
C921   C     0.78173   0.89046   0.44246   0.00000  Uiso   1.00
C922   C     0.98976   0.76159   0.30224   0.00000  Uiso   1.00
C923   C     0.97341   0.73064   0.26753   0.00000  Uiso   1.00
C924   C     0.98331   0.68662   0.27002   0.00000  Uiso   1.00
C925   C     0.75668   0.68476   0.32623   0.00000  Uiso   1.00
C926   C     0.76494   0.71308   0.36678   0.00000  Uiso   1.00
C927   C     0.79000   0.87349   0.01309   0.00000  Uiso   1.00
C928   C     0.72829   0.73924   0.38708   0.00000  Uiso   1.00
C929   C     0.88597   0.74035   0.39225   0.00000  Uiso   1.00
C930   C     0.89714   0.69604   0.39054   0.00000  Uiso   1.00
C931   C     0.87448   0.99925   0.36020   0.00000  Uiso   1.00
C932   C     0.75533   0.96288   0.01022   0.00000  Uiso   1.00
C933   C     0.77588   0.97796   0.04930   0.00000  Uiso   1.00
C934   C     0.79063   0.69142   0.04988   0.00000  Uiso   1.00
C935   C     0.92191   0.88246   0.39211   0.00000  Uiso   1.00
C936   C     0.95763   0.89482   0.35153   0.00000  Uiso   1.00
C937   C     0.97962   0.93875   0.35897   0.00000  Uiso   1.00
C938   C     0.82421   0.85016   0.49108   0.00000  Uiso   1.00
C939   C     0.69498   0.90562   0.21358   0.00000  Uiso   1.00
C940   C     0.73507   0.92458   0.18094   0.00000  Uiso   1.00
C941   C     0.74327   0.97172   0.19056   0.00000  Uiso   1.00
C942   C     0.83752   0.84826   0.44367   0.00000  Uiso   1.00
C943   C     0.84505   0.82738   0.01404   0.00000  Uiso   1.00
C944   C     0.87162   0.79726   0.48948   0.00000  Uiso   1.00
C945   C     0.88458   0.79681   0.44302   0.00000  Uiso   1.00
C946   C     0.87439   0.82845   0.42231   0.00000  Uiso   1.00
F947   F     0.89525   0.74878   0.07960   0.00000  Uiso   1.00
F948   F     0.75901   0.90880   0.42054   0.00000  Uiso   1.00
F949   F     0.77158   0.87289   0.05746   0.00000  Uiso   1.00
H950   H     0.86677   0.66921   0.20775   0.00000  Uiso   1.00
H951   H     0.96700   0.67515   0.30311   0.00000  Uiso   1.00
H952   H     0.72909   0.99454   0.33845   0.00000  Uiso   1.00
H953   H     0.74646   0.70225   0.30276   0.00000  Uiso   1.00
H954   H     0.76844   0.69356   0.39245   0.00000  Uiso   1.00
H955   H     0.79506   0.73435   0.35708   0.00000  Uiso   1.00
H956   H     0.72574   0.76063   0.36270   0.00000  Uiso   1.00
H957   H     0.73456   0.75828   0.41722   0.00000  Uiso   1.00
H958   H     0.69752   0.71878   0.39689   0.00000  Uiso   1.00
H959   H     0.89427   0.75084   0.35791   0.00000  Uiso   1.00
H960   H     0.85047   0.73920   0.40565   0.00000  Uiso   1.00
H961   H     0.90615   0.74599   0.49379   0.00000  Uiso   1.00
H962   H     0.93228   0.69598   0.37825   0.00000  Uiso   1.00
H963   H     0.88738   0.68525   0.42480   0.00000  Uiso   1.00
H964   H     0.88337   0.67624   0.32580   0.00000  Uiso   1.00
H965   H     0.88387   0.96755   0.35883   0.00000  Uiso   1.00
H966   H     0.83923   0.99753   0.37340   0.00000  Uiso   1.00
H967   H     0.72758   0.98031   0.01356   0.00000  Uiso   1.00
H968   H     0.77823   0.97069   0.47789   0.00000  Uiso   1.00
H969   H     0.75229   0.97110   0.08129   0.00000  Uiso   1.00
H970   H     0.80400   0.96119   0.04642   0.00000  Uiso   1.00
H971   H     0.81478   0.69885   0.01843   0.00000  Uiso   1.00
H972   H     0.82694   0.85989   0.08000   0.00000  Uiso   1.00
H973   H     0.80539   0.70133   0.07843   0.00000  Uiso   1.00
H974   H     0.76300   0.70912   0.05368   0.00000  Uiso   1.00
H975   H     0.93605   0.88449   0.42150   0.00000  Uiso   1.00
H976   H     0.89785   0.90494   0.39845   0.00000  Uiso   1.00
H977   H     0.98201   0.87283   0.34489   0.00000  Uiso   1.00
H978   H     0.94403   0.89327   0.32201   0.00000  Uiso   1.00
H979   H     0.95587   0.96143   0.36838   0.00000  Uiso   1.00
H980   H     0.66972   0.94743   0.32756   0.00000  Uiso   1.00
H981   H     0.99678   0.94013   0.38579   0.00000  Uiso   1.00
H982   H     0.69974   0.91252   0.24809   0.00000  Uiso   1.00
H983   H     0.97344   0.75163   0.33597   0.00000  Uiso   1.00
H984   H     0.66685   0.92025   0.21123   0.00000  Uiso   1.00
H985   H     0.76324   0.91024   0.18360   0.00000  Uiso   1.00
H986   H     0.73130   0.91766   0.14622   0.00000  Uiso   1.00
H987   H     0.71651   0.98692   0.18579   0.00000  Uiso   1.00
H988   H     0.77336   0.98413   0.16724   0.00000  Uiso   1.00
H989   H     0.74661   0.97938   0.22530   0.00000  Uiso   1.00
H990   H     0.69102   0.76046   0.29920   0.00000  Uiso   1.00
H991   H     0.93822   0.73038   0.27337   0.00000  Uiso   1.00
H992   H     0.98887   0.74049   0.23343   0.00000  Uiso   1.00
H993   H     0.68499   0.68632   0.26444   0.00000  Uiso   1.00
H994   H     0.97191   0.99851   0.24395   0.00000  Uiso   1.00
O995   O     0.83333   0.83333   0.25000   0.00000  Uiso   1.00
O996   O     0.82118   0.79304   0.15459   0.00000  Uiso   1.00
O997   O     0.79607   0.87058   0.34968   0.00000  Uiso   1.00
O998   O     0.87491   0.84425   0.14606   0.00000  Uiso   1.00
O999   O     0.84118   0.82546   0.34968   0.00000  Uiso   1.00
O1000  O     0.97965   0.80221   0.30026   0.00000  Uiso   1.00
O1001  O     0.79240   0.99628   0.30597   0.00000  Uiso   1.00
O1002  O     0.90995   0.76752   0.41836   0.00000  Uiso   1.00
O1003  O     0.73961   0.91993   0.01157   0.00000  Uiso   1.00
O1004  O     0.90289   0.84139   0.38344   0.00000  Uiso   1.00
O1005  O     0.68880   0.86229   0.20196   0.00000  Uiso   1.00
O1006  O     0.84597   0.74686   0.28214   0.00000  Uiso   1.00
O1007  O     0.81298   0.92751   0.27014   0.00000  Uiso   1.00
O1008  O     0.74078   0.79958   0.23413   0.00000  Uiso   1.00
O1009  O     0.93360   0.85939   0.21361   0.00000  Uiso   1.00
O1010  O     0.73738   0.85544   0.28213   0.00000  Uiso   1.00
O1011  O     0.92158   0.81892   0.27014   0.00000  Uiso   1.00
O1012  O     0.80426   0.73610   0.23413   0.00000  Uiso   1.00
O1013  O     0.87012   0.92286   0.21361   0.00000  Uiso   1.00
Zn1014 Zn    0.86005   0.80661   0.28734   0.00000  Uiso   1.00
Zn1015 Zn    0.80046   0.79124   0.21876   0.00000  Uiso   1.00
Zn1016 Zn    0.87723   0.86442   0.20657   0.00000  Uiso   1.00
Zn1017 Zn    0.79560   0.87106   0.28734   0.00000  Uiso   1.00
C1018  C     0.05297   0.15947   0.76001   0.00000  Uiso   1.00
C1019  C     0.17456   0.16715   0.56020   0.00000  Uiso   1.00
C1020  C     0.21301   0.10815   0.55817   0.00000  Uiso   1.00
C1021  C     0.28071   0.17386   0.74037   0.00000  Uiso   1.00
C1022  C     0.14639   0.19811   0.91925   0.00000  Uiso   1.00
C1023  C     0.32657   0.17631   0.73711   0.00000  Uiso   1.00
C1024  C     0.00751   0.15558   0.76463   0.00000  Uiso   1.00
C1025  C     0.17752   0.32215   0.73629   0.00000  Uiso   1.00
C1026  C     0.15096   0.01217   0.76630   0.00000  Uiso   1.00
C1027  C     0.15658   0.05602   0.75999   0.00000  Uiso   1.00
C1028  C     0.17624   0.27787   0.74036   0.00000  Uiso   1.00
C1029  C     0.10513   0.22958   0.98898   0.00000  Uiso   1.00
C1030  C     0.18518   0.14802   0.62961   0.00000  Uiso   1.00
C1031  C     0.15042   0.18642   0.87072   0.00000  Uiso   1.00
C1032  C     0.22048   0.10340   0.51193   0.00000  Uiso   1.00
C1033  C     0.19145   0.14101   0.58183   0.00000  Uiso   1.00
C1034  C     0.11506   0.22379   0.94246   0.00000  Uiso   1.00
C1035  C     0.32309   0.09493   0.80224   0.00000  Uiso   1.00
C1036  C     0.30674   0.06397   0.76753   0.00000  Uiso   1.00
C1037  C     0.31665   0.01995   0.77002   0.00000  Uiso   1.00
C1038  C     0.09002   0.01809   0.82623   0.00000  Uiso   1.00
C1039  C     0.09828   0.04642   0.86678   0.00000  Uiso   1.00
C1040  C     0.12333   0.20683   0.51309   0.00000  Uiso   1.00
C1041  C     0.06163   0.07257   0.88708   0.00000  Uiso   1.00
C1042  C     0.21930   0.07368   0.89225   0.00000  Uiso   1.00
C1043  C     0.23047   0.02937   0.89054   0.00000  Uiso   1.00
C1044  C     0.20781   0.33258   0.86020   0.00000  Uiso   1.00
C1045  C     0.08866   0.29621   0.51022   0.00000  Uiso   1.00
C1046  C     0.10921   0.31130   0.54930   0.00000  Uiso   1.00
C1047  C     0.12397   0.02475   0.54988   0.00000  Uiso   1.00
C1048  C     0.25525   0.21579   0.89211   0.00000  Uiso   1.00
C1049  C     0.29096   0.22815   0.85153   0.00000  Uiso   1.00
C1050  C     0.31296   0.27208   0.85897   0.00000  Uiso   1.00
C1051  C     0.15755   0.18349   0.99108   0.00000  Uiso   1.00
C1052  C     0.02831   0.23895   0.71358   0.00000  Uiso   1.00
C1053  C     0.06840   0.25792   0.68094   0.00000  Uiso   1.00
C1054  C     0.07660   0.30505   0.69056   0.00000  Uiso   1.00
C1055  C     0.17085   0.18160   0.94367   0.00000  Uiso   1.00
C1056  C     0.17838   0.16071   0.51404   0.00000  Uiso   1.00
C1057  C     0.20495   0.13060   0.98948   0.00000  Uiso   1.00
C1058  C     0.21791   0.13015   0.94302   0.00000  Uiso   1.00
C1059  C     0.20772   0.16178   0.92231   0.00000  Uiso   1.00
F1060  F     0.22859   0.08211   0.57960   0.00000  Uiso   1.00
F1061  F     0.09234   0.24213   0.92054   0.00000  Uiso   1.00
F1062  F     0.10492   0.20623   0.55746   0.00000  Uiso   1.00
H1063  H     0.20010   0.00254   0.70775   0.00000  Uiso   1.00
H1064  H     0.30033   0.00848   0.80311   0.00000  Uiso   1.00
H1065  H     0.06243   0.32788   0.83845   0.00000  Uiso   1.00
H1066  H     0.07979   0.03559   0.80276   0.00000  Uiso   1.00
H1067  H     0.10177   0.02689   0.89245   0.00000  Uiso   1.00
H1068  H     0.12839   0.06768   0.85708   0.00000  Uiso   1.00
H1069  H     0.05908   0.09397   0.86270   0.00000  Uiso   1.00
H1070  H     0.06789   0.09161   0.91722   0.00000  Uiso   1.00
H1071  H     0.03085   0.05211   0.89689   0.00000  Uiso   1.00
H1072  H     0.22760   0.08417   0.85791   0.00000  Uiso   1.00
H1073  H     0.18380   0.07253   0.90565   0.00000  Uiso   1.00
H1074  H     0.23949   0.07932   0.99379   0.00000  Uiso   1.00
H1075  H     0.26561   0.02931   0.87825   0.00000  Uiso   1.00
H1076  H     0.22071   0.01858   0.92480   0.00000  Uiso   1.00
H1077  H     0.21670   0.00957   0.82580   0.00000  Uiso   1.00
H1078  H     0.21721   0.30088   0.85883   0.00000  Uiso   1.00
H1079  H     0.17256   0.33086   0.87340   0.00000  Uiso   1.00
H1080  H     0.06092   0.31365   0.51356   0.00000  Uiso   1.00
H1081  H     0.11156   0.30402   0.97789   0.00000  Uiso   1.00
H1082  H     0.08562   0.30444   0.58129   0.00000  Uiso   1.00
H1083  H     0.13733   0.29452   0.54642   0.00000  Uiso   1.00
H1084  H     0.14812   0.03218   0.51843   0.00000  Uiso   1.00
H1085  H     0.16027   0.19323   0.58000   0.00000  Uiso   1.00
H1086  H     0.13872   0.03467   0.57843   0.00000  Uiso   1.00
H1087  H     0.09633   0.04245   0.55368   0.00000  Uiso   1.00
H1088  H     0.26939   0.21783   0.92150   0.00000  Uiso   1.00
H1089  H     0.23118   0.23827   0.89845   0.00000  Uiso   1.00
H1090  H     0.31534   0.20617   0.84489   0.00000  Uiso   1.00
H1091  H     0.27736   0.22661   0.82201   0.00000  Uiso   1.00
H1092  H     0.28921   0.29477   0.86838   0.00000  Uiso   1.00
H1093  H     0.00305   0.28077   0.82756   0.00000  Uiso   1.00
H1094  H     0.33011   0.27347   0.88579   0.00000  Uiso   1.00
H1095  H     0.03307   0.24586   0.74809   0.00000  Uiso   1.00
H1096  H     0.30678   0.08496   0.83597   0.00000  Uiso   1.00
H1097  H     0.00019   0.25359   0.71123   0.00000  Uiso   1.00
H1098  H     0.09657   0.24357   0.68360   0.00000  Uiso   1.00
H1099  H     0.06463   0.25100   0.64622   0.00000  Uiso   1.00
H1100  H     0.04984   0.32025   0.68579   0.00000  Uiso   1.00
H1101  H     0.10669   0.31747   0.66724   0.00000  Uiso   1.00
H1102  H     0.07995   0.31271   0.72530   0.00000  Uiso   1.00
H1103  H     0.02435   0.09380   0.79920   0.00000  Uiso   1.00
H1104  H     0.27156   0.06372   0.77337   0.00000  Uiso   1.00
H1105  H     0.32220   0.07382   0.73343   0.00000  Uiso   1.00
H1106  H     0.01833   0.01965   0.76444   0.00000  Uiso   1.00
H1107  H     0.30524   0.33185   0.74395   0.00000  Uiso   1.00
O1108  O     0.16667   0.16667   0.75000   0.00000  Uiso   1.00
O1109  O     0.15451   0.12637   0.65459   0.00000  Uiso   1.00
O1110  O     0.12940   0.20391   0.84968   0.00000  Uiso   1.00
O1111  O     0.20824   0.17759   0.64606   0.00000  Uiso   1.00
O1112  O     0.17451   0.15880   0.84968   0.00000  Uiso   1.00
O1113  O     0.31298   0.13554   0.80026   0.00000  Uiso   1.00
O1114  O     0.12574   0.32961   0.80597   0.00000  Uiso   1.00
O1115  O     0.24329   0.10085   0.91836   0.00000  Uiso   1.00
O1116  O     0.07295   0.25326   0.51157   0.00000  Uiso   1.00
O1117  O     0.23622   0.17472   0.88344   0.00000  Uiso   1.00
O1118  O     0.02213   0.19562   0.70196   0.00000  Uiso   1.00
O1119  O     0.17930   0.08019   0.78214   0.00000  Uiso   1.00
O1120  O     0.14632   0.26085   0.77014   0.00000  Uiso   1.00
O1121  O     0.07412   0.13291   0.73413   0.00000  Uiso   1.00
O1122  O     0.26693   0.19272   0.71361   0.00000  Uiso   1.00
O1123  O     0.07071   0.18878   0.78213   0.00000  Uiso   1.00
O1124  O     0.25491   0.15226   0.77014   0.00000  Uiso   1.00
O1125  O     0.13760   0.06944   0.73413   0.00000  Uiso   1.00
O1126  O     0.20345   0.25620   0.71361   0.00000  Uiso   1.00
Zn1127 Zn    0.19338   0.13994   0.78734   0.00000  Uiso   1.00
Zn1128 Zn    0.13379   0.12458   0.71876   0.00000  Uiso   1.00
Zn1129 Zn    0.21056   0.19775   0.70657   0.00000  Uiso   1.00
Zn1130 Zn    0.12893   0.20439   0.78734   0.00000  Uiso   1.00
C1131  C     0.38631   0.15947   0.76001   0.00000  Uiso   1.00
C1132  C     0.50790   0.16715   0.56020   0.00000  Uiso   1.00
C1133  C     0.54634   0.10815   0.55817   0.00000  Uiso   1.00
C1134  C     0.61404   0.17386   0.74037   0.00000  Uiso   1.00
C1135  C     0.47973   0.19811   0.91925   0.00000  Uiso   1.00
C1136  C     0.65991   0.17631   0.73711   0.00000  Uiso   1.00
C1137  C     0.34084   0.15558   0.76463   0.00000  Uiso   1.00
C1138  C     0.51086   0.32215   0.73629   0.00000  Uiso   1.00
C1139  C     0.48430   0.01217   0.76630   0.00000  Uiso   1.00
C1140  C     0.48991   0.05602   0.75999   0.00000  Uiso   1.00
C1141  C     0.50957   0.27787   0.74036   0.00000  Uiso   1.00
C1142  C     0.43846   0.22958   0.98898   0.00000  Uiso   1.00
C1143  C     0.51851   0.14802   0.62961   0.00000  Uiso   1.00
C1144  C     0.48376   0.18642   0.87072   0.00000  Uiso   1.00
C1145  C     0.55381   0.10340   0.51193   0.00000  Uiso   1.00
C1146  C     0.52478   0.14101   0.58183   0.00000  Uiso   1.00
C1147  C     0.44839   0.22379   0.94246   0.00000  Uiso   1.00
C1148  C     0.65643   0.09493   0.80224   0.00000  Uiso   1.00
C1149  C     0.64007   0.06397   0.76753   0.00000  Uiso   1.00
C1150  C     0.64998   0.01995   0.77002   0.00000  Uiso   1.00
C1151  C     0.42335   0.01809   0.82623   0.00000  Uiso   1.00
C1152  C     0.43161   0.04642   0.86678   0.00000  Uiso   1.00
C1153  C     0.45667   0.20683   0.51309   0.00000  Uiso   1.00
C1154  C     0.39496   0.07257   0.88708   0.00000  Uiso   1.00
C1155  C     0.55264   0.07368   0.89225   0.00000  Uiso   1.00
C1156  C     0.56381   0.02937   0.89054   0.00000  Uiso   1.00
C1157  C     0.54114   0.33258   0.86020   0.00000  Uiso   1.00
C1158  C     0.42200   0.29621   0.51022   0.00000  Uiso   1.00
C1159  C     0.44254   0.31130   0.54930   0.00000  Uiso   1.00
C1160  C     0.45730   0.02475   0.54988   0.00000  Uiso   1.00
C1161  C     0.58858   0.21579   0.89211   0.00000  Uiso   1.00
C1162  C     0.62430   0.22815   0.85153   0.00000  Uiso   1.00
C1163  C     0.64629   0.27208   0.85897   0.00000  Uiso   1.00
C1164  C     0.49088   0.18349   0.99108   0.00000  Uiso   1.00
C1165  C     0.36165   0.23895   0.71358   0.00000  Uiso   1.00
C1166  C     0.40174   0.25792   0.68094   0.00000  Uiso   1.00
C1167  C     0.40994   0.30505   0.69056   0.00000  Uiso   1.00
C1168  C     0.50419   0.18160   0.94367   0.00000  Uiso   1.00
C1169  C     0.51171   0.16071   0.51404   0.00000  Uiso   1.00
C1170  C     0.53829   0.13060   0.98948   0.00000  Uiso   1.00
C1171  C     0.55124   0.13015   0.94302   0.00000  Uiso   1.00
C1172  C     0.54106   0.16178   0.92231   0.00000  Uiso   1.00
F1173  F     0.56192   0.08211   0.57960   0.00000  Uiso   1.00
F1174  F     0.42567   0.24213   0.92054   0.00000  Uiso   1.00
F1175  F     0.43825   0.20623   0.55746   0.00000  Uiso   1.00
H1176  H     0.53343   0.00254   0.70775   0.00000  Uiso   1.00
H1177  H     0.63366   0.00848   0.80311   0.00000  Uiso   1.00
H1178  H     0.39576   0.32788   0.83845   0.00000  Uiso   1.00
H1179  H     0.41312   0.03559   0.80276   0.00000  Uiso   1.00
H1180  H     0.43511   0.02689   0.89245   0.00000  Uiso   1.00
H1181  H     0.46173   0.06768   0.85708   0.00000  Uiso   1.00
H1182  H     0.39241   0.09397   0.86270   0.00000  Uiso   1.00
H1183  H     0.40122   0.09161   0.91722   0.00000  Uiso   1.00
H1184  H     0.36418   0.05211   0.89689   0.00000  Uiso   1.00
H1185  H     0.56094   0.08417   0.85791   0.00000  Uiso   1.00
H1186  H     0.51714   0.07253   0.90565   0.00000  Uiso   1.00
H1187  H     0.57282   0.07932   0.99379   0.00000  Uiso   1.00
H1188  H     0.59894   0.02931   0.87825   0.00000  Uiso   1.00
H1189  H     0.55404   0.01858   0.92480   0.00000  Uiso   1.00
H1190  H     0.55003   0.00957   0.82580   0.00000  Uiso   1.00
H1191  H     0.55054   0.30088   0.85883   0.00000  Uiso   1.00
H1192  H     0.50590   0.33086   0.87340   0.00000  Uiso   1.00
H1193  H     0.39425   0.31365   0.51356   0.00000  Uiso   1.00
H1194  H     0.44490   0.30402   0.97789   0.00000  Uiso   1.00
H1195  H     0.41895   0.30444   0.58129   0.00000  Uiso   1.00
H1196  H     0.47067   0.29452   0.54642   0.00000  Uiso   1.00
H1197  H     0.48145   0.03218   0.51843   0.00000  Uiso   1.00
H1198  H     0.49361   0.19323   0.58000   0.00000  Uiso   1.00
H1199  H     0.47206   0.03467   0.57843   0.00000  Uiso   1.00
H1200  H     0.42966   0.04245   0.55368   0.00000  Uiso   1.00
H1201  H     0.60272   0.21783   0.92150   0.00000  Uiso   1.00
H1202  H     0.56452   0.23827   0.89845   0.00000  Uiso   1.00
H1203  H     0.64867   0.20617   0.84489   0.00000  Uiso   1.00
H1204  H     0.61070   0.22661   0.82201   0.00000  Uiso   1.00
H1205  H     0.62254   0.29477   0.86838   0.00000  Uiso   1.00
H1206  H     0.33639   0.28077   0.82756   0.00000  Uiso   1.00
H1207  H     0.66345   0.27347   0.88579   0.00000  Uiso   1.00
H1208  H     0.36640   0.24586   0.74809   0.00000  Uiso   1.00
H1209  H     0.64011   0.08496   0.83597   0.00000  Uiso   1.00
H1210  H     0.33352   0.25359   0.71123   0.00000  Uiso   1.00
H1211  H     0.42991   0.24357   0.68360   0.00000  Uiso   1.00
H1212  H     0.39796   0.25100   0.64622   0.00000  Uiso   1.00
H1213  H     0.38317   0.32025   0.68579   0.00000  Uiso   1.00
H1214  H     0.44002   0.31747   0.66724   0.00000  Uiso   1.00
H1215  H     0.41328   0.31271   0.72530   0.00000  Uiso   1.00
H1216  H     0.35768   0.09380   0.79920   0.00000  Uiso   1.00
H1217  H     0.60489   0.06372   0.77337   0.00000  Uiso   1.00
H1218  H     0.65553   0.07382   0.73343   0.00000  Uiso   1.00
H1219  H     0.35166   0.01965   0.76444   0.00000  Uiso   1.00
H1220  H     0.63857   0.33185   0.74395   0.00000  Uiso   1.00
O1221  O     0.50000   0.16667   0.75000   0.00000  Uiso   1.00
O1222  O     0.48784   0.12637   0.65459   0.00000  Uiso   1.00
O1223  O     0.46274   0.20391   0.84968   0.00000  Uiso   1.00
O1224  O     0.54157   0.17759   0.64606   0.00000  Uiso   1.00
O1225  O     0.50785   0.15880   0.84968   0.00000  Uiso   1.00
O1226  O     0.64631   0.13554   0.80026   0.00000  Uiso   1.00
O1227  O     0.45907   0.32961   0.80597   0.00000  Uiso   1.00
O1228  O     0.57662   0.10085   0.91836   0.00000  Uiso   1.00
O1229  O     0.40628   0.25326   0.51157   0.00000  Uiso   1.00
O1230  O     0.56956   0.17472   0.88344   0.00000  Uiso   1.00
O1231  O     0.35546   0.19562   0.70196   0.00000  Uiso   1.00
O1232  O     0.51264   0.08019   0.78214   0.00000  Uiso   1.00
O1233  O     0.47965   0.26085   0.77014   0.00000  Uiso   1.00
O1234  O     0.40745   0.13291   0.73413   0.00000  Uiso   1.00
O1235  O     0.60026   0.19272   0.71361   0.00000  Uiso   1.00
O1236  O     0.40405   0.18878   0.78213   0.00000  Uiso   1.00
O1237  O     0.58824   0.15226   0.77014   0.00000  Uiso   1.00
O1238  O     0.47093   0.06944   0.73413   0.00000  Uiso   1.00
O1239  O     0.53678   0.25620   0.71361   0.00000  Uiso   1.00
Zn1240 Zn    0.52672   0.13994   0.78734   0.00000  Uiso   1.00
Zn1241 Zn    0.46713   0.12458   0.71876   0.00000  Uiso   1.00
Zn1242 Zn    0.54389   0.19775   0.70657   0.00000  Uiso   1.00
Zn1243 Zn    0.46226   0.20439   0.78734   0.00000  Uiso   1.00
C1244  C     0.71964   0.15947   0.76001   0.00000  Uiso   1.00
C1245  C     0.84123   0.16715   0.56020   0.00000  Uiso   1.00
C1246  C     0.87967   0.10815   0.55817   0.00000  Uiso   1.00
C1247  C     0.94738   0.17386   0.74037   0.00000  Uiso   1.00
C1248  C     0.81306   0.19811   0.91925   0.00000  Uiso   1.00
C1249  C     0.99324   0.17631   0.73711   0.00000  Uiso   1.00
C1250  C     0.67417   0.15558   0.76463   0.00000  Uiso   1.00
C1251  C     0.84419   0.32215   0.73629   0.00000  Uiso   1.00
C1252  C     0.81763   0.01217   0.76630   0.00000  Uiso   1.00
C1253  C     0.82324   0.05602   0.75999   0.00000  Uiso   1.00
C1254  C     0.84290   0.27787   0.74036   0.00000  Uiso   1.00
C1255  C     0.77180   0.22958   0.98898   0.00000  Uiso   1.00
C1256  C     0.85184   0.14802   0.62961   0.00000  Uiso   1.00
C1257  C     0.81709   0.18642   0.87072   0.00000  Uiso   1.00
C1258  C     0.88714   0.10340   0.51193   0.00000  Uiso   1.00
C1259  C     0.85811   0.14101   0.58183   0.00000  Uiso   1.00
C1260  C     0.78173   0.22379   0.94246   0.00000  Uiso   1.00
C1261  C     0.98976   0.09493   0.80224   0.00000  Uiso   1.00
C1262  C     0.97341   0.06397   0.76753   0.00000  Uiso   1.00
C1263  C     0.98331   0.01995   0.77002   0.00000  Uiso   1.00
C1264  C     0.75668   0.01809   0.82623   0.00000  Uiso   1.00
C1265  C     0.76494   0.04642   0.86678   0.00000  Uiso   1.00
C1266  C     0.79000   0.20683   0.51309   0.00000  Uiso   1.00
C1267  C     0.72829   0.07257   0.88708   0.00000  Uiso   1.00
C1268  C     0.88597   0.07368   0.89225   0.00000  Uiso   1.00
C1269  C     0.89714   0.02937   0.89054   0.00000  Uiso   1.00
C1270  C     0.87448   0.33258   0.86020   0.00000  Uiso   1.00
C1271  C     0.75533   0.29621   0.51022   0.00000  Uiso   1.00
C1272  C     0.77588   0.31130   0.54930   0.00000  Uiso   1.00
C1273  C     0.79063   0.02475   0.54988   0.00000  Uiso   1.00
C1274  C     0.92191   0.21579   0.89211   0.00000  Uiso   1.00
C1275  C     0.95763   0.22815   0.85153   0.00000  Uiso   1.00
C1276  C     0.97962   0.27208   0.85897   0.00000  Uiso   1.00
C1277  C     0.82421   0.18349   0.99108   0.00000  Uiso   1.00
C1278  C     0.69498   0.23895   0.71358   0.00000  Uiso   1.00
C1279  C     0.73507   0.25792   0.68094   0.00000  Uiso   1.00
C1280  C     0.74327   0.30505   0.69056   0.00000  Uiso   1.00
C1281  C     0.83752   0.18160   0.94367   0.00000  Uiso   1.00
C1282  C     0.84505   0.16071   0.51404   0.00000  Uiso   1.00
C1283  C     0.87162   0.13060   0.98948   0.00000  Uiso   1.00
C1284  C     0.88458   0.13015   0.94302   0.00000  Uiso   1.00
C1285  C     0.87439   0.16178   0.92231   0.00000  Uiso   1.00
F1286  F     0.89525   0.08211   0.57960   0.00000  Uiso   1.00
F1287  F     0.75901   0.24213   0.92054   0.00000  Uiso   1.00
F1288  F     0.77158   0.20623   0.55746   0.00000  Uiso   1.00
H1289  H     0.86677   0.00254   0.70775   0.00000  Uiso   1.00
H1290  H     0.96700   0.00848   0.80311   0.00000  Uiso   1.00
H1291  H     0.72909   0.32788   0.83845   0.00000  Uiso   1.00
H1292  H     0.74646   0.03559   0.80276   0.00000  Uiso   1.00
H1293  H     0.76844   0.02689   0.89245   0.00000  Uiso   1.00
H1294  H     0.79506   0.06768   0.85708   0.00000  Uiso   1.00
H1295  H     0.72574   0.09397   0.86270   0.00000  Uiso   1.00
H1296  H     0.73456   0.09161   0.91722   0.00000  Uiso   1.00
H1297  H     0.69752   0.05211   0.89689   0.00000  Uiso   1.00
H1298  H     0.89427   0.08417   0.85791   0.00000  Uiso   1.00
H1299  H     0.85047   0.07253   0.90565   0.00000  Uiso   1.00
H1300  H     0.90615   0.07932   0.99379   0.00000  Uiso   1.00
H1301  H     0.93228   0.02931   0.87825   0.00000  Uiso   1.00
H1302  H     0.88738   0.01858   0.92480   0.00000  Uiso   1.00
H1303  H     0.88337   0.00957   0.82580   0.00000  Uiso   1.00
H1304  H     0.88387   0.30088   0.85883   0.00000  Uiso   1.00
H1305  H     0.83923   0.33086   0.87340   0.00000  Uiso   1.00
H1306  H     0.72758   0.31365   0.51356   0.00000  Uiso   1.00
H1307  H     0.77823   0.30402   0.97789   0.00000  Uiso   1.00
H1308  H     0.75229   0.30444   0.58129   0.00000  Uiso   1.00
H1309  H     0.80400   0.29452   0.54642   0.00000  Uiso   1.00
H1310  H     0.81478   0.03218   0.51843   0.00000  Uiso   1.00
H1311  H     0.82694   0.19323   0.58000   0.00000  Uiso   1.00
H1312  H     0.80539   0.03467   0.57843   0.00000  Uiso   1.00
H1313  H     0.76300   0.04245   0.55368   0.00000  Uiso   1.00
H1314  H     0.93605   0.21783   0.92150   0.00000  Uiso   1.00
H1315  H     0.89785   0.23827   0.89845   0.00000  Uiso   1.00
H1316  H     0.98201   0.20617   0.84489   0.00000  Uiso   1.00
H1317  H     0.94403   0.22661   0.82201   0.00000  Uiso   1.00
H1318  H     0.95587   0.29477   0.86838   0.00000  Uiso   1.00
H1319  H     0.66972   0.28077   0.82756   0.00000  Uiso   1.00
H1320  H     0.99678   0.27347   0.88579   0.00000  Uiso   1.00
H1321  H     0.69974   0.24586   0.74809   0.00000  Uiso   1.00
H1322  H     0.97344   0.08496   0.83597   0.00000  Uiso   1.00
H1323  H     0.66685   0.25359   0.71123   0.00000  Uiso   1.00
H1324  H     0.76324   0.24357   0.68360   0.00000  Uiso   1.00
H1325  H     0.73130   0.25100   0.64622   0.00000  Uiso   1.00
H1326  H     0.71651   0.32025   0.68579   0.00000  Uiso   1.00
H1327  H     0.77336   0.31747   0.66724   0.00000  Uiso   1.00
H1328  H     0.74661   0.31271   0.72530   0.00000  Uiso   1.00
H1329  H     0.69102   0.09380   0.79920   0.00000  Uiso   1.00
H1330  H     0.93822   0.06372   0.77337   0.00000  Uiso   1.00
H1331  H     0.98887   0.07382   0.73343   0.00000  Uiso   1.00
H1332  H     0.68499   0.01965   0.76444   0.00000  Uiso   1.00
H1333  H     0.97191   0.33185   0.74395   0.00000  Uiso   1.00
O1334  O     0.83333   0.16667   0.75000   0.00000  Uiso   1.00
O1335  O     0.82118   0.12637   0.65459   0.00000  Uiso   1.00
O1336  O     0.79607   0.20391   0.84968   0.00000  Uiso   1.00
O1337  O     0.87491   0.17759   0.64606   0.00000  Uiso   1.00
O1338  O     0.84118   0.15880   0.84968   0.00000  Uiso   1.00
O1339  O     0.97965   0.13554   0.80026   0.00000  Uiso   1.00
O1340  O     0.79240   0.32961   0.80597   0.00000  Uiso   1.00
O1341  O     0.90995   0.10085   0.91836   0.00000  Uiso   1.00
O1342  O     0.73961   0.25326   0.51157   0.00000  Uiso   1.00
O1343  O     0.90289   0.17472   0.88344   0.00000  Uiso   1.00
O1344  O     0.68880   0.19562   0.70196   0.00000  Uiso   1.00
O1345  O     0.84597   0.08019   0.78214   0.00000  Uiso   1.00
O1346  O     0.81298   0.26085   0.77014   0.00000  Uiso   1.00
O1347  O     0.74078   0.13291   0.73413   0.00000  Uiso   1.00
O1348  O     0.93360   0.19272   0.71361   0.00000  Uiso   1.00
O1349  O     0.73738   0.18878   0.78213   0.00000  Uiso   1.00
O1350  O     0.92158   0.15226   0.77014   0.00000  Uiso   1.00
O1351  O     0.80426   0.06944   0.73413   0.00000  Uiso   1.00
O1352  O     0.87012   0.25620   0.71361   0.00000  Uiso   1.00
Zn1353 Zn    0.86005   0.13994   0.78734   0.00000  Uiso   1.00
Zn1354 Zn    0.80046   0.12458   0.71876   0.00000  Uiso   1.00
Zn1355 Zn    0.87723   0.19775   0.70657   0.00000  Uiso   1.00
Zn1356 Zn    0.79560   0.20439   0.78734   0.00000  Uiso   1.00
C1357  C     0.05297   0.49280   0.76001   0.00000  Uiso   1.00
C1358  C     0.17456   0.50048   0.56020   0.00000  Uiso   1.00
C1359  C     0.21301   0.44148   0.55817   0.00000  Uiso   1.00
C1360  C     0.28071   0.50719   0.74037   0.00000  Uiso   1.00
C1361  C     0.14639   0.53144   0.91925   0.00000  Uiso   1.00
C1362  C     0.32657   0.50964   0.73711   0.00000  Uiso   1.00
C1363  C     0.00751   0.48891   0.76463   0.00000  Uiso   1.00
C1364  C     0.17752   0.65548   0.73629   0.00000  Uiso   1.00
C1365  C     0.15096   0.34551   0.76630   0.00000  Uiso   1.00
C1366  C     0.15658   0.38935   0.75999   0.00000  Uiso   1.00
C1367  C     0.17624   0.61120   0.74036   0.00000  Uiso   1.00
C1368  C     0.10513   0.56291   0.98898   0.00000  Uiso   1.00
C1369  C     0.18518   0.48136   0.62961   0.00000  Uiso   1.00
C1370  C     0.15042   0.51975   0.87072   0.00000  Uiso   1.00
C1371  C     0.22048   0.43673   0.51193   0.00000  Uiso   1.00
C1372  C     0.19145   0.47434   0.58183   0.00000  Uiso   1.00
C1373  C     0.11506   0.55712   0.94246   0.00000  Uiso   1.00
C1374  C     0.32309   0.42826   0.80224   0.00000  Uiso   1.00
C1375  C     0.30674   0.39730   0.76753   0.00000  Uiso   1.00
C1376  C     0.31665   0.35329   0.77002   0.00000  Uiso   1.00
C1377  C     0.09002   0.35142   0.82623   0.00000  Uiso   1.00
C1378  C     0.09828   0.37975   0.86678   0.00000  Uiso   1.00
C1379  C     0.12333   0.54016   0.51309   0.00000  Uiso   1.00
C1380  C     0.06163   0.40591   0.88708   0.00000  Uiso   1.00
C1381  C     0.21930   0.40701   0.89225   0.00000  Uiso   1.00
C1382  C     0.23047   0.36271   0.89054   0.00000  Uiso   1.00
C1383  C     0.20781   0.66592   0.86020   0.00000  Uiso   1.00
C1384  C     0.08866   0.62955   0.51022   0.00000  Uiso   1.00
C1385  C     0.10921   0.64463   0.54930   0.00000  Uiso   1.00
C1386  C     0.12397   0.35808   0.54988   0.00000  Uiso   1.00
C1387  C     0.25525   0.54913   0.89211   0.00000  Uiso   1.00
C1388  C     0.29096   0.56148   0.85153   0.00000  Uiso   1.00
C1389  C     0.31296   0.60541   0.85897   0.00000  Uiso   1.00
C1390  C     0.15755   0.51682   0.99108   0.00000  Uiso   1.00
C1391  C     0.02831   0.57228   0.71358   0.00000  Uiso   1.00
C1392  C     0.06840   0.59125   0.68094   0.00000  Uiso   1.00
C1393  C     0.07660   0.63838   0.69056   0.00000  Uiso   1.00
C1394  C     0.17085   0.51493   0.94367   0.00000  Uiso   1.00
C1395  C     0.17838   0.49405   0.51404   0.00000  Uiso   1.00
C1396  C     0.20495   0.46393   0.98948   0.00000  Uiso   1.00
C1397  C     0.21791   0.46348   0.94302   0.00000  Uiso   1.00
C1398  C     0.20772   0.49512   0.92231   0.00000  Uiso   1.00
F1399  F     0.22859   0.41545   0.57960   0.00000  Uiso   1.00
F1400  F     0.09234   0.57547   0.92054   0.00000  Uiso   1.00
F1401  F     0.10492   0.53956   0.55746   0.00000  Uiso   1.00
H1402  H     0.20010   0.33587   0.70775   0.00000  Uiso   1.00
H1403  H     0.30033   0.34181   0.80311   0.00000  Uiso   1.00
H1404  H     0.06243   0.66121   0.83845   0.00000  Uiso   1.00
H1405  H     0.07979   0.36892   0.80276   0.00000  Uiso   1.00
H1406  H     0.10177   0.36022   0.89245   0.00000  Uiso   1.00
H1407  H     0.12839   0.40102   0.85708   0.00000  Uiso   1.00
H1408  H     0.05908   0.42730   0.86270   0.00000  Uiso   1.00
H1409  H     0.06789   0.42495   0.91722   0.00000  Uiso   1.00
H1410  H     0.03085   0.38545   0.89689   0.00000  Uiso   1.00
H1411  H     0.22760   0.41750   0.85791   0.00000  Uiso   1.00
H1412  H     0.18380   0.40587   0.90565   0.00000  Uiso   1.00
H1413  H     0.23949   0.41266   0.99379   0.00000  Uiso   1.00
H1414  H     0.26561   0.36264   0.87825   0.00000  Uiso   1.00
H1415  H     0.22071   0.35191   0.92480   0.00000  Uiso   1.00
H1416  H     0.21670   0.34290   0.82580   0.00000  Uiso   1.00
H1417  H     0.21721   0.63421   0.85883   0.00000  Uiso   1.00
H1418  H     0.17256   0.66420   0.87340   0.00000  Uiso   1.00
H1419  H     0.06092   0.64698   0.51356   0.00000  Uiso   1.00
H1420  H     0.11156   0.63735   0.97789   0.00000  Uiso   1.00
H1421  H     0.08562   0.63777   0.58129   0.00000  Uiso   1.00
H1422  H     0.13733   0.62786   0.54642   0.00000  Uiso   1.00
H1423  H     0.14812   0.36552   0.51843   0.00000  Uiso   1.00
H1424  H     0.16027   0.52656   0.58000   0.00000  Uiso   1.00
H1425  H     0.13872   0.36800   0.57843   0.00000  Uiso   1.00
H1426  H     0.09633   0.37578   0.55368   0.00000  Uiso   1.00
H1427  H     0.26939   0.55116   0.92150   0.00000  Uiso   1.00
H1428  H     0.23118   0.57160   0.89845   0.00000  Uiso   1.00
H1429  H     0.31534   0.53950   0.84489   0.00000  Uiso   1.00
H1430  H     0.27736   0.55994   0.82201   0.00000  Uiso   1.00
H1431  H     0.28921   0.62810   0.86838   0.00000  Uiso   1.00
H1432  H     0.00305   0.61410   0.82756   0.00000  Uiso   1.00
H1433  H     0.33011   0.60680   0.88579   0.00000  Uiso   1.00
H1434  H     0.03307   0.57919   0.74809   0.00000  Uiso   1.00
H1435  H     0.30678   0.41830   0.83597   0.00000  Uiso   1.00
H1436  H     0.00019   0.58692   0.71123   0.00000  Uiso   1.00
H1437  H     0.09657   0.57691   0.68360   0.00000  Uiso   1.00
H1438  H     0.06463   0.58433   0.64622   0.00000  Uiso   1.00
H1439  H     0.04984   0.65359   0.68579   0.00000  Uiso   1.00
H1440  H     0.10669   0.65080   0.66724   0.00000  Uiso   1.00
H1441  H     0.07995   0.64604   0.72530   0.00000  Uiso   1.00
H1442  H     0.02435   0.42713   0.79920   0.00000  Uiso   1.00
H1443  H     0.27156   0.39705   0.77337   0.00000  Uiso   1.00
H1444  H     0.32220   0.40716   0.73343   0.00000  Uiso   1.00
H1445  H     0.01833   0.35298   0.76444   0.00000  Uiso   1.00
H1446  H     0.30524   0.66518   0.74395   0.00000  Uiso   1.00
O1447  O     0.16667   0.50000   0.75000   0.00000  Uiso   1.00
O1448  O     0.15451   0.45970   0.65459   0.00000  Uiso   1.00
O1449  O     0.12940   0.53724   0.84968   0.00000  Uiso   1.00
O1450  O     0.20824   0.51092   0.64606   0.00000  Uiso   1.00
O1451  O     0.17451   0.49213   0.84968   0.00000  Uiso   1.00
O1452  O     0.31298   0.46887   0.80026   0.00000  Uiso   1.00
O1453  O     0.12574   0.66294   0.80597   0.00000  Uiso   1.00
O1454  O     0.24329   0.43419   0.91836   0.00000  Uiso   1.00
O1455  O     0.07295   0.58659   0.51157   0.00000  Uiso   1.00
O1456  O     0.23622   0.50806   0.88344   0.00000  Uiso   1.00
O1457  O     0.02213   0.52895   0.70196   0.00000  Uiso   1.00
O1458  O     0.17930   0.41352   0.78214   0.00000  Uiso   1.00
O1459  O     0.14632   0.59418   0.77014   0.00000  Uiso   1.00
O1460  O     0.07412   0.46625   0.73413   0.00000  Uiso   1.00
O1461  O     0.26693   0.52605   0.71361   0.00000  Uiso   1.00
O1462  O     0.07071   0.52211   0.78213   0.00000  Uiso   1.00
O1463  O     0.25491   0.48559   0.77014   0.00000  Uiso   1.00
O1464  O     0.13760   0.40277   0.73413   0.00000  Uiso   1.00
O1465  O     0.20345   0.58953   0.71361   0.00000  Uiso   1.00
Zn1466 Zn    0.19338   0.47327   0.78734   0.00000  Uiso   1.00
Zn1467 Zn    0.13379   0.45791   0.71876   0.00000  Uiso   1.00
Zn1468 Zn    0.21056   0.53109   0.70657   0.00000  Uiso   1.00
Zn1469 Zn    0.12893   0.53773   0.78734   0.00000  Uiso   1.00
C1470  C     0.38631   0.49280   0.76001   0.00000  Uiso   1.00
C1471  C     0.50790   0.50048   0.56020   0.00000  Uiso   1.00
C1472  C     0.54634   0.44148   0.55817   0.00000  Uiso   1.00
C1473  C     0.61404   0.50719   0.74037   0.00000  Uiso   1.00
C1474  C     0.47973   0.53144   0.91925   0.00000  Uiso   1.00
C1475  C     0.65991   0.50964   0.73711   0.00000  Uiso   1.00
C1476  C     0.34084   0.48891   0.76463   0.00000  Uiso   1.00
C1477  C     0.51086   0.65548   0.73629   0.00000  Uiso   1.00
C1478  C     0.48430   0.34551   0.76630   0.00000  Uiso   1.00
C1479  C     0.48991   0.38935   0.75999   0.00000  Uiso   1.00
C1480  C     0.50957   0.61120   0.74036   0.00000  Uiso   1.00
C1481  C     0.43846   0.56291   0.98898   0.00000  Uiso   1.00
C1482  C     0.51851   0.48136   0.62961   0.00000  Uiso   1.00
C1483  C     0.48376   0.51975   0.87072   0.00000  Uiso   1.00
C1484  C     0.55381   0.43673   0.51193   0.00000  Uiso   1.00
C1485  C     0.52478   0.47434   0.58183   0.00000  Uiso   1.00
C1486  C     0.44839   0.55712   0.94246   0.00000  Uiso   1.00
C1487  C     0.65643   0.42826   0.80224   0.00000  Uiso   1.00
C1488  C     0.64007   0.39730   0.76753   0.00000  Uiso   1.00
C1489  C     0.64998   0.35329   0.77002   0.00000  Uiso   1.00
C1490  C     0.42335   0.35142   0.82623   0.00000  Uiso   1.00
C1491  C     0.43161   0.37975   0.86678   0.00000  Uiso   1.00
C1492  C     0.45667   0.54016   0.51309   0.00000  Uiso   1.00
C1493  C     0.39496   0.40591   0.88708   0.00000  Uiso   1.00
C1494  C     0.55264   0.40701   0.89225   0.00000  Uiso   1.00
C1495  C     0.56381   0.36271   0.89054   0.00000  Uiso   1.00
C1496  C     0.54114   0.66592   0.86020   0.00000  Uiso   1.00
C1497  C     0.42200   0.62955   0.51022   0.00000  Uiso   1.00
C1498  C     0.44254   0.64463   0.54930   0.00000  Uiso   1.00
C1499  C     0.45730   0.35808   0.54988   0.00000  Uiso   1.00
C1500  C     0.58858   0.54913   0.89211   0.00000  Uiso   1.00
C1501  C     0.62430   0.56148   0.85153   0.00000  Uiso   1.00
C1502  C     0.64629   0.60541   0.85897   0.00000  Uiso   1.00
C1503  C     0.49088   0.51682   0.99108   0.00000  Uiso   1.00
C1504  C     0.36165   0.57228   0.71358   0.00000  Uiso   1.00
C1505  C     0.40174   0.59125   0.68094   0.00000  Uiso   1.00
C1506  C     0.40994   0.63838   0.69056   0.00000  Uiso   1.00
C1507  C     0.50419   0.51493   0.94367   0.00000  Uiso   1.00
C1508  C     0.51171   0.49405   0.51404   0.00000  Uiso   1.00
C1509  C     0.53829   0.46393   0.98948   0.00000  Uiso   1.00
C1510  C     0.55124   0.46348   0.94302   0.00000  Uiso   1.00
C1511  C     0.54106   0.49512   0.92231   0.00000  Uiso   1.00
F1512  F     0.56192   0.41545   0.57960   0.00000  Uiso   1.00
F1513  F     0.42567   0.57547   0.92054   0.00000  Uiso   1.00
F1514  F     0.43825   0.53956   0.55746   0.00000  Uiso   1.00
H1515  H     0.53343   0.33587   0.70775   0.00000  Uiso   1.00
H1516  H     0.63366   0.34181   0.80311   0.00000  Uiso   1.00
H1517  H     0.39576   0.66121   0.83845   0.00000  Uiso   1.00
H1518  H     0.41312   0.36892   0.80276   0.00000  Uiso   1.00
H1519  H     0.43511   0.36022   0.89245   0.00000  Uiso   1.00
H1520  H     0.46173   0.40102   0.85708   0.00000  Uiso   1.00
H1521  H     0.39241   0.42730   0.86270   0.00000  Uiso   1.00
H1522  H     0.40122   0.42495   0.91722   0.00000  Uiso   1.00
H1523  H     0.36418   0.38545   0.89689   0.00000  Uiso   1.00
H1524  H     0.56094   0.41750   0.85791   0.00000  Uiso   1.00
H1525  H     0.51714   0.40587   0.90565   0.00000  Uiso   1.00
H1526  H     0.57282   0.41266   0.99379   0.00000  Uiso   1.00
H1527  H     0.59894   0.36264   0.87825   0.00000  Uiso   1.00
H1528  H     0.55404   0.35191   0.92480   0.00000  Uiso   1.00
H1529  H     0.55003   0.34290   0.82580   0.00000  Uiso   1.00
H1530  H     0.55054   0.63421   0.85883   0.00000  Uiso   1.00
H1531  H     0.50590   0.66420   0.87340   0.00000  Uiso   1.00
H1532  H     0.39425   0.64698   0.51356   0.00000  Uiso   1.00
H1533  H     0.44490   0.63735   0.97789   0.00000  Uiso   1.00
H1534  H     0.41895   0.63777   0.58129   0.00000  Uiso   1.00
H1535  H     0.47067   0.62786   0.54642   0.00000  Uiso   1.00
H1536  H     0.48145   0.36552   0.51843   0.00000  Uiso   1.00
H1537  H     0.49361   0.52656   0.58000   0.00000  Uiso   1.00
H1538  H     0.47206   0.36800   0.57843   0.00000  Uiso   1.00
H1539  H     0.42966   0.37578   0.55368   0.00000  Uiso   1.00
H1540  H     0.60272   0.55116   0.92150   0.00000  Uiso   1.00
H1541  H     0.56452   0.57160   0.89845   0.00000  Uiso   1.00
H1542  H     0.64867   0.53950   0.84489   0.00000  Uiso   1.00
H1543  H     0.61070   0.55994   0.82201   0.00000  Uiso   1.00
H1544  H     0.62254   0.62810   0.86838   0.00000  Uiso   1.00
H1545  H     0.33639   0.61410   0.82756   0.00000  Uiso   1.00
H1546  H     0.66345   0.60680   0.88579   0.00000  Uiso   1.00
H1547  H     0.36640   0.57919   0.74809   0.00000  Uiso   1.00
H1548  H     0.64011   0.41830   0.83597   0.00000  Uiso   1.00
H1549  H     0.33352   0.58692   0.71123   0.00000  Uiso   1.00
H1550  H     0.42991   0.57691   0.68360   0.00000  Uiso   1.00
H1551  H     0.39796   0.58433   0.64622   0.00000  Uiso   1.00
H1552  H     0.38317   0.65359   0.68579   0.00000  Uiso   1.00
H1553  H     0.44002   0.65080   0.66724   0.00000  Uiso   1.00
H1554  H     0.41328   0.64604   0.72530   0.00000  Uiso   1.00
H1555  H     0.35768   0.42713   0.79920   0.00000  Uiso   1.00
H1556  H     0.60489   0.39705   0.77337   0.00000  Uiso   1.00
H1557  H     0.65553   0.40716   0.73343   0.00000  Uiso   1.00
H1558  H     0.35166   0.35298   0.76444   0.00000  Uiso   1.00
H1559  H     0.63857   0.66518   0.74395   0.00000  Uiso   1.00
O1560  O     0.50000   0.50000   0.75000   0.00000  Uiso   1.00
O1561  O     0.48784   0.45970   0.65459   0.00000  Uiso   1.00
O1562  O     0.46274   0.53724   0.84968   0.00000  Uiso   1.00
O1563  O     0.54157   0.51092   0.64606   0.00000  Uiso   1.00
O1564  O     0.50785   0.49213   0.84968   0.00000  Uiso   1.00
O1565  O     0.64631   0.46887   0.80026   0.00000  Uiso   1.00
O1566  O     0.45907   0.66294   0.80597   0.00000  Uiso   1.00
O1567  O     0.57662   0.43419   0.91836   0.00000  Uiso   1.00
O1568  O     0.40628   0.58659   0.51157   0.00000  Uiso   1.00
O1569  O     0.56956   0.50806   0.88344   0.00000  Uiso   1.00
O1570  O     0.35546   0.52895   0.70196   0.00000  Uiso   1.00
O1571  O     0.51264   0.41352   0.78214   0.00000  Uiso   1.00
O1572  O     0.47965   0.59418   0.77014   0.00000  Uiso   1.00
O1573  O     0.40745   0.46625   0.73413   0.00000  Uiso   1.00
O1574  O     0.60026   0.52605   0.71361   0.00000  Uiso   1.00
O1575  O     0.40405   0.52211   0.78213   0.00000  Uiso   1.00
O1576  O     0.58824   0.48559   0.77014   0.00000  Uiso   1.00
O1577  O     0.47093   0.40277   0.73413   0.00000  Uiso   1.00
O1578  O     0.53678   0.58953   0.71361   0.00000  Uiso   1.00
Zn1579 Zn    0.52672   0.47327   0.78734   0.00000  Uiso   1.00
Zn1580 Zn    0.46713   0.45791   0.71876   0.00000  Uiso   1.00
Zn1581 Zn    0.54389   0.53109   0.70657   0.00000  Uiso   1.00
Zn1582 Zn    0.46226   0.53773   0.78734   0.00000  Uiso   1.00
C1583  C     0.71964   0.49280   0.76001   0.00000  Uiso   1.00
C1584  C     0.84123   0.50048   0.56020   0.00000  Uiso   1.00
C1585  C     0.87967   0.44148   0.55817   0.00000  Uiso   1.00
C1586  C     0.94738   0.50719   0.74037   0.00000  Uiso   1.00
C1587  C     0.81306   0.53144   0.91925   0.00000  Uiso   1.00
C1588  C     0.99324   0.50964   0.73711   0.00000  Uiso   1.00
C1589  C     0.67417   0.48891   0.76463   0.00000  Uiso   1.00
C1590  C     0.84419   0.65548   0.73629   0.00000  Uiso   1.00
C1591  C     0.81763   0.34551   0.76630   0.00000  Uiso   1.00
C1592  C     0.82324   0.38935   0.75999   0.00000  Uiso   1.00
C1593  C     0.84290   0.61120   0.74036   0.00000  Uiso   1.00
C1594  C     0.77180   0.56291   0.98898   0.00000  Uiso   1.00
C1595  C     0.85184   0.48136   0.62961   0.00000  Uiso   1.00
C1596  C     0.81709   0.51975   0.87072   0.00000  Uiso   1.00
C1597  C     0.88714   0.43673   0.51193   0.00000  Uiso   1.00
C1598  C     0.85811   0.47434   0.58183   0.00000  Uiso   1.00
C1599  C     0.78173   0.55712   0.94246   0.00000  Uiso   1.00
C1600  C     0.98976   0.42826   0.80224   0.00000  Uiso   1.00
C1601  C     0.97341   0.39730   0.76753   0.00000  Uiso   1.00
C1602  C     0.98331   0.35329   0.77002   0.00000  Uiso   1.00
C1603  C     0.75668   0.35142   0.82623   0.00000  Uiso   1.00
C1604  C     0.76494   0.37975   0.86678   0.00000  Uiso   1.00
C1605  C     0.79000   0.54016   0.51309   0.00000  Uiso   1.00
C1606  C     0.72829   0.40591   0.88708   0.00000  Uiso   1.00
C1607  C     0.88597   0.40701   0.89225   0.00000  Uiso   1.00
C1608  C     0.89714   0.36271   0.89054   0.00000  Uiso   1.00
C1609  C     0.87448   0.66592   0.86020   0.00000  Uiso   1.00
C1610  C     0.75533   0.62955   0.51022   0.00000  Uiso   1.00
C1611  C     0.77588   0.64463   0.54930   0.00000  Uiso   1.00
C1612  C     0.79063   0.35808   0.54988   0.00000  Uiso   1.00
C1613  C     0.92191   0.54913   0.89211   0.00000  Uiso   1.00
C1614  C     0.95763   0.56148   0.85153   0.00000  Uiso   1.00
C1615  C     0.97962   0.60541   0.85897   0.00000  Uiso   1.00
C1616  C     0.82421   0.51682   0.99108   0.00000  Uiso   1.00
C1617  C     0.69498   0.57228   0.71358   0.00000  Uiso   1.00
C1618  C     0.73507   0.59125   0.68094   0.00000  Uiso   1.00
C1619  C     0.74327   0.63838   0.69056   0.00000  Uiso   1.00
C1620  C     0.83752   0.51493   0.94367   0.00000  Uiso   1.00
C1621  C     0.84505   0.49405   0.51404   0.00000  Uiso   1.00
C1622  C     0.87162   0.46393   0.98948   0.00000  Uiso   1.00
C1623  C     0.88458   0.46348   0.94302   0.00000  Uiso   1.00
C1624  C     0.87439   0.49512   0.92231   0.00000  Uiso   1.00
F1625  F     0.89525   0.41545   0.57960   0.00000  Uiso   1.00
F1626  F     0.75901   0.57547   0.92054   0.00000  Uiso   1.00
F1627  F     0.77158   0.53956   0.55746   0.00000  Uiso   1.00
H1628  H     0.86677   0.33587   0.70775   0.00000  Uiso   1.00
H1629  H     0.96700   0.34181   0.80311   0.00000  Uiso   1.00
H1630  H     0.72909   0.66121   0.83845   0.00000  Uiso   1.00
H1631  H     0.74646   0.36892   0.80276   0.00000  Uiso   1.00
H1632  H     0.76844   0.36022   0.89245   0.00000  Uiso   1.00
H1633  H     0.79506   0.40102   0.85708   0.00000  Uiso   1.00
H1634  H     0.72574   0.42730   0.86270   0.00000  Uiso   1.00
H1635  H     0.73456   0.42495   0.91722   0.00000  Uiso   1.00
H1636  H     0.69752   0.38545   0.89689   0.00000  Uiso   1.00
H1637  H     0.89427   0.41750   0.85791   0.00000  Uiso   1.00
H1638  H     0.85047   0.40587   0.90565   0.00000  Uiso   1.00
H1639  H     0.90615   0.41266   0.99379   0.00000  Uiso   1.00
H1640  H     0.93228   0.36264   0.87825   0.00000  Uiso   1.00
H1641  H     0.88738   0.35191   0.92480   0.00000  Uiso   1.00
H1642  H     0.88337   0.34290   0.82580   0.00000  Uiso   1.00
H1643  H     0.88387   0.63421   0.85883   0.00000  Uiso   1.00
H1644  H     0.83923   0.66420   0.87340   0.00000  Uiso   1.00
H1645  H     0.72758   0.64698   0.51356   0.00000  Uiso   1.00
H1646  H     0.77823   0.63735   0.97789   0.00000  Uiso   1.00
H1647  H     0.75229   0.63777   0.58129   0.00000  Uiso   1.00
H1648  H     0.80400   0.62786   0.54642   0.00000  Uiso   1.00
H1649  H     0.81478   0.36552   0.51843   0.00000  Uiso   1.00
H1650  H     0.82694   0.52656   0.58000   0.00000  Uiso   1.00
H1651  H     0.80539   0.36800   0.57843   0.00000  Uiso   1.00
H1652  H     0.76300   0.37578   0.55368   0.00000  Uiso   1.00
H1653  H     0.93605   0.55116   0.92150   0.00000  Uiso   1.00
H1654  H     0.89785   0.57160   0.89845   0.00000  Uiso   1.00
H1655  H     0.98201   0.53950   0.84489   0.00000  Uiso   1.00
H1656  H     0.94403   0.55994   0.82201   0.00000  Uiso   1.00
H1657  H     0.95587   0.62810   0.86838   0.00000  Uiso   1.00
H1658  H     0.66972   0.61410   0.82756   0.00000  Uiso   1.00
H1659  H     0.99678   0.60680   0.88579   0.00000  Uiso   1.00
H1660  H     0.69974   0.57919   0.74809   0.00000  Uiso   1.00
H1661  H     0.97344   0.41830   0.83597   0.00000  Uiso   1.00
H1662  H     0.66685   0.58692   0.71123   0.00000  Uiso   1.00
H1663  H     0.76324   0.57691   0.68360   0.00000  Uiso   1.00
H1664  H     0.73130   0.58433   0.64622   0.00000  Uiso   1.00
H1665  H     0.71651   0.65359   0.68579   0.00000  Uiso   1.00
H1666  H     0.77336   0.65080   0.66724   0.00000  Uiso   1.00
H1667  H     0.74661   0.64604   0.72530   0.00000  Uiso   1.00
H1668  H     0.69102   0.42713   0.79920   0.00000  Uiso   1.00
H1669  H     0.93822   0.39705   0.77337   0.00000  Uiso   1.00
H1670  H     0.98887   0.40716   0.73343   0.00000  Uiso   1.00
H1671  H     0.68499   0.35298   0.76444   0.00000  Uiso   1.00
H1672  H     0.97191   0.66518   0.74395   0.00000  Uiso   1.00
O1673  O     0.83333   0.50000   0.75000   0.00000  Uiso   1.00
O1674  O     0.82118   0.45970   0.65459   0.00000  Uiso   1.00
O1675  O     0.79607   0.53724   0.84968   0.00000  Uiso   1.00
O1676  O     0.87491   0.51092   0.64606   0.00000  Uiso   1.00
O1677  O     0.84118   0.49213   0.84968   0.00000  Uiso   1.00
O1678  O     0.97965   0.46887   0.80026   0.00000  Uiso   1.00
O1679  O     0.79240   0.66294   0.80597   0.00000  Uiso   1.00
O1680  O     0.90995   0.43419   0.91836   0.00000  Uiso   1.00
O1681  O     0.73961   0.58659   0.51157   0.00000  Uiso   1.00
O1682  O     0.90289   0.50806   0.88344   0.00000  Uiso   1.00
O1683  O     0.68880   0.52895   0.70196   0.00000  Uiso   1.00
O1684  O     0.84597   0.41352   0.78214   0.00000  Uiso   1.00
O1685  O     0.81298   0.59418   0.77014   0.00000  Uiso   1.00
O1686  O     0.74078   0.46625   0.73413   0.00000  Uiso   1.00
O1687  O     0.93360   0.52605   0.71361   0.00000  Uiso   1.00
O1688  O     0.73738   0.52211   0.78213   0.00000  Uiso   1.00
O1689  O     0.92158   0.48559   0.77014   0.00000  Uiso   1.00
O1690  O     0.80426   0.40277   0.73413   0.00000  Uiso   1.00
O1691  O     0.87012   0.58953   0.71361   0.00000  Uiso   1.00
Zn1692 Zn    0.86005   0.47327   0.78734   0.00000  Uiso   1.00
Zn1693 Zn    0.80046   0.45791   0.71876   0.00000  Uiso   1.00
Zn1694 Zn    0.87723   0.53109   0.70657   0.00000  Uiso   1.00
Zn1695 Zn    0.79560   0.53773   0.78734   0.00000  Uiso   1.00
C1696  C     0.05297   0.82614   0.76001   0.00000  Uiso   1.00
C1697  C     0.17456   0.83382   0.56020   0.00000  Uiso   1.00
C1698  C     0.21301   0.77481   0.55817   0.00000  Uiso   1.00
C1699  C     0.28071   0.84052   0.74037   0.00000  Uiso   1.00
C1700  C     0.14639   0.86478   0.91925   0.00000  Uiso   1.00
C1701  C     0.32657   0.84298   0.73711   0.00000  Uiso   1.00
C1702  C     0.00751   0.82224   0.76463   0.00000  Uiso   1.00
C1703  C     0.17752   0.98881   0.73629   0.00000  Uiso   1.00
C1704  C     0.15096   0.67884   0.76630   0.00000  Uiso   1.00
C1705  C     0.15658   0.72269   0.75999   0.00000  Uiso   1.00
C1706  C     0.17624   0.94453   0.74036   0.00000  Uiso   1.00
C1707  C     0.10513   0.89624   0.98898   0.00000  Uiso   1.00
C1708  C     0.18518   0.81469   0.62961   0.00000  Uiso   1.00
C1709  C     0.15042   0.85308   0.87072   0.00000  Uiso   1.00
C1710  C     0.22048   0.77007   0.51193   0.00000  Uiso   1.00
C1711  C     0.19145   0.80768   0.58183   0.00000  Uiso   1.00
C1712  C     0.11506   0.89046   0.94246   0.00000  Uiso   1.00
C1713  C     0.32309   0.76159   0.80224   0.00000  Uiso   1.00
C1714  C     0.30674   0.73064   0.76753   0.00000  Uiso   1.00
C1715  C     0.31665   0.68662   0.77002   0.00000  Uiso   1.00
C1716  C     0.09002   0.68476   0.82623   0.00000  Uiso   1.00
C1717  C     0.09828   0.71308   0.86678   0.00000  Uiso   1.00
C1718  C     0.12333   0.87349   0.51309   0.00000  Uiso   1.00
C1719  C     0.06163   0.73924   0.88708   0.00000  Uiso   1.00
C1720  C     0.21930   0.74035   0.89225   0.00000  Uiso   1.00
C1721  C     0.23047   0.69604   0.89054   0.00000  Uiso   1.00
C1722  C     0.20781   0.99925   0.86020   0.00000  Uiso   1.00
C1723  C     0.08866   0.96288   0.51022   0.00000  Uiso   1.00
C1724  C     0.10921   0.97796   0.54930   0.00000  Uiso   1.00
C1725  C     0.12397   0.69142   0.54988   0.00000  Uiso   1.00
C1726  C     0.25525   0.88246   0.89211   0.00000  Uiso   1.00
C1727  C     0.29096   0.89482   0.85153   0.00000  Uiso   1.00
C1728  C     0.31296   0.93875   0.85897   0.00000  Uiso   1.00
C1729  C     0.15755   0.85016   0.99108   0.00000  Uiso   1.00
C1730  C     0.02831   0.90562   0.71358   0.00000  Uiso   1.00
C1731  C     0.06840   0.92458   0.68094   0.00000  Uiso   1.00
C1732  C     0.07660   0.97172   0.69056   0.00000  Uiso   1.00
C1733  C     0.17085   0.84826   0.94367   0.00000  Uiso   1.00
C1734  C     0.17838   0.82738   0.51404   0.00000  Uiso   1.00
C1735  C     0.20495   0.79726   0.98948   0.00000  Uiso   1.00
C1736  C     0.21791   0.79681   0.94302   0.00000  Uiso   1.00
C1737  C     0.20772   0.82845   0.92231   0.00000  Uiso   1.00
F1738  F     0.22859   0.74878   0.57960   0.00000  Uiso   1.00
F1739  F     0.09234   0.90880   0.92054   0.00000  Uiso   1.00
F1740  F     0.10492   0.87289   0.55746   0.00000  Uiso   1.00
H1741  H     0.20010   0.66921   0.70775   0.00000  Uiso   1.00
H1742  H     0.30033   0.67515   0.80311   0.00000  Uiso   1.00
H1743  H     0.06243   0.99454   0.83845   0.00000  Uiso   1.00
H1744  H     0.07979   0.70225   0.80276   0.00000  Uiso   1.00
H1745  H     0.10177   0.69356   0.89245   0.00000  Uiso   1.00
H1746  H     0.12839   0.73435   0.85708   0.00000  Uiso   1.00
H1747  H     0.05908   0.76063   0.86270   0.00000  Uiso   1.00
H1748  H     0.06789   0.75828   0.91722   0.00000  Uiso   1.00
H1749  H     0.03085   0.71878   0.89689   0.00000  Uiso   1.00
H1750  H     0.22760   0.75084   0.85791   0.00000  Uiso   1.00
H1751  H     0.18380   0.73920   0.90565   0.00000  Uiso   1.00
H1752  H     0.23949   0.74599   0.99379   0.00000  Uiso   1.00
H1753  H     0.26561   0.69598   0.87825   0.00000  Uiso   1.00
H1754  H     0.22071   0.68525   0.92480   0.00000  Uiso   1.00
H1755  H     0.21670   0.67624   0.82580   0.00000  Uiso   1.00
H1756  H     0.21721   0.96755   0.85883   0.00000  Uiso   1.00
H1757  H     0.17256   0.99753   0.87340   0.00000  Uiso   1.00
H1758  H     0.06092   0.98031   0.51356   0.00000  Uiso   1.00
H1759  H     0.11156   0.97069   0.97789   0.00000  Uiso   1.00
H1760  H     0.08562   0.97110   0.58129   0.00000  Uiso   1.00
H1761  H     0.13733   0.96119   0.54642   0.00000  Uiso   1.00
H1762  H     0.14812   0.69885   0.51843   0.00000  Uiso   1.00
H1763  H     0.16027   0.85989   0.58000   0.00000  Uiso   1.00
H1764  H     0.13872   0.70133   0.57843   0.00000  Uiso   1.00
H1765  H     0.09633   0.70912   0.55368   0.00000  Uiso   1.00
H1766  H     0.26939   0.88449   0.92150   0.00000  Uiso   1.00
H1767  H     0.23118   0.90494   0.89845   0.00000  Uiso   1.00
H1768  H     0.31534   0.87283   0.84489   0.00000  Uiso   1.00
H1769  H     0.27736   0.89327   0.82201   0.00000  Uiso   1.00
H1770  H     0.28921   0.96143   0.86838   0.00000  Uiso   1.00
H1771  H     0.00305   0.94743   0.82756   0.00000  Uiso   1.00
H1772  H     0.33011   0.94013   0.88579   0.00000  Uiso   1.00
H1773  H     0.03307   0.91252   0.74809   0.00000  Uiso   1.00
H1774  H     0.30678   0.75163   0.83597   0.00000  Uiso   1.00
H1775  H     0.00019   0.92025   0.71123   0.00000  Uiso   1.00
H1776  H     0.09657   0.91024   0.68360   0.00000  Uiso   1.00
H1777  H     0.06463   0.91766   0.64622   0.00000  Uiso   1.00
H1778  H     0.04984   0.98692   0.68579   0.00000  Uiso   1.00
H1779  H     0.10669   0.98413   0.66724   0.00000  Uiso   1.00
H1780  H     0.07995   0.97938   0.72530   0.00000  Uiso   1.00
H1781  H     0.02435   0.76046   0.79920   0.00000  Uiso   1.00
H1782  H     0.27156   0.73038   0.77337   0.00000  Uiso   1.00
H1783  H     0.32220   0.74049   0.73343   0.00000  Uiso   1.00
H1784  H     0.01833   0.68632   0.76444   0.00000  Uiso   1.00
H1785  H     0.30524   0.99851   0.74395   0.00000  Uiso   1.00
O1786  O     0.16667   0.83333   0.75000   0.00000  Uiso   1.00
O1787  O     0.15451   0.79304   0.65459   0.00000  Uiso   1.00
O1788  O     0.12940   0.87058   0.84968   0.00000  Uiso   1.00
O1789  O     0.20824   0.84425   0.64606   0.00000  Uiso   1.00
O1790  O     0.17451   0.82546   0.84968   0.00000  Uiso   1.00
O1791  O     0.31298   0.80221   0.80026   0.00000  Uiso   1.00
O1792  O     0.12574   0.99628   0.80597   0.00000  Uiso   1.00
O1793  O     0.24329   0.76752   0.91836   0.00000  Uiso   1.00
O1794  O     0.07295   0.91993   0.51157   0.00000  Uiso   1.00
O1795  O     0.23622   0.84139   0.88344   0.00000  Uiso   1.00
O1796  O     0.02213   0.86229   0.70196   0.00000  Uiso   1.00
O1797  O     0.17930   0.74686   0.78214   0.00000  Uiso   1.00
O1798  O     0.14632   0.92751   0.77014   0.00000  Uiso   1.00
O1799  O     0.07412   0.79958   0.73413   0.00000  Uiso   1.00
O1800  O     0.26693   0.85939   0.71361   0.00000  Uiso   1.00
O1801  O     0.07071   0.85544   0.78213   0.00000  Uiso   1.00
O1802  O     0.25491   0.81892   0.77014   0.00000  Uiso   1.00
O1803  O     0.13760   0.73610   0.73413   0.00000  Uiso   1.00
O1804  O     0.20345   0.92286   0.71361   0.00000  Uiso   1.00
Zn1805 Zn    0.19338   0.80661   0.78734   0.00000  Uiso   1.00
Zn1806 Zn    0.13379   0.79124   0.71876   0.00000  Uiso   1.00
Zn1807 Zn    0.21056   0.86442   0.70657   0.00000  Uiso   1.00
Zn1808 Zn    0.12893   0.87106   0.78734   0.00000  Uiso   1.00
C1809  C     0.38631   0.82614   0.76001   0.00000  Uiso   1.00
C1810  C     0.50790   0.83382   0.56020   0.00000  Uiso   1.00
C1811  C     0.54634   0.77481   0.55817   0.00000  Uiso   1.00
C1812  C     0.61404   0.84052   0.74037   0.00000  Uiso   1.00
C1813  C     0.47973   0.86478   0.91925   0.00000  Uiso   1.00
C1814  C     0.65991   0.84298   0.73711   0.00000  Uiso   1.00
C1815  C     0.34084   0.82224   0.76463   0.00000  Uiso   1.00
C1816  C     0.51086   0.98881   0.73629   0.00000  Uiso   1.00
C1817  C     0.48430   0.67884   0.76630   0.00000  Uiso   1.00
C1818  C     0.48991   0.72269   0.75999   0.00000  Uiso   1.00
C1819  C     0.50957   0.94453   0.74036   0.00000  Uiso   1.00
C1820  C     0.43846   0.89624   0.98898   0.00000  Uiso   1.00
C1821  C     0.51851   0.81469   0.62961   0.00000  Uiso   1.00
C1822  C     0.48376   0.85308   0.87072   0.00000  Uiso   1.00
C1823  C     0.55381   0.77007   0.51193   0.00000  Uiso   1.00
C1824  C     0.52478   0.80768   0.58183   0.00000  Uiso   1.00
C1825  C     0.44839   0.89046   0.94246   0.00000  Uiso   1.00
C1826  C     0.65643   0.76159   0.80224   0.00000  Uiso   1.00
C1827  C     0.64007   0.73064   0.76753   0.00000  Uiso   1.00
C1828  C     0.64998   0.68662   0.77002   0.00000  Uiso   1.00
C1829  C     0.42335   0.68476   0.82623   0.00000  Uiso   1.00
C1830  C     0.43161   0.71308   0.86678   0.00000  Uiso   1.00
C1831  C     0.45667   0.87349   0.51309   0.00000  Uiso   1.00
C1832  C     0.39496   0.73924   0.88708   0.00000  Uiso   1.00
C1833  C     0.55264   0.74035   0.89225   0.00000  Uiso   1.00
C1834  C     0.56381   0.69604   0.89054   0.00000  Uiso   1.00
C1835  C     0.54114   0.99925   0.86020   0.00000  Uiso   1.00
C1836  C     0.42200   0.96288   0.51022   0.00000  Uiso   1.00
C1837  C     0.44254   0.97796   0.54930   0.00000  Uiso   1.00
C1838  C     0.45730   0.69142   0.54988   0.00000  Uiso   1.00
C1839  C     0.58858   0.88246   0.89211   0.00000  Uiso   1.00
C1840  C     0.62430   0.89482   0.85153   0.00000  Uiso   1.00
C1841  C     0.64629   0.93875   0.85897   0.00000  Uiso   1.00
C1842  C     0.49088   0.85016   0.99108   0.00000  Uiso   1.00
C1843  C     0.36165   0.90562   0.71358   0.00000  Uiso   1.00
C1844  C     0.40174   0.92458   0.68094   0.00000  Uiso   1.00
C1845  C     0.40994   0.97172   0.69056   0.00000  Uiso   1.00
C1846  C     0.50419   0.84826   0.94367   0.00000  Uiso   1.00
C1847  C     0.51171   0.82738   0.51404   0.00000  Uiso   1.00
C1848  C     0.53829   0.79726   0.98948   0.00000  Uiso   1.00
C1849  C     0.55124   0.79681   0.94302   0.00000  Uiso   1.00
C1850  C     0.54106   0.82845   0.92231   0.00000  Uiso   1.00
F1851  F     0.56192   0.74878   0.57960   0.00000  Uiso   1.00
F1852  F     0.42567   0.90880   0.92054   0.00000  Uiso   1.00
F1853  F     0.43825   0.87289   0.55746   0.00000  Uiso   1.00
H1854  H     0.53343   0.66921   0.70775   0.00000  Uiso   1.00
H1855  H     0.63366   0.67515   0.80311   0.00000  Uiso   1.00
H1856  H     0.39576   0.99454   0.83845   0.00000  Uiso   1.00
H1857  H     0.41312   0.70225   0.80276   0.00000  Uiso   1.00
H1858  H     0.43511   0.69356   0.89245   0.00000  Uiso   1.00
H1859  H     0.46173   0.73435   0.85708   0.00000  Uiso   1.00
H1860  H     0.39241   0.76063   0.86270   0.00000  Uiso   1.00
H1861  H     0.40122   0.75828   0.91722   0.00000  Uiso   1.00
H1862  H     0.36418   0.71878   0.89689   0.00000  Uiso   1.00
H1863  H     0.56094   0.75084   0.85791   0.00000  Uiso   1.00
H1864  H     0.51714   0.73920   0.90565   0.00000  Uiso   1.00
H1865  H     0.57282   0.74599   0.99379   0.00000  Uiso   1.00
H1866  H     0.59894   0.69598   0.87825   0.00000  Uiso   1.00
H1867  H     0.55404   0.68525   0.92480   0.00000  Uiso   1.00
H1868  H     0.55003   0.67624   0.82580   0.00000  Uiso   1.00
H1869  H     0.55054   0.96755   0.85883   0.00000  Uiso   1.00
H1870  H     0.50590   0.99753   0.87340   0.00000  Uiso   1.00
H1871  H     0.39425   0.98031   0.51356   0.00000  Uiso   1.00
H1872  H     0.44490   0.97069   0.97789   0.00000  Uiso   1.00
H1873  H     0.41895   0.97110   0.58129   0.00000  Uiso   1.00
H1874  H     0.47067   0.96119   0.54642   0.00000  Uiso   1.00
H1875  H     0.48145   0.69885   0.51843   0.00000  Uiso   1.00
H1876  H     0.49361   0.85989   0.58000   0.00000  Uiso   1.00
H1877  H     0.47206   0.70133   0.57843   0.00000  Uiso   1.00
H1878  H     0.42966   0.70912   0.55368   0.00000  Uiso   1.00
H1879  H     0.60272   0.88449   0.92150   0.00000  Uiso   1.00
H1880  H     0.56452   0.90494   0.89845   0.00000  Uiso   1.00
H1881  H     0.64867   0.87283   0.84489   0.00000  Uiso   1.00
H1882  H     0.61070   0.89327   0.82201   0.00000  Uiso   1.00
H1883  H     0.62254   0.96143   0.86838   0.00000  Uiso   1.00
H1884  H     0.33639   0.94743   0.82756   0.00000  Uiso   1.00
H1885  H     0.66345   0.94013   0.88579   0.00000  Uiso   1.00
H1886  H     0.36640   0.91252   0.74809   0.00000  Uiso   1.00
H1887  H     0.64011   0.75163   0.83597   0.00000  Uiso   1.00
H1888  H     0.33352   0.92025   0.71123   0.00000  Uiso   1.00
H1889  H     0.42991   0.91024   0.68360   0.00000  Uiso   1.00
H1890  H     0.39796   0.91766   0.64622   0.00000  Uiso   1.00
H1891  H     0.38317   0.98692   0.68579   0.00000  Uiso   1.00
H1892  H     0.44002   0.98413   0.66724   0.00000  Uiso   1.00
H1893  H     0.41328   0.97938   0.72530   0.00000  Uiso   1.00
H1894  H     0.35768   0.76046   0.79920   0.00000  Uiso   1.00
H1895  H     0.60489   0.73038   0.77337   0.00000  Uiso   1.00
H1896  H     0.65553   0.74049   0.73343   0.00000  Uiso   1.00
H1897  H     0.35166   0.68632   0.76444   0.00000  Uiso   1.00
H1898  H     0.63857   0.99851   0.74395   0.00000  Uiso   1.00
O1899  O     0.50000   0.83333   0.75000   0.00000  Uiso   1.00
O1900  O     0.48784   0.79304   0.65459   0.00000  Uiso   1.00
O1901  O     0.46274   0.87058   0.84968   0.00000  Uiso   1.00
O1902  O     0.54157   0.84425   0.64606   0.00000  Uiso   1.00
O1903  O     0.50785   0.82546   0.84968   0.00000  Uiso   1.00
O1904  O     0.64631   0.80221   0.80026   0.00000  Uiso   1.00
O1905  O     0.45907   0.99628   0.80597   0.00000  Uiso   1.00
O1906  O     0.57662   0.76752   0.91836   0.00000  Uiso   1.00
O1907  O     0.40628   0.91993   0.51157   0.00000  Uiso   1.00
O1908  O     0.56956   0.84139   0.88344   0.00000  Uiso   1.00
O1909  O     0.35546   0.86229   0.70196   0.00000  Uiso   1.00
O1910  O     0.51264   0.74686   0.78214   0.00000  Uiso   1.00
O1911  O     0.47965   0.92751   0.77014   0.00000  Uiso   1.00
O1912  O     0.40745   0.79958   0.73413   0.00000  Uiso   1.00
O1913  O     0.60026   0.85939   0.71361   0.00000  Uiso   1.00
O1914  O     0.40405   0.85544   0.78213   0.00000  Uiso   1.00
O1915  O     0.58824   0.81892   0.77014   0.00000  Uiso   1.00
O1916  O     0.47093   0.73610   0.73413   0.00000  Uiso   1.00
O1917  O     0.53678   0.92286   0.71361   0.00000  Uiso   1.00
Zn1918 Zn    0.52672   0.80661   0.78734   0.00000  Uiso   1.00
Zn1919 Zn    0.46713   0.79124   0.71876   0.00000  Uiso   1.00
Zn1920 Zn    0.54389   0.86442   0.70657   0.00000  Uiso   1.00
Zn1921 Zn    0.46226   0.87106   0.78734   0.00000  Uiso   1.00
C1922  C     0.71964   0.82614   0.76001   0.00000  Uiso   1.00
C1923  C     0.84123   0.83382   0.56020   0.00000  Uiso   1.00
C1924  C     0.87967   0.77481   0.55817   0.00000  Uiso   1.00
C1925  C     0.94738   0.84052   0.74037   0.00000  Uiso   1.00
C1926  C     0.81306   0.86478   0.91925   0.00000  Uiso   1.00
C1927  C     0.99324   0.84298   0.73711   0.00000  Uiso   1.00
C1928  C     0.67417   0.82224   0.76463   0.00000  Uiso   1.00
C1929  C     0.84419   0.98881   0.73629   0.00000  Uiso   1.00
C1930  C     0.81763   0.67884   0.76630   0.00000  Uiso   1.00
C1931  C     0.82324   0.72269   0.75999   0.00000  Uiso   1.00
C1932  C     0.84290   0.94453   0.74036   0.00000  Uiso   1.00
C1933  C     0.77180   0.89624   0.98898   0.00000  Uiso   1.00
C1934  C     0.85184   0.81469   0.62961   0.00000  Uiso   1.00
C1935  C     0.81709   0.85308   0.87072   0.00000  Uiso   1.00
C1936  C     0.88714   0.77007   0.51193   0.00000  Uiso   1.00
C1937  C     0.85811   0.80768   0.58183   0.00000  Uiso   1.00
C1938  C     0.78173   0.89046   0.94246   0.00000  Uiso   1.00
C1939  C     0.98976   0.76159   0.80224   0.00000  Uiso   1.00
C1940  C     0.97341   0.73064   0.76753   0.00000  Uiso   1.00
C1941  C     0.98331   0.68662   0.77002   0.00000  Uiso   1.00
C1942  C     0.75668   0.68476   0.82623   0.00000  Uiso   1.00
C1943  C     0.76494   0.71308   0.86678   0.00000  Uiso   1.00
C1944  C     0.79000   0.87349   0.51309   0.00000  Uiso   1.00
C1945  C     0.72829   0.73924   0.88708   0.00000  Uiso   1.00
C1946  C     0.88597   0.74035   0.89225   0.00000  Uiso   1.00
C1947  C     0.89714   0.69604   0.89054   0.00000  Uiso   1.00
C1948  C     0.87448   0.99925   0.86020   0.00000  Uiso   1.00
C1949  C     0.75533   0.96288   0.51022   0.00000  Uiso   1.00
C1950  C     0.77588   0.97796   0.54930   0.00000  Uiso   1.00
C1951  C     0.79063   0.69142   0.54988   0.00000  Uiso   1.00
C1952  C     0.92191   0.88246   0.89211   0.00000  Uiso   1.00
C1953  C     0.95763   0.89482   0.85153   0.00000  Uiso   1.00
C1954  C     0.97962   0.93875   0.85897   0.00000  Uiso   1.00
C1955  C     0.82421   0.85016   0.99108   0.00000  Uiso   1.00
C1956  C     0.69498   0.90562   0.71358   0.00000  Uiso   1.00
C1957  C     0.73507   0.92458   0.68094   0.00000  Uiso   1.00
C1958  C     0.74327   0.97172   0.69056   0.00000  Uiso   1.00
C1959  C     0.83752   0.84826   0.94367   0.00000  Uiso   1.00
C1960  C     0.84505   0.82738   0.51404   0.00000  Uiso   1.00
C1961  C     0.87162   0.79726   0.98948   0.00000  Uiso   1.00
C1962  C     0.88458   0.79681   0.94302   0.00000  Uiso   1.00
C1963  C     0.87439   0.82845   0.92231   0.00000  Uiso   1.00
F1964  F     0.89525   0.74878   0.57960   0.00000  Uiso   1.00
F1965  F     0.75901   0.90880   0.92054   0.00000  Uiso   1.00
F1966  F     0.77158   0.87289   0.55746   0.00000  Uiso   1.00
H1967  H     0.86677   0.66921   0.70775   0.00000  Uiso   1.00
H1968  H     0.96700   0.67515   0.80311   0.00000  Uiso   1.00
H1969  H     0.72909   0.99454   0.83845   0.00000  Uiso   1.00
H1970  H     0.74646   0.70225   0.80276   0.00000  Uiso   1.00
H1971  H     0.76844   0.69356   0.89245   0.00000  Uiso   1.00
H1972  H     0.79506   0.73435   0.85708   0.00000  Uiso   1.00
H1973  H     0.72574   0.76063   0.86270   0.00000  Uiso   1.00
H1974  H     0.73456   0.75828   0.91722   0.00000  Uiso   1.00
H1975  H     0.69752   0.71878   0.89689   0.00000  Uiso   1.00
H1976  H     0.89427   0.75084   0.85791   0.00000  Uiso   1.00
H1977  H     0.85047   0.73920   0.90565   0.00000  Uiso   1.00
H1978  H     0.90615   0.74599   0.99379   0.00000  Uiso   1.00
H1979  H     0.93228   0.69598   0.87825   0.00000  Uiso   1.00
H1980  H     0.88738   0.68525   0.92480   0.00000  Uiso   1.00
H1981  H     0.88337   0.67624   0.82580   0.00000  Uiso   1.00
H1982  H     0.88387   0.96755   0.85883   0.00000  Uiso   1.00
H1983  H     0.83923   0.99753   0.87340   0.00000  Uiso   1.00
H1984  H     0.72758   0.98031   0.51356   0.00000  Uiso   1.00
H1985  H     0.77823   0.97069   0.97789   0.00000  Uiso   1.00
H1986  H     0.75229   0.97110   0.58129   0.00000  Uiso   1.00
H1987  H     0.80400   0.96119   0.54642   0.00000  Uiso   1.00
H1988  H     0.81478   0.69885   0.51843   0.00000  Uiso   1.00
H1989  H     0.82694   0.85989   0.58000   0.00000  Uiso   1.00
H1990  H     0.80539   0.70133   0.57843   0.00000  Uiso   1.00
H1991  H     0.76300   0.70912   0.55368   0.00000  Uiso   1.00
H1992  H     0.93605   0.88449   0.92150   0.00000  Uiso   1.00
H1993  H     0.89785   0.90494   0.89845   0.00000  Uiso   1.00
H1994  H     0.98201   0.87283   0.84489   0.00000  Uiso   1.00
H1995  H     0.94403   0.89327   0.82201   0.00000  Uiso   1.00
H1996  H     0.95587   0.96143   0.86838   0.00000  Uiso   1.00
H1997  H     0.66972   0.94743   0.82756   0.00000  Uiso   1.00
H1998  H     0.99678   0.94013   0.88579   0.00000  Uiso   1.00
H1999  H     0.69974   0.91252   0.74809   0.00000  Uiso   1.00
H2000  H     0.97344   0.75163   0.83597   0.00000  Uiso   1.00
H2001  H     0.66685   0.92025   0.71123   0.00000  Uiso   1.00
H2002  H     0.76324   0.91024   0.68360   0.00000  Uiso   1.00
H2003  H     0.73130   0.91766   0.64622   0.00000  Uiso   1.00
H2004  H     0.71651   0.98692   0.68579   0.00000  Uiso   1.00
H2005  H     0.77336   0.98413   0.66724   0.00000  Uiso   1.00
H2006  H     0.74661   0.97938   0.72530   0.00000  Uiso   1.00
H2007  H     0.69102   0.76046   0.79920   0.00000  Uiso   1.00
H2008  H     0.93822   0.73038   0.77337   0.00000  Uiso   1.00
H2009  H     0.98887   0.74049   0.73343   0.00000  Uiso   1.00
H2010  H     0.68499   0.68632   0.76444   0.00000  Uiso   1.00
H2011  H     0.97191   0.99851   0.74395   0.00000  Uiso   1.00
O2012  O     0.83333   0.83333   0.75000   0.00000  Uiso   1.00
O2013  O     0.82118   0.79304   0.65459   0.00000  Uiso   1.00
O2014  O     0.79607   0.87058   0.84968   0.00000  Uiso   1.00
O2015  O     0.87491   0.84425   0.64606   0.00000  Uiso   1.00
O2016  O     0.84118   0.82546   0.84968   0.00000  Uiso   1.00
O2017  O     0.97965   0.80221   0.80026   0.00000  Uiso   1.00
O2018  O     0.79240   0.99628   0.80597   0.00000  Uiso   1.00
O2019  O     0.90995   0.76752   0.91836   0.00000  Uiso   1.00
O2020  O     0.73961   0.91993   0.51157   0.00000  Uiso   1.00
O2021  O     0.90289   0.84139   0.88344   0.00000  Uiso   1.00
O2022  O     0.68880   0.86229   0.70196   0.00000  Uiso   1.00
O2023  O     0.84597   0.74686   0.78214   0.00000  Uiso   1.00
O2024  O     0.81298   0.92751   0.77014   0.00000  Uiso   1.00
O2025  O     0.74078   0.79958   0.73413   0.00000  Uiso   1.00
O2026  O     0.93360   0.85939   0.71361   0.00000  Uiso   1.00
O2027  O     0.73738   0.85544   0.78213   0.00000  Uiso   1.00
O2028  O     0.92158   0.81892   0.77014   0.00000  Uiso   1.00
O2029  O     0.80426   0.73610   0.73413   0.00000  Uiso   1.00
O2030  O     0.87012   0.92286   0.71361   0.00000  Uiso   1.00
Zn2031 Zn    0.86005   0.80661   0.78734   0.00000  Uiso   1.00
Zn2032 Zn    0.80046   0.79124   0.71876   0.00000  Uiso   1.00
Zn2033 Zn    0.87723   0.86442   0.70657   0.00000  Uiso   1.00
Zn2034 Zn    0.79560   0.87106   0.78734   0.00000  Uiso   1.00
loop_
_geom_bond_atom_site_label_1
_geom_bond_atom_site_label_2
_geom_bond_distance
_geom_bond_site_symmetry_2
_ccdc_geom_bond_type
C1     O106    1.269   .     A
C1     C7      1.438   .     S
C1     O104    1.263   .     A
C2     H68     1.078   .     S
C2     C39     1.402   .     A
C2     C16     1.390   .     A
C3     F43     1.358   .     S
C3     C15     1.389   .     A
C3     C16     1.395   .     A
C4     O107    1.277   .     A
C4     C6      1.461   .     S
C4     O105    1.287   .     A
C5     C17     1.410   .     A
C5     C14     1.490   .     S
C5     C38     1.424   .     A
C6     C120    1.352   .     S
C6     O214    1.388   .     S
C7     C232    1.352   1_455 S
C7     O322    1.396   1_455 S
C8     C11     1.453   .     S
C8     C348    1.345   .     S
C8     H385    1.088   .     S
C9     C10     1.440   .     S
C9     C686    1.345   1_545 S
C9     O775    1.400   1_545 S
C10    O108    1.278   .     A
C10    O102    1.269   .     A
C11    O109    1.281   .     A
C11    O103    1.267   .     A
C12    C17     1.395   .     A
C12    C1040   1.393   .     S
C12    O1116   1.384   .     S
C13    O92     1.271   .     A
C13    O94     1.275   .     A
C13    C16     1.443   .     S
C14    O93     1.283   .     A
C14    O95     1.286   .     A
C15    C1057   1.405   1_554 S
C15    H1074   1.083   1_554 S
C17    F44     1.359   .     S
C18    O96     1.417   .     S
C18    C19     1.535   .     S
C18    H79     1.107   .     S
C18    H199    1.111   .     S
C19    C20     1.526   .     S
C19    H88     1.111   .     S
C19    H87     1.112   .     S
C20    H47     1.108   .     S
C20    H202    1.109   .     S
C20    H768    1.110   1_545 S
C21    H49     1.114   .     S
C21    C22     1.533   .     S
C21    H726    1.108   1_545 S
C21    O775    1.418   1_545 S
C22    H50     1.112   .     S
C22    C24     1.526   .     S
C22    H51     1.108   .     S
C23    F45     1.356   .     S
C23    C1029   1.393   1_554 S
C23    C1051   1.421   1_554 S
C24    H52     1.111   .     S
C24    H54     1.111   .     S
C24    H53     1.111   .     S
C25    H56     1.120   .     S
C25    C26     1.527   .     S
C25    H55     1.112   .     S
C25    O98     1.419   .     S
C26    H58     1.109   .     S
C26    H59     1.112   .     S
C26    C705    1.528   1_545 S
C27    H61     1.110   .     S
C27    H62     1.110   .     S
C27    C365    1.528   .     S
C27    H399    1.111   .     S
C28    O99     1.417   .     S
C28    C29     1.534   .     S
C28    H63     1.111   .     S
C28    H1081   1.117   1_554 S
C29    H65     1.112   .     S
C29    H66     1.111   .     S
C29    C369    1.527   .     S
C30    H67     1.111   .     S
C30    H70     1.111   .     S
C30    H69     1.111   .     S
C30    C707    1.527   1_545 S
C31    H71     1.116   .     S
C31    C32     1.526   .     S
C31    O100    1.415   .     S
C31    H72     1.113   .     S
C32    H74     1.111   .     S
C32    H73     1.109   .     S
C32    C33     1.523   .     S
C33    H75     1.107   .     S
C33    H77     1.111   .     S
C33    H189    1.109   .     S
C34    C38     1.422   .     A
C34    C1040   1.421   .     S
C34    C1056   1.426   .     S
C35    C36     1.529   .     S
C35    H80     1.113   .     S
C35    O101    1.412   .     S
C35    H78     1.116   .     S
C36    C37     1.525   .     S
C36    H82     1.112   .     S
C36    H81     1.112   .     S
C37    H85     1.110   .     S
C37    H84     1.111   .     S
C37    H83     1.110   .     S
C38    C42     1.418   .     A
C39    C1051   1.426   1_554 S
C39    C1057   1.423   1_554 S
C40    C41     1.395   .     A
C40    C1056   1.423   .     S
C40    C1032   1.405   .     S
C41    C42     1.393   .     A
C41    O98     1.383   .     S
C42    O100    1.386   .     S
H46    C686    1.088   1_545 S
H48    C360    1.108   .     S
H57    C1032   1.083   .     S
H60    C705    1.111   1_545 S
H64    C1045   1.117   .     S
H76    C259    1.109   1_455 S
H86    C244    1.111   1_455 S
H89    C246    1.109   1_455 S
H90    C359    1.110   .     S
O91    Zn110   1.956   .     S
O91    Zn111   1.942   .     S
O91    Zn113   1.933   .     S
O91    Zn112   1.945   .     S
O92    Zn111   1.939   .     S
O93    Zn113   1.944   .     S
O94    Zn112   1.938   .     S
O95    Zn110   1.933   .     S
O96    C120    1.396   .     S
O97    C360    1.418   .     S
O97    C348    1.400   .     S
O99    C1029   1.384   1_554 S
O101   C232    1.388   1_455 S
O102   Zn110   1.928   .     S
O103   Zn113   1.933   .     S
O104   Zn111   1.929   .     S
O105   Zn112   1.935   .     S
O106   Zn113   1.933   .     S
O107   Zn110   1.929   .     S
O108   Zn111   1.935   .     S
O109   Zn112   1.928   .     S
C114   O219    1.269   .     A
C114   C120    1.438   .     S
C114   O217    1.263   .     A
C115   H181    1.078   .     S
C115   C152    1.402   .     A
C115   C129    1.390   .     A
C116   F156    1.358   .     S
C116   C128    1.389   .     A
C116   C129    1.395   .     A
C117   O220    1.277   .     A
C117   C119    1.461   .     S
C117   O218    1.287   .     A
C118   C130    1.410   .     A
C118   C127    1.490   .     S
C118   C151    1.424   .     A
C119   C233    1.352   .     S
C119   O327    1.388   .     S
C121   C124    1.453   .     S
C121   C461    1.345   .     S
C121   H498    1.088   .     S
C122   C123    1.440   .     S
C122   C799    1.345   1_545 S
C122   O888    1.400   1_545 S
C123   O221    1.278   .     A
C123   O215    1.269   .     A
C124   O222    1.281   .     A
C124   O216    1.267   .     A
C125   C130    1.395   .     A
C125   C1153   1.393   .     S
C125   O1229   1.384   .     S
C126   O205    1.271   .     A
C126   O207    1.275   .     A
C126   C129    1.443   .     S
C127   O206    1.283   .     A
C127   O208    1.286   .     A
C128   C1170   1.405   1_554 S
C128   H1187   1.083   1_554 S
C130   F157    1.359   .     S
C131   O209    1.417   .     S
C131   C132    1.535   .     S
C131   H192    1.107   .     S
C131   H312    1.111   .     S
C132   C133    1.526   .     S
C132   H201    1.111   .     S
C132   H200    1.112   .     S
C133   H160    1.108   .     S
C133   H315    1.109   .     S
C133   H881    1.110   1_545 S
C134   H162    1.114   .     S
C134   C135    1.533   .     S
C134   H839    1.108   1_545 S
C134   O888    1.418   1_545 S
C135   H163    1.112   .     S
C135   C137    1.526   .     S
C135   H164    1.108   .     S
C136   F158    1.356   .     S
C136   C1142   1.393   1_554 S
C136   C1164   1.421   1_554 S
C137   H165    1.111   .     S
C137   H167    1.111   .     S
C137   H166    1.111   .     S
C138   H169    1.120   .     S
C138   C139    1.527   .     S
C138   H168    1.112   .     S
C138   O211    1.419   .     S
C139   H171    1.109   .     S
C139   H172    1.112   .     S
C139   C818    1.528   1_545 S
C140   H174    1.110   .     S
C140   H175    1.110   .     S
C140   C478    1.528   .     S
C140   H512    1.111   .     S
C141   O212    1.417   .     S
C141   C142    1.534   .     S
C141   H176    1.111   .     S
C141   H1194   1.117   1_554 S
C142   H178    1.112   .     S
C142   H179    1.111   .     S
C142   C482    1.527   .     S
C143   H180    1.111   .     S
C143   H183    1.111   .     S
C143   H182    1.111   .     S
C143   C820    1.527   1_545 S
C144   H184    1.116   .     S
C144   C145    1.526   .     S
C144   O213    1.415   .     S
C144   H185    1.113   .     S
C145   H187    1.111   .     S
C145   H186    1.109   .     S
C145   C146    1.523   .     S
C146   H188    1.107   .     S
C146   H190    1.111   .     S
C146   H302    1.109   .     S
C147   C151    1.422   .     A
C147   C1153   1.421   .     S
C147   C1169   1.426   .     S
C148   C149    1.529   .     S
C148   H193    1.113   .     S
C148   O214    1.412   .     S
C148   H191    1.116   .     S
C149   C150    1.525   .     S
C149   H195    1.112   .     S
C149   H194    1.112   .     S
C150   H198    1.110   .     S
C150   H197    1.111   .     S
C150   H196    1.110   .     S
C151   C155    1.418   .     A
C152   C1164   1.426   1_554 S
C152   C1170   1.423   1_554 S
C153   C154    1.395   .     A
C153   C1169   1.423   .     S
C153   C1145   1.405   .     S
C154   C155    1.393   .     A
C154   O211    1.383   .     S
C155   O213    1.386   .     S
H159   C799    1.088   1_545 S
H161   C473    1.108   .     S
H170   C1145   1.083   .     S
H173   C818    1.111   1_545 S
H177   C1158   1.117   .     S
H203   C472    1.110   .     S
O204   Zn223   1.956   .     S
O204   Zn224   1.942   .     S
O204   Zn226   1.933   .     S
O204   Zn225   1.945   .     S
O205   Zn224   1.939   .     S
O206   Zn226   1.944   .     S
O207   Zn225   1.938   .     S
O208   Zn223   1.933   .     S
O209   C233    1.396   .     S
O210   C473    1.418   .     S
O210   C461    1.400   .     S
O212   C1142   1.384   1_554 S
O215   Zn223   1.928   .     S
O216   Zn226   1.933   .     S
O217   Zn224   1.929   .     S
O218   Zn225   1.935   .     S
O219   Zn226   1.933   .     S
O220   Zn223   1.929   .     S
O221   Zn224   1.935   .     S
O222   Zn225   1.928   .     S
C227   O332    1.269   .     A
C227   C233    1.438   .     S
C227   O330    1.263   .     A
C228   H294    1.078   .     S
C228   C265    1.402   .     A
C228   C242    1.390   .     A
C229   F269    1.358   .     S
C229   C241    1.389   .     A
C229   C242    1.395   .     A
C230   O333    1.277   .     A
C230   C232    1.461   .     S
C230   O331    1.287   .     A
C231   C243    1.410   .     A
C231   C240    1.490   .     S
C231   C264    1.424   .     A
C232   C7      1.352   1_655 S
C232   O101    1.388   1_655 S
C234   C237    1.453   .     S
C234   C574    1.345   .     S
C234   H611    1.088   .     S
C235   C236    1.440   .     S
C235   C912    1.345   1_545 S
C235   O1001   1.400   1_545 S
C236   O334    1.278   .     A
C236   O328    1.269   .     A
C237   O335    1.281   .     A
C237   O329    1.267   .     A
C238   C243    1.395   .     A
C238   C1266   1.393   .     S
C238   O1342   1.384   .     S
C239   O318    1.271   .     A
C239   O320    1.275   .     A
C239   C242    1.443   .     S
C240   O319    1.283   .     A
C240   O321    1.286   .     A
C241   C1283   1.405   1_554 S
C241   H1300   1.083   1_554 S
C243   F270    1.359   .     S
C244   O322    1.417   .     S
C244   C245    1.535   .     S
C244   H305    1.107   .     S
C244   H86     1.111   1_655 S
C245   C246    1.526   .     S
C245   H314    1.111   .     S
C245   H313    1.112   .     S
C246   H273    1.108   .     S
C246   H89     1.109   1_655 S
C246   H994    1.110   1_545 S
C247   H275    1.114   .     S
C247   C248    1.533   .     S
C247   H952    1.108   1_545 S
C247   O1001   1.418   1_545 S
C248   H276    1.112   .     S
C248   C250    1.526   .     S
C248   H277    1.108   .     S
C249   F271    1.356   .     S
C249   C1255   1.393   1_554 S
C249   C1277   1.421   1_554 S
C250   H278    1.111   .     S
C250   H280    1.111   .     S
C250   H279    1.111   .     S
C251   H282    1.120   .     S
C251   C252    1.527   .     S
C251   H281    1.112   .     S
C251   O324    1.419   .     S
C252   H284    1.109   .     S
C252   H285    1.112   .     S
C252   C931    1.528   1_545 S
C253   H287    1.110   .     S
C253   H288    1.110   .     S
C253   C591    1.528   .     S
C253   H625    1.111   .     S
C254   O325    1.417   .     S
C254   C255    1.534   .     S
C254   H289    1.111   .     S
C254   H1307   1.117   1_554 S
C255   H291    1.112   .     S
C255   H292    1.111   .     S
C255   C595    1.527   .     S
C256   H293    1.111   .     S
C256   H296    1.111   .     S
C256   H295    1.111   .     S
C256   C933    1.527   1_545 S
C257   H297    1.116   .     S
C257   C258    1.526   .     S
C257   O326    1.415   .     S
C257   H298    1.113   .     S
C258   H300    1.111   .     S
C258   H299    1.109   .     S
C258   C259    1.523   .     S
C259   H301    1.107   .     S
C259   H303    1.111   .     S
C259   H76     1.109   1_655 S
C260   C264    1.422   .     A
C260   C1266   1.421   .     S
C260   C1282   1.426   .     S
C261   C262    1.529   .     S
C261   H306    1.113   .     S
C261   O327    1.412   .     S
C261   H304    1.116   .     S
C262   C263    1.525   .     S
C262   H308    1.112   .     S
C262   H307    1.112   .     S
C263   H311    1.110   .     S
C263   H310    1.111   .     S
C263   H309    1.110   .     S
C264   C268    1.418   .     A
C265   C1277   1.426   1_554 S
C265   C1283   1.423   1_554 S
C266   C267    1.395   .     A
C266   C1282   1.423   .     S
C266   C1258   1.405   .     S
C267   C268    1.393   .     A
C267   O324    1.383   .     S
C268   O326    1.386   .     S
H272   C912    1.088   1_545 S
H274   C586    1.108   .     S
H283   C1258   1.083   .     S
H286   C931    1.111   1_545 S
H290   C1271   1.117   .     S
H316   C585    1.110   .     S
O317   Zn336   1.956   .     S
O317   Zn337   1.942   .     S
O317   Zn339   1.933   .     S
O317   Zn338   1.945   .     S
O318   Zn337   1.939   .     S
O319   Zn339   1.944   .     S
O320   Zn338   1.938   .     S
O321   Zn336   1.933   .     S
O322   C7      1.396   1_655 S
O323   C586    1.418   .     S
O323   C574    1.400   .     S
O325   C1255   1.384   1_554 S
O328   Zn336   1.928   .     S
O329   Zn339   1.933   .     S
O330   Zn337   1.929   .     S
O331   Zn338   1.935   .     S
O332   Zn339   1.933   .     S
O333   Zn336   1.929   .     S
O334   Zn337   1.935   .     S
O335   Zn338   1.928   .     S
C340   O445    1.269   .     A
C340   C346    1.438   .     S
C340   O443    1.263   .     A
C341   H407    1.078   .     S
C341   C378    1.402   .     A
C341   C355    1.390   .     A
C342   F382    1.358   .     S
C342   C354    1.389   .     A
C342   C355    1.395   .     A
C343   O446    1.277   .     A
C343   C345    1.461   .     S
C343   O444    1.287   .     A
C344   C356    1.410   .     A
C344   C353    1.490   .     S
C344   C377    1.424   .     A
C345   C459    1.352   .     S
C345   O553    1.388   .     S
C346   C571    1.352   1_455 S
C346   O661    1.396   1_455 S
C347   C350    1.453   .     S
C347   C687    1.345   .     S
C347   H724    1.088   .     S
C348   C349    1.440   .     S
C349   O447    1.278   .     A
C349   O441    1.269   .     A
C350   O448    1.281   .     A
C350   O442    1.267   .     A
C351   C356    1.395   .     A
C351   C1379   1.393   .     S
C351   O1455   1.384   .     S
C352   O431    1.271   .     A
C352   O433    1.275   .     A
C352   C355    1.443   .     S
C353   O432    1.283   .     A
C353   O434    1.286   .     A
C354   C1396   1.405   1_554 S
C354   H1413   1.083   1_554 S
C356   F383    1.359   .     S
C357   O435    1.417   .     S
C357   C358    1.535   .     S
C357   H418    1.107   .     S
C357   H538    1.111   .     S
C358   C359    1.526   .     S
C358   H427    1.111   .     S
C358   H426    1.112   .     S
C359   H386    1.108   .     S
C359   H541    1.109   .     S
C360   H388    1.114   .     S
C360   C361    1.533   .     S
C361   H389    1.112   .     S
C361   C363    1.526   .     S
C361   H390    1.108   .     S
C362   F384    1.356   .     S
C362   C1368   1.393   1_554 S
C362   C1390   1.421   1_554 S
C363   H391    1.111   .     S
C363   H393    1.111   .     S
C363   H392    1.111   .     S
C364   H395    1.120   .     S
C364   C365    1.527   .     S
C364   H394    1.112   .     S
C364   O437    1.419   .     S
C365   H397    1.109   .     S
C365   H398    1.112   .     S
C366   H400    1.110   .     S
C366   H401    1.110   .     S
C366   C704    1.528   .     S
C366   H738    1.111   .     S
C367   O438    1.417   .     S
C367   C368    1.534   .     S
C367   H402    1.111   .     S
C367   H1420   1.117   1_554 S
C368   H404    1.112   .     S
C368   H405    1.111   .     S
C368   C708    1.527   .     S
C369   H406    1.111   .     S
C369   H409    1.111   .     S
C369   H408    1.111   .     S
C370   H410    1.116   .     S
C370   C371    1.526   .     S
C370   O439    1.415   .     S
C370   H411    1.113   .     S
C371   H413    1.111   .     S
C371   H412    1.109   .     S
C371   C372    1.523   .     S
C372   H414    1.107   .     S
C372   H416    1.111   .     S
C372   H528    1.109   .     S
C373   C377    1.422   .     A
C373   C1379   1.421   .     S
C373   C1395   1.426   .     S
C374   C375    1.529   .     S
C374   H419    1.113   .     S
C374   O440    1.412   .     S
C374   H417    1.116   .     S
C375   C376    1.525   .     S
C375   H421    1.112   .     S
C375   H420    1.112   .     S
C376   H424    1.110   .     S
C376   H423    1.111   .     S
C376   H422    1.110   .     S
C377   C381    1.418   .     A
C378   C1390   1.426   1_554 S
C378   C1396   1.423   1_554 S
C379   C380    1.395   .     A
C379   C1395   1.423   .     S
C379   C1371   1.405   .     S
C380   C381    1.393   .     A
C380   O437    1.383   .     S
C381   O439    1.386   .     S
H387   C699    1.108   .     S
H396   C1371   1.083   .     S
H403   C1384   1.117   .     S
H415   C598    1.109   1_455 S
H425   C583    1.111   1_455 S
H428   C585    1.109   1_455 S
H429   C698    1.110   .     S
O430   Zn449   1.956   .     S
O430   Zn450   1.942   .     S
O430   Zn452   1.933   .     S
O430   Zn451   1.945   .     S
O431   Zn450   1.939   .     S
O432   Zn452   1.944   .     S
O433   Zn451   1.938   .     S
O434   Zn449   1.933   .     S
O435   C459    1.396   .     S
O436   C699    1.418   .     S
O436   C687    1.400   .     S
O438   C1368   1.384   1_554 S
O440   C571    1.388   1_455 S
O441   Zn449   1.928   .     S
O442   Zn452   1.933   .     S
O443   Zn450   1.929   .     S
O444   Zn451   1.935   .     S
O445   Zn452   1.933   .     S
O446   Zn449   1.929   .     S
O447   Zn450   1.935   .     S
O448   Zn451   1.928   .     S
C453   O558    1.269   .     A
C453   C459    1.438   .     S
C453   O556    1.263   .     A
C454   H520    1.078   .     S
C454   C491    1.402   .     A
C454   C468    1.390   .     A
C455   F495    1.358   .     S
C455   C467    1.389   .     A
C455   C468    1.395   .     A
C456   O559    1.277   .     A
C456   C458    1.461   .     S
C456   O557    1.287   .     A
C457   C469    1.410   .     A
C457   C466    1.490   .     S
C457   C490    1.424   .     A
C458   C572    1.352   .     S
C458   O666    1.388   .     S
C460   C463    1.453   .     S
C460   C800    1.345   .     S
C460   H837    1.088   .     S
C461   C462    1.440   .     S
C462   O560    1.278   .     A
C462   O554    1.269   .     A
C463   O561    1.281   .     A
C463   O555    1.267   .     A
C464   C469    1.395   .     A
C464   C1492   1.393   .     S
C464   O1568   1.384   .     S
C465   O544    1.271   .     A
C465   O546    1.275   .     A
C465   C468    1.443   .     S
C466   O545    1.283   .     A
C466   O547    1.286   .     A
C467   C1509   1.405   1_554 S
C467   H1526   1.083   1_554 S
C469   F496    1.359   .     S
C470   O548    1.417   .     S
C470   C471    1.535   .     S
C470   H531    1.107   .     S
C470   H651    1.111   .     S
C471   C472    1.526   .     S
C471   H540    1.111   .     S
C471   H539    1.112   .     S
C472   H499    1.108   .     S
C472   H654    1.109   .     S
C473   H501    1.114   .     S
C473   C474    1.533   .     S
C474   H502    1.112   .     S
C474   C476    1.526   .     S
C474   H503    1.108   .     S
C475   F497    1.356   .     S
C475   C1481   1.393   1_554 S
C475   C1503   1.421   1_554 S
C476   H504    1.111   .     S
C476   H506    1.111   .     S
C476   H505    1.111   .     S
C477   H508    1.120   .     S
C477   C478    1.527   .     S
C477   H507    1.112   .     S
C477   O550    1.419   .     S
C478   H510    1.109   .     S
C478   H511    1.112   .     S
C479   H513    1.110   .     S
C479   H514    1.110   .     S
C479   C817    1.528   .     S
C479   H851    1.111   .     S
C480   O551    1.417   .     S
C480   C481    1.534   .     S
C480   H515    1.111   .     S
C480   H1533   1.117   1_554 S
C481   H517    1.112   .     S
C481   H518    1.111   .     S
C481   C821    1.527   .     S
C482   H519    1.111   .     S
C482   H522    1.111   .     S
C482   H521    1.111   .     S
C483   H523    1.116   .     S
C483   C484    1.526   .     S
C483   O552    1.415   .     S
C483   H524    1.113   .     S
C484   H526    1.111   .     S
C484   H525    1.109   .     S
C484   C485    1.523   .     S
C485   H527    1.107   .     S
C485   H529    1.111   .     S
C485   H641    1.109   .     S
C486   C490    1.422   .     A
C486   C1492   1.421   .     S
C486   C1508   1.426   .     S
C487   C488    1.529   .     S
C487   H532    1.113   .     S
C487   O553    1.412   .     S
C487   H530    1.116   .     S
C488   C489    1.525   .     S
C488   H534    1.112   .     S
C488   H533    1.112   .     S
C489   H537    1.110   .     S
C489   H536    1.111   .     S
C489   H535    1.110   .     S
C490   C494    1.418   .     A
C491   C1503   1.426   1_554 S
C491   C1509   1.423   1_554 S
C492   C493    1.395   .     A
C492   C1508   1.423   .     S
C492   C1484   1.405   .     S
C493   C494    1.393   .     A
C493   O550    1.383   .     S
C494   O552    1.386   .     S
H500   C812    1.108   .     S
H509   C1484   1.083   .     S
H516   C1497   1.117   .     S
H542   C811    1.110   .     S
O543   Zn562   1.956   .     S
O543   Zn563   1.942   .     S
O543   Zn565   1.933   .     S
O543   Zn564   1.945   .     S
O544   Zn563   1.939   .     S
O545   Zn565   1.944   .     S
O546   Zn564   1.938   .     S
O547   Zn562   1.933   .     S
O548   C572    1.396   .     S
O549   C812    1.418   .     S
O549   C800    1.400   .     S
O551   C1481   1.384   1_554 S
O554   Zn562   1.928   .     S
O555   Zn565   1.933   .     S
O556   Zn563   1.929   .     S
O557   Zn564   1.935   .     S
O558   Zn565   1.933   .     S
O559   Zn562   1.929   .     S
O560   Zn563   1.935   .     S
O561   Zn564   1.928   .     S
C566   O671    1.269   .     A
C566   C572    1.438   .     S
C566   O669    1.263   .     A
C567   H633    1.078   .     S
C567   C604    1.402   .     A
C567   C581    1.390   .     A
C568   F608    1.358   .     S
C568   C580    1.389   .     A
C568   C581    1.395   .     A
C569   O672    1.277   .     A
C569   C571    1.461   .     S
C569   O670    1.287   .     A
C570   C582    1.410   .     A
C570   C579    1.490   .     S
C570   C603    1.424   .     A
C571   C346    1.352   1_655 S
C571   O440    1.388   1_655 S
C573   C576    1.453   .     S
C573   C913    1.345   .     S
C573   H950    1.088   .     S
C574   C575    1.440   .     S
C575   O673    1.278   .     A
C575   O667    1.269   .     A
C576   O674    1.281   .     A
C576   O668    1.267   .     A
C577   C582    1.395   .     A
C577   C1605   1.393   .     S
C577   O1681   1.384   .     S
C578   O657    1.271   .     A
C578   O659    1.275   .     A
C578   C581    1.443   .     S
C579   O658    1.283   .     A
C579   O660    1.286   .     A
C580   C1622   1.405   1_554 S
C580   H1639   1.083   1_554 S
C582   F609    1.359   .     S
C583   O661    1.417   .     S
C583   C584    1.535   .     S
C583   H644    1.107   .     S
C583   H425    1.111   1_655 S
C584   C585    1.526   .     S
C584   H653    1.111   .     S
C584   H652    1.112   .     S
C585   H612    1.108   .     S
C585   H428    1.109   1_655 S
C586   H614    1.114   .     S
C586   C587    1.533   .     S
C587   H615    1.112   .     S
C587   C589    1.526   .     S
C587   H616    1.108   .     S
C588   F610    1.356   .     S
C588   C1594   1.393   1_554 S
C588   C1616   1.421   1_554 S
C589   H617    1.111   .     S
C589   H619    1.111   .     S
C589   H618    1.111   .     S
C590   H621    1.120   .     S
C590   C591    1.527   .     S
C590   H620    1.112   .     S
C590   O663    1.419   .     S
C591   H623    1.109   .     S
C591   H624    1.112   .     S
C592   H626    1.110   .     S
C592   H627    1.110   .     S
C592   C930    1.528   .     S
C592   H964    1.111   .     S
C593   O664    1.417   .     S
C593   C594    1.534   .     S
C593   H628    1.111   .     S
C593   H1646   1.117   1_554 S
C594   H630    1.112   .     S
C594   H631    1.111   .     S
C594   C934    1.527   .     S
C595   H632    1.111   .     S
C595   H635    1.111   .     S
C595   H634    1.111   .     S
C596   H636    1.116   .     S
C596   C597    1.526   .     S
C596   O665    1.415   .     S
C596   H637    1.113   .     S
C597   H639    1.111   .     S
C597   H638    1.109   .     S
C597   C598    1.523   .     S
C598   H640    1.107   .     S
C598   H642    1.111   .     S
C598   H415    1.109   1_655 S
C599   C603    1.422   .     A
C599   C1605   1.421   .     S
C599   C1621   1.426   .     S
C600   C601    1.529   .     S
C600   H645    1.113   .     S
C600   O666    1.412   .     S
C600   H643    1.116   .     S
C601   C602    1.525   .     S
C601   H647    1.112   .     S
C601   H646    1.112   .     S
C602   H650    1.110   .     S
C602   H649    1.111   .     S
C602   H648    1.110   .     S
C603   C607    1.418   .     A
C604   C1616   1.426   1_554 S
C604   C1622   1.423   1_554 S
C605   C606    1.395   .     A
C605   C1621   1.423   .     S
C605   C1597   1.405   .     S
C606   C607    1.393   .     A
C606   O663    1.383   .     S
C607   O665    1.386   .     S
H613   C925    1.108   .     S
H622   C1597   1.083   .     S
H629   C1610   1.117   .     S
H655   C924    1.110   .     S
O656   Zn675   1.956   .     S
O656   Zn676   1.942   .     S
O656   Zn678   1.933   .     S
O656   Zn677   1.945   .     S
O657   Zn676   1.939   .     S
O658   Zn678   1.944   .     S
O659   Zn677   1.938   .     S
O660   Zn675   1.933   .     S
O661   C346    1.396   1_655 S
O662   C925    1.418   .     S
O662   C913    1.400   .     S
O664   C1594   1.384   1_554 S
O667   Zn675   1.928   .     S
O668   Zn678   1.933   .     S
O669   Zn676   1.929   .     S
O670   Zn677   1.935   .     S
O671   Zn678   1.933   .     S
O672   Zn675   1.929   .     S
O673   Zn676   1.935   .     S
O674   Zn677   1.928   .     S
C679   O784    1.269   .     A
C679   C685    1.438   .     S
C679   O782    1.263   .     A
C680   H746    1.078   .     S
C680   C717    1.402   .     A
C680   C694    1.390   .     A
C681   F721    1.358   .     S
C681   C693    1.389   .     A
C681   C694    1.395   .     A
C682   O785    1.277   .     A
C682   C684    1.461   .     S
C682   O783    1.287   .     A
C683   C695    1.410   .     A
C683   C692    1.490   .     S
C683   C716    1.424   .     A
C684   C798    1.352   .     S
C684   O892    1.388   .     S
C685   C910    1.352   1_455 S
C685   O1000   1.396   1_455 S
C686   C689    1.453   .     S
C686   C9      1.345   1_565 S
C686   H46     1.088   1_565 S
C687   C688    1.440   .     S
C688   O786    1.278   .     A
C688   O780    1.269   .     A
C689   O787    1.281   .     A
C689   O781    1.267   .     A
C690   C695    1.395   .     A
C690   C1718   1.393   .     S
C690   O1794   1.384   .     S
C691   O770    1.271   .     A
C691   O772    1.275   .     A
C691   C694    1.443   .     S
C692   O771    1.283   .     A
C692   O773    1.286   .     A
C693   C1735   1.405   1_554 S
C693   H1752   1.083   1_554 S
C695   F722    1.359   .     S
C696   O774    1.417   .     S
C696   C697    1.535   .     S
C696   H757    1.107   .     S
C696   H877    1.111   .     S
C697   C698    1.526   .     S
C697   H766    1.111   .     S
C697   H765    1.112   .     S
C698   H725    1.108   .     S
C698   H880    1.109   .     S
C699   H727    1.114   .     S
C699   C700    1.533   .     S
C700   H728    1.112   .     S
C700   C702    1.526   .     S
C700   H729    1.108   .     S
C701   F723    1.356   .     S
C701   C1707   1.393   1_554 S
C701   C1729   1.421   1_554 S
C702   H730    1.111   .     S
C702   H732    1.111   .     S
C702   H731    1.111   .     S
C703   H734    1.120   .     S
C703   C704    1.527   .     S
C703   H733    1.112   .     S
C703   O776    1.419   .     S
C704   H736    1.109   .     S
C704   H737    1.112   .     S
C705   H739    1.110   .     S
C705   H740    1.110   .     S
C705   C26     1.528   1_565 S
C705   H60     1.111   1_565 S
C706   O777    1.417   .     S
C706   C707    1.534   .     S
C706   H741    1.111   .     S
C706   H1759   1.117   1_554 S
C707   H743    1.112   .     S
C707   H744    1.111   .     S
C707   C30     1.527   1_565 S
C708   H745    1.111   .     S
C708   H748    1.111   .     S
C708   H747    1.111   .     S
C709   H749    1.116   .     S
C709   C710    1.526   .     S
C709   O778    1.415   .     S
C709   H750    1.113   .     S
C710   H752    1.111   .     S
C710   H751    1.109   .     S
C710   C711    1.523   .     S
C711   H753    1.107   .     S
C711   H755    1.111   .     S
C711   H867    1.109   .     S
C712   C716    1.422   .     A
C712   C1718   1.421   .     S
C712   C1734   1.426   .     S
C713   C714    1.529   .     S
C713   H758    1.113   .     S
C713   O779    1.412   .     S
C713   H756    1.116   .     S
C714   C715    1.525   .     S
C714   H760    1.112   .     S
C714   H759    1.112   .     S
C715   H763    1.110   .     S
C715   H762    1.111   .     S
C715   H761    1.110   .     S
C716   C720    1.418   .     A
C717   C1729   1.426   1_554 S
C717   C1735   1.423   1_554 S
C718   C719    1.395   .     A
C718   C1734   1.423   .     S
C718   C1710   1.405   .     S
C719   C720    1.393   .     A
C719   O776    1.383   .     S
C720   O778    1.386   .     S
H726   C21     1.108   1_565 S
H735   C1710   1.083   .     S
H742   C1723   1.117   .     S
H754   C937    1.109   1_455 S
H764   C922    1.111   1_455 S
H767   C924    1.109   1_455 S
H768   C20     1.110   1_565 S
O769   Zn788   1.956   .     S
O769   Zn789   1.942   .     S
O769   Zn791   1.933   .     S
O769   Zn790   1.945   .     S
O770   Zn789   1.939   .     S
O771   Zn791   1.944   .     S
O772   Zn790   1.938   .     S
O773   Zn788   1.933   .     S
O774   C798    1.396   .     S
O775   C21     1.418   1_565 S
O775   C9      1.400   1_565 S
O777   C1707   1.384   1_554 S
O779   C910    1.388   1_455 S
O780   Zn788   1.928   .     S
O781   Zn791   1.933   .     S
O782   Zn789   1.929   .     S
O783   Zn790   1.935   .     S
O784   Zn791   1.933   .     S
O785   Zn788   1.929   .     S
O786   Zn789   1.935   .     S
O787   Zn790   1.928   .     S
C792   O897    1.269   .     A
C792   C798    1.438   .     S
C792   O895    1.263   .     A
C793   H859    1.078   .     S
C793   C830    1.402   .     A
C793   C807    1.390   .     A
C794   F834    1.358   .     S
C794   C806    1.389   .     A
C794   C807    1.395   .     A
C795   O898    1.277   .     A
C795   C797    1.461   .     S
C795   O896    1.287   .     A
C796   C808    1.410   .     A
C796   C805    1.490   .     S
C796   C829    1.424   .     A
C797   C911    1.352   .     S
C797   O1005   1.388   .     S
C799   C802    1.453   .     S
C799   C122    1.345   1_565 S
C799   H159    1.088   1_565 S
C800   C801    1.440   .     S
C801   O899    1.278   .     A
C801   O893    1.269   .     A
C802   O900    1.281   .     A
C802   O894    1.267   .     A
C803   C808    1.395   .     A
C803   C1831   1.393   .     S
C803   O1907   1.384   .     S
C804   O883    1.271   .     A
C804   O885    1.275   .     A
C804   C807    1.443   .     S
C805   O884    1.283   .     A
C805   O886    1.286   .     A
C806   C1848   1.405   1_554 S
C806   H1865   1.083   1_554 S
C808   F835    1.359   .     S
C809   O887    1.417   .     S
C809   C810    1.535   .     S
C809   H870    1.107   .     S
C809   H990    1.111   .     S
C810   C811    1.526   .     S
C810   H879    1.111   .     S
C810   H878    1.112   .     S
C811   H838    1.108   .     S
C811   H993    1.109   .     S
C812   H840    1.114   .     S
C812   C813    1.533   .     S
C813   H841    1.112   .     S
C813   C815    1.526   .     S
C813   H842    1.108   .     S
C814   F836    1.356   .     S
C814   C1820   1.393   1_554 S
C814   C1842   1.421   1_554 S
C815   H843    1.111   .     S
C815   H845    1.111   .     S
C815   H844    1.111   .     S
C816   H847    1.120   .     S
C816   C817    1.527   .     S
C816   H846    1.112   .     S
C816   O889    1.419   .     S
C817   H849    1.109   .     S
C817   H850    1.112   .     S
C818   H852    1.110   .     S
C818   H853    1.110   .     S
C818   C139    1.528   1_565 S
C818   H173    1.111   1_565 S
C819   O890    1.417   .     S
C819   C820    1.534   .     S
C819   H854    1.111   .     S
C819   H1872   1.117   1_554 S
C820   H856    1.112   .     S
C820   H857    1.111   .     S
C820   C143    1.527   1_565 S
C821   H858    1.111   .     S
C821   H861    1.111   .     S
C821   H860    1.111   .     S
C822   H862    1.116   .     S
C822   C823    1.526   .     S
C822   O891    1.415   .     S
C822   H863    1.113   .     S
C823   H865    1.111   .     S
C823   H864    1.109   .     S
C823   C824    1.523   .     S
C824   H866    1.107   .     S
C824   H868    1.111   .     S
C824   H980    1.109   .     S
C825   C829    1.422   .     A
C825   C1831   1.421   .     S
C825   C1847   1.426   .     S
C826   C827    1.529   .     S
C826   H871    1.113   .     S
C826   O892    1.412   .     S
C826   H869    1.116   .     S
C827   C828    1.525   .     S
C827   H873    1.112   .     S
C827   H872    1.112   .     S
C828   H876    1.110   .     S
C828   H875    1.111   .     S
C828   H874    1.110   .     S
C829   C833    1.418   .     A
C830   C1842   1.426   1_554 S
C830   C1848   1.423   1_554 S
C831   C832    1.395   .     A
C831   C1847   1.423   .     S
C831   C1823   1.405   .     S
C832   C833    1.393   .     A
C832   O889    1.383   .     S
C833   O891    1.386   .     S
H839   C134    1.108   1_565 S
H848   C1823   1.083   .     S
H855   C1836   1.117   .     S
H881   C133    1.110   1_565 S
O882   Zn901   1.956   .     S
O882   Zn902   1.942   .     S
O882   Zn904   1.933   .     S
O882   Zn903   1.945   .     S
O883   Zn902   1.939   .     S
O884   Zn904   1.944   .     S
O885   Zn903   1.938   .     S
O886   Zn901   1.933   .     S
O887   C911    1.396   .     S
O888   C134    1.418   1_565 S
O888   C122    1.400   1_565 S
O890   C1820   1.384   1_554 S
O893   Zn901   1.928   .     S
O894   Zn904   1.933   .     S
O895   Zn902   1.929   .     S
O896   Zn903   1.935   .     S
O897   Zn904   1.933   .     S
O898   Zn901   1.929   .     S
O899   Zn902   1.935   .     S
O900   Zn903   1.928   .     S
C905   O1010   1.269   .     A
C905   C911    1.438   .     S
C905   O1008   1.263   .     A
C906   H972    1.078   .     S
C906   C943    1.402   .     A
C906   C920    1.390   .     A
C907   F947    1.358   .     S
C907   C919    1.389   .     A
C907   C920    1.395   .     A
C908   O1011   1.277   .     A
C908   C910    1.461   .     S
C908   O1009   1.287   .     A
C909   C921    1.410   .     A
C909   C918    1.490   .     S
C909   C942    1.424   .     A
C910   C685    1.352   1_655 S
C910   O779    1.388   1_655 S
C912   C915    1.453   .     S
C912   C235    1.345   1_565 S
C912   H272    1.088   1_565 S
C913   C914    1.440   .     S
C914   O1012   1.278   .     A
C914   O1006   1.269   .     A
C915   O1013   1.281   .     A
C915   O1007   1.267   .     A
C916   C921    1.395   .     A
C916   C1944   1.393   .     S
C916   O2020   1.384   .     S
C917   O996    1.271   .     A
C917   O998    1.275   .     A
C917   C920    1.443   .     S
C918   O997    1.283   .     A
C918   O999    1.286   .     A
C919   C1961   1.405   1_554 S
C919   H1978   1.083   1_554 S
C921   F948    1.359   .     S
C922   O1000   1.417   .     S
C922   C923    1.535   .     S
C922   H983    1.107   .     S
C922   H764    1.111   1_655 S
C923   C924    1.526   .     S
C923   H992    1.111   .     S
C923   H991    1.112   .     S
C924   H951    1.108   .     S
C924   H767    1.109   1_655 S
C925   H953    1.114   .     S
C925   C926    1.533   .     S
C926   H954    1.112   .     S
C926   C928    1.526   .     S
C926   H955    1.108   .     S
C927   F949    1.356   .     S
C927   C1933   1.393   1_554 S
C927   C1955   1.421   1_554 S
C928   H956    1.111   .     S
C928   H958    1.111   .     S
C928   H957    1.111   .     S
C929   H960    1.120   .     S
C929   C930    1.527   .     S
C929   H959    1.112   .     S
C929   O1002   1.419   .     S
C930   H962    1.109   .     S
C930   H963    1.112   .     S
C931   H965    1.110   .     S
C931   H966    1.110   .     S
C931   C252    1.528   1_565 S
C931   H286    1.111   1_565 S
C932   O1003   1.417   .     S
C932   C933    1.534   .     S
C932   H967    1.111   .     S
C932   H1985   1.117   1_554 S
C933   H969    1.112   .     S
C933   H970    1.111   .     S
C933   C256    1.527   1_565 S
C934   H971    1.111   .     S
C934   H974    1.111   .     S
C934   H973    1.111   .     S
C935   H975    1.116   .     S
C935   C936    1.526   .     S
C935   O1004   1.415   .     S
C935   H976    1.113   .     S
C936   H978    1.111   .     S
C936   H977    1.109   .     S
C936   C937    1.523   .     S
C937   H979    1.107   .     S
C937   H981    1.111   .     S
C937   H754    1.109   1_655 S
C938   C942    1.422   .     A
C938   C1944   1.421   .     S
C938   C1960   1.426   .     S
C939   C940    1.529   .     S
C939   H984    1.113   .     S
C939   O1005   1.412   .     S
C939   H982    1.116   .     S
C940   C941    1.525   .     S
C940   H986    1.112   .     S
C940   H985    1.112   .     S
C941   H989    1.110   .     S
C941   H988    1.111   .     S
C941   H987    1.110   .     S
C942   C946    1.418   .     A
C943   C1955   1.426   1_554 S
C943   C1961   1.423   1_554 S
C944   C945    1.395   .     A
C944   C1960   1.423   .     S
C944   C1936   1.405   .     S
C945   C946    1.393   .     A
C945   O1002   1.383   .     S
C946   O1004   1.386   .     S
H952   C247    1.108   1_565 S
H961   C1936   1.083   .     S
H968   C1949   1.117   .     S
H994   C246    1.110   1_565 S
O995   Zn1014  1.956   .     S
O995   Zn1015  1.942   .     S
O995   Zn1017  1.933   .     S
O995   Zn1016  1.945   .     S
O996   Zn1015  1.939   .     S
O997   Zn1017  1.944   .     S
O998   Zn1016  1.938   .     S
O999   Zn1014  1.933   .     S
O1000  C685    1.396   1_655 S
O1001  C247    1.418   1_565 S
O1001  C235    1.400   1_565 S
O1003  C1933   1.384   1_554 S
O1006  Zn1014  1.928   .     S
O1007  Zn1017  1.933   .     S
O1008  Zn1015  1.929   .     S
O1009  Zn1016  1.935   .     S
O1010  Zn1017  1.933   .     S
O1011  Zn1014  1.929   .     S
O1012  Zn1015  1.935   .     S
O1013  Zn1016  1.928   .     S
C1018  O1123   1.269   .     A
C1018  C1024   1.438   .     S
C1018  O1121   1.263   .     A
C1019  H1085   1.078   .     S
C1019  C1056   1.402   .     A
C1019  C1033   1.390   .     A
C1020  F1060   1.358   .     S
C1020  C1032   1.389   .     A
C1020  C1033   1.395   .     A
C1021  O1124   1.277   .     A
C1021  C1023   1.461   .     S
C1021  O1122   1.287   .     A
C1022  C1034   1.410   .     A
C1022  C1031   1.490   .     S
C1022  C1055   1.424   .     A
C1023  C1137   1.352   .     S
C1023  O1231   1.388   .     S
C1024  C1249   1.352   1_455 S
C1024  O1339   1.396   1_455 S
C1025  C1028   1.453   .     S
C1025  C1365   1.345   .     S
C1025  H1402   1.088   .     S
C1026  C1027   1.440   .     S
C1026  C1703   1.345   1_545 S
C1026  O1792   1.400   1_545 S
C1027  O1125   1.278   .     A
C1027  O1119   1.269   .     A
C1028  O1126   1.281   .     A
C1028  O1120   1.267   .     A
C1029  C1034   1.395   .     A
C1029  C23     1.393   1_556 S
C1029  O99     1.384   1_556 S
C1030  O1109   1.271   .     A
C1030  O1111   1.275   .     A
C1030  C1033   1.443   .     S
C1031  O1110   1.283   .     A
C1031  O1112   1.286   .     A
C1034  F1061   1.359   .     S
C1035  O1113   1.417   .     S
C1035  C1036   1.535   .     S
C1035  H1096   1.107   .     S
C1035  H1216   1.111   .     S
C1036  C1037   1.526   .     S
C1036  H1105   1.111   .     S
C1036  H1104   1.112   .     S
C1037  H1064   1.108   .     S
C1037  H1219   1.109   .     S
C1037  H1785   1.110   1_545 S
C1038  H1066   1.114   .     S
C1038  C1039   1.533   .     S
C1038  H1743   1.108   1_545 S
C1038  O1792   1.418   1_545 S
C1039  H1067   1.112   .     S
C1039  C1041   1.526   .     S
C1039  H1068   1.108   .     S
C1040  F1062   1.356   .     S
C1041  H1069   1.111   .     S
C1041  H1071   1.111   .     S
C1041  H1070   1.111   .     S
C1042  H1073   1.120   .     S
C1042  C1043   1.527   .     S
C1042  H1072   1.112   .     S
C1042  O1115   1.419   .     S
C1043  H1075   1.109   .     S
C1043  H1076   1.112   .     S
C1043  C1722   1.528   1_545 S
C1044  H1078   1.110   .     S
C1044  H1079   1.110   .     S
C1044  C1382   1.528   .     S
C1044  H1416   1.111   .     S
C1045  O1116   1.417   .     S
C1045  C1046   1.534   .     S
C1045  H1080   1.111   .     S
C1046  H1082   1.112   .     S
C1046  H1083   1.111   .     S
C1046  C1386   1.527   .     S
C1047  H1084   1.111   .     S
C1047  H1087   1.111   .     S
C1047  H1086   1.111   .     S
C1047  C1724   1.527   1_545 S
C1048  H1088   1.116   .     S
C1048  C1049   1.526   .     S
C1048  O1117   1.415   .     S
C1048  H1089   1.113   .     S
C1049  H1091   1.111   .     S
C1049  H1090   1.109   .     S
C1049  C1050   1.523   .     S
C1050  H1092   1.107   .     S
C1050  H1094   1.111   .     S
C1050  H1206   1.109   .     S
C1051  C1055   1.422   .     A
C1051  C23     1.421   1_556 S
C1051  C39     1.426   1_556 S
C1052  C1053   1.529   .     S
C1052  H1097   1.113   .     S
C1052  O1118   1.412   .     S
C1052  H1095   1.116   .     S
C1053  C1054   1.525   .     S
C1053  H1099   1.112   .     S
C1053  H1098   1.112   .     S
C1054  H1102   1.110   .     S
C1054  H1101   1.111   .     S
C1054  H1100   1.110   .     S
C1055  C1059   1.418   .     A
C1057  C1058   1.395   .     A
C1057  C39     1.423   1_556 S
C1057  C15     1.405   1_556 S
C1058  C1059   1.393   .     A
C1058  O1115   1.383   .     S
C1059  O1117   1.386   .     S
H1063  C1703   1.088   1_545 S
H1065  C1377   1.108   .     S
H1074  C15     1.083   1_556 S
H1077  C1722   1.111   1_545 S
H1081  C28     1.117   1_556 S
H1093  C1276   1.109   1_455 S
H1103  C1261   1.111   1_455 S
H1106  C1263   1.109   1_455 S
H1107  C1376   1.110   .     S
O1108  Zn1127  1.956   .     S
O1108  Zn1128  1.942   .     S
O1108  Zn1130  1.933   .     S
O1108  Zn1129  1.945   .     S
O1109  Zn1128  1.939   .     S
O1110  Zn1130  1.944   .     S
O1111  Zn1129  1.938   .     S
O1112  Zn1127  1.933   .     S
O1113  C1137   1.396   .     S
O1114  C1377   1.418   .     S
O1114  C1365   1.400   .     S
O1118  C1249   1.388   1_455 S
O1119  Zn1127  1.928   .     S
O1120  Zn1130  1.933   .     S
O1121  Zn1128  1.929   .     S
O1122  Zn1129  1.935   .     S
O1123  Zn1130  1.933   .     S
O1124  Zn1127  1.929   .     S
O1125  Zn1128  1.935   .     S
O1126  Zn1129  1.928   .     S
C1131  O1236   1.269   .     A
C1131  C1137   1.438   .     S
C1131  O1234   1.263   .     A
C1132  H1198   1.078   .     S
C1132  C1169   1.402   .     A
C1132  C1146   1.390   .     A
C1133  F1173   1.358   .     S
C1133  C1145   1.389   .     A
C1133  C1146   1.395   .     A
C1134  O1237   1.277   .     A
C1134  C1136   1.461   .     S
C1134  O1235   1.287   .     A
C1135  C1147   1.410   .     A
C1135  C1144   1.490   .     S
C1135  C1168   1.424   .     A
C1136  C1250   1.352   .     S
C1136  O1344   1.388   .     S
C1138  C1141   1.453   .     S
C1138  C1478   1.345   .     S
C1138  H1515   1.088   .     S
C1139  C1140   1.440   .     S
C1139  C1816   1.345   1_545 S
C1139  O1905   1.400   1_545 S
C1140  O1238   1.278   .     A
C1140  O1232   1.269   .     A
C1141  O1239   1.281   .     A
C1141  O1233   1.267   .     A
C1142  C1147   1.395   .     A
C1142  C136    1.393   1_556 S
C1142  O212    1.384   1_556 S
C1143  O1222   1.271   .     A
C1143  O1224   1.275   .     A
C1143  C1146   1.443   .     S
C1144  O1223   1.283   .     A
C1144  O1225   1.286   .     A
C1147  F1174   1.359   .     S
C1148  O1226   1.417   .     S
C1148  C1149   1.535   .     S
C1148  H1209   1.107   .     S
C1148  H1329   1.111   .     S
C1149  C1150   1.526   .     S
C1149  H1218   1.111   .     S
C1149  H1217   1.112   .     S
C1150  H1177   1.108   .     S
C1150  H1332   1.109   .     S
C1150  H1898   1.110   1_545 S
C1151  H1179   1.114   .     S
C1151  C1152   1.533   .     S
C1151  H1856   1.108   1_545 S
C1151  O1905   1.418   1_545 S
C1152  H1180   1.112   .     S
C1152  C1154   1.526   .     S
C1152  H1181   1.108   .     S
C1153  F1175   1.356   .     S
C1154  H1182   1.111   .     S
C1154  H1184   1.111   .     S
C1154  H1183   1.111   .     S
C1155  H1186   1.120   .     S
C1155  C1156   1.527   .     S
C1155  H1185   1.112   .     S
C1155  O1228   1.419   .     S
C1156  H1188   1.109   .     S
C1156  H1189   1.112   .     S
C1156  C1835   1.528   1_545 S
C1157  H1191   1.110   .     S
C1157  H1192   1.110   .     S
C1157  C1495   1.528   .     S
C1157  H1529   1.111   .     S
C1158  O1229   1.417   .     S
C1158  C1159   1.534   .     S
C1158  H1193   1.111   .     S
C1159  H1195   1.112   .     S
C1159  H1196   1.111   .     S
C1159  C1499   1.527   .     S
C1160  H1197   1.111   .     S
C1160  H1200   1.111   .     S
C1160  H1199   1.111   .     S
C1160  C1837   1.527   1_545 S
C1161  H1201   1.116   .     S
C1161  C1162   1.526   .     S
C1161  O1230   1.415   .     S
C1161  H1202   1.113   .     S
C1162  H1204   1.111   .     S
C1162  H1203   1.109   .     S
C1162  C1163   1.523   .     S
C1163  H1205   1.107   .     S
C1163  H1207   1.111   .     S
C1163  H1319   1.109   .     S
C1164  C1168   1.422   .     A
C1164  C136    1.421   1_556 S
C1164  C152    1.426   1_556 S
C1165  C1166   1.529   .     S
C1165  H1210   1.113   .     S
C1165  O1231   1.412   .     S
C1165  H1208   1.116   .     S
C1166  C1167   1.525   .     S
C1166  H1212   1.112   .     S
C1166  H1211   1.112   .     S
C1167  H1215   1.110   .     S
C1167  H1214   1.111   .     S
C1167  H1213   1.110   .     S
C1168  C1172   1.418   .     A
C1170  C1171   1.395   .     A
C1170  C152    1.423   1_556 S
C1170  C128    1.405   1_556 S
C1171  C1172   1.393   .     A
C1171  O1228   1.383   .     S
C1172  O1230   1.386   .     S
H1176  C1816   1.088   1_545 S
H1178  C1490   1.108   .     S
H1187  C128    1.083   1_556 S
H1190  C1835   1.111   1_545 S
H1194  C141    1.117   1_556 S
H1220  C1489   1.110   .     S
O1221  Zn1240  1.956   .     S
O1221  Zn1241  1.942   .     S
O1221  Zn1243  1.933   .     S
O1221  Zn1242  1.945   .     S
O1222  Zn1241  1.939   .     S
O1223  Zn1243  1.944   .     S
O1224  Zn1242  1.938   .     S
O1225  Zn1240  1.933   .     S
O1226  C1250   1.396   .     S
O1227  C1490   1.418   .     S
O1227  C1478   1.400   .     S
O1232  Zn1240  1.928   .     S
O1233  Zn1243  1.933   .     S
O1234  Zn1241  1.929   .     S
O1235  Zn1242  1.935   .     S
O1236  Zn1243  1.933   .     S
O1237  Zn1240  1.929   .     S
O1238  Zn1241  1.935   .     S
O1239  Zn1242  1.928   .     S
C1244  O1349   1.269   .     A
C1244  C1250   1.438   .     S
C1244  O1347   1.263   .     A
C1245  H1311   1.078   .     S
C1245  C1282   1.402   .     A
C1245  C1259   1.390   .     A
C1246  F1286   1.358   .     S
C1246  C1258   1.389   .     A
C1246  C1259   1.395   .     A
C1247  O1350   1.277   .     A
C1247  C1249   1.461   .     S
C1247  O1348   1.287   .     A
C1248  C1260   1.410   .     A
C1248  C1257   1.490   .     S
C1248  C1281   1.424   .     A
C1249  C1024   1.352   1_655 S
C1249  O1118   1.388   1_655 S
C1251  C1254   1.453   .     S
C1251  C1591   1.345   .     S
C1251  H1628   1.088   .     S
C1252  C1253   1.440   .     S
C1252  C1929   1.345   1_545 S
C1252  O2018   1.400   1_545 S
C1253  O1351   1.278   .     A
C1253  O1345   1.269   .     A
C1254  O1352   1.281   .     A
C1254  O1346   1.267   .     A
C1255  C1260   1.395   .     A
C1255  C249    1.393   1_556 S
C1255  O325    1.384   1_556 S
C1256  O1335   1.271   .     A
C1256  O1337   1.275   .     A
C1256  C1259   1.443   .     S
C1257  O1336   1.283   .     A
C1257  O1338   1.286   .     A
C1260  F1287   1.359   .     S
C1261  O1339   1.417   .     S
C1261  C1262   1.535   .     S
C1261  H1322   1.107   .     S
C1261  H1103   1.111   1_655 S
C1262  C1263   1.526   .     S
C1262  H1331   1.111   .     S
C1262  H1330   1.112   .     S
C1263  H1290   1.108   .     S
C1263  H1106   1.109   1_655 S
C1263  H2011   1.110   1_545 S
C1264  H1292   1.114   .     S
C1264  C1265   1.533   .     S
C1264  H1969   1.108   1_545 S
C1264  O2018   1.418   1_545 S
C1265  H1293   1.112   .     S
C1265  C1267   1.526   .     S
C1265  H1294   1.108   .     S
C1266  F1288   1.356   .     S
C1267  H1295   1.111   .     S
C1267  H1297   1.111   .     S
C1267  H1296   1.111   .     S
C1268  H1299   1.120   .     S
C1268  C1269   1.527   .     S
C1268  H1298   1.112   .     S
C1268  O1341   1.419   .     S
C1269  H1301   1.109   .     S
C1269  H1302   1.112   .     S
C1269  C1948   1.528   1_545 S
C1270  H1304   1.110   .     S
C1270  H1305   1.110   .     S
C1270  C1608   1.528   .     S
C1270  H1642   1.111   .     S
C1271  O1342   1.417   .     S
C1271  C1272   1.534   .     S
C1271  H1306   1.111   .     S
C1272  H1308   1.112   .     S
C1272  H1309   1.111   .     S
C1272  C1612   1.527   .     S
C1273  H1310   1.111   .     S
C1273  H1313   1.111   .     S
C1273  H1312   1.111   .     S
C1273  C1950   1.527   1_545 S
C1274  H1314   1.116   .     S
C1274  C1275   1.526   .     S
C1274  O1343   1.415   .     S
C1274  H1315   1.113   .     S
C1275  H1317   1.111   .     S
C1275  H1316   1.109   .     S
C1275  C1276   1.523   .     S
C1276  H1318   1.107   .     S
C1276  H1320   1.111   .     S
C1276  H1093   1.109   1_655 S
C1277  C1281   1.422   .     A
C1277  C249    1.421   1_556 S
C1277  C265    1.426   1_556 S
C1278  C1279   1.529   .     S
C1278  H1323   1.113   .     S
C1278  O1344   1.412   .     S
C1278  H1321   1.116   .     S
C1279  C1280   1.525   .     S
C1279  H1325   1.112   .     S
C1279  H1324   1.112   .     S
C1280  H1328   1.110   .     S
C1280  H1327   1.111   .     S
C1280  H1326   1.110   .     S
C1281  C1285   1.418   .     A
C1283  C1284   1.395   .     A
C1283  C265    1.423   1_556 S
C1283  C241    1.405   1_556 S
C1284  C1285   1.393   .     A
C1284  O1341   1.383   .     S
C1285  O1343   1.386   .     S
H1289  C1929   1.088   1_545 S
H1291  C1603   1.108   .     S
H1300  C241    1.083   1_556 S
H1303  C1948   1.111   1_545 S
H1307  C254    1.117   1_556 S
H1333  C1602   1.110   .     S
O1334  Zn1353  1.956   .     S
O1334  Zn1354  1.942   .     S
O1334  Zn1356  1.933   .     S
O1334  Zn1355  1.945   .     S
O1335  Zn1354  1.939   .     S
O1336  Zn1356  1.944   .     S
O1337  Zn1355  1.938   .     S
O1338  Zn1353  1.933   .     S
O1339  C1024   1.396   1_655 S
O1340  C1603   1.418   .     S
O1340  C1591   1.400   .     S
O1345  Zn1353  1.928   .     S
O1346  Zn1356  1.933   .     S
O1347  Zn1354  1.929   .     S
O1348  Zn1355  1.935   .     S
O1349  Zn1356  1.933   .     S
O1350  Zn1353  1.929   .     S
O1351  Zn1354  1.935   .     S
O1352  Zn1355  1.928   .     S
C1357  O1462   1.269   .     A
C1357  C1363   1.438   .     S
C1357  O1460   1.263   .     A
C1358  H1424   1.078   .     S
C1358  C1395   1.402   .     A
C1358  C1372   1.390   .     A
C1359  F1399   1.358   .     S
C1359  C1371   1.389   .     A
C1359  C1372   1.395   .     A
C1360  O1463   1.277   .     A
C1360  C1362   1.461   .     S
C1360  O1461   1.287   .     A
C1361  C1373   1.410   .     A
C1361  C1370   1.490   .     S
C1361  C1394   1.424   .     A
C1362  C1476   1.352   .     S
C1362  O1570   1.388   .     S
C1363  C1588   1.352   1_455 S
C1363  O1678   1.396   1_455 S
C1364  C1367   1.453   .     S
C1364  C1704   1.345   .     S
C1364  H1741   1.088   .     S
C1365  C1366   1.440   .     S
C1366  O1464   1.278   .     A
C1366  O1458   1.269   .     A
C1367  O1465   1.281   .     A
C1367  O1459   1.267   .     A
C1368  C1373   1.395   .     A
C1368  C362    1.393   1_556 S
C1368  O438    1.384   1_556 S
C1369  O1448   1.271   .     A
C1369  O1450   1.275   .     A
C1369  C1372   1.443   .     S
C1370  O1449   1.283   .     A
C1370  O1451   1.286   .     A
C1373  F1400   1.359   .     S
C1374  O1452   1.417   .     S
C1374  C1375   1.535   .     S
C1374  H1435   1.107   .     S
C1374  H1555   1.111   .     S
C1375  C1376   1.526   .     S
C1375  H1444   1.111   .     S
C1375  H1443   1.112   .     S
C1376  H1403   1.108   .     S
C1376  H1558   1.109   .     S
C1377  H1405   1.114   .     S
C1377  C1378   1.533   .     S
C1378  H1406   1.112   .     S
C1378  C1380   1.526   .     S
C1378  H1407   1.108   .     S
C1379  F1401   1.356   .     S
C1380  H1408   1.111   .     S
C1380  H1410   1.111   .     S
C1380  H1409   1.111   .     S
C1381  H1412   1.120   .     S
C1381  C1382   1.527   .     S
C1381  H1411   1.112   .     S
C1381  O1454   1.419   .     S
C1382  H1414   1.109   .     S
C1382  H1415   1.112   .     S
C1383  H1417   1.110   .     S
C1383  H1418   1.110   .     S
C1383  C1721   1.528   .     S
C1383  H1755   1.111   .     S
C1384  O1455   1.417   .     S
C1384  C1385   1.534   .     S
C1384  H1419   1.111   .     S
C1385  H1421   1.112   .     S
C1385  H1422   1.111   .     S
C1385  C1725   1.527   .     S
C1386  H1423   1.111   .     S
C1386  H1426   1.111   .     S
C1386  H1425   1.111   .     S
C1387  H1427   1.116   .     S
C1387  C1388   1.526   .     S
C1387  O1456   1.415   .     S
C1387  H1428   1.113   .     S
C1388  H1430   1.111   .     S
C1388  H1429   1.109   .     S
C1388  C1389   1.523   .     S
C1389  H1431   1.107   .     S
C1389  H1433   1.111   .     S
C1389  H1545   1.109   .     S
C1390  C1394   1.422   .     A
C1390  C362    1.421   1_556 S
C1390  C378    1.426   1_556 S
C1391  C1392   1.529   .     S
C1391  H1436   1.113   .     S
C1391  O1457   1.412   .     S
C1391  H1434   1.116   .     S
C1392  C1393   1.525   .     S
C1392  H1438   1.112   .     S
C1392  H1437   1.112   .     S
C1393  H1441   1.110   .     S
C1393  H1440   1.111   .     S
C1393  H1439   1.110   .     S
C1394  C1398   1.418   .     A
C1396  C1397   1.395   .     A
C1396  C378    1.423   1_556 S
C1396  C354    1.405   1_556 S
C1397  C1398   1.393   .     A
C1397  O1454   1.383   .     S
C1398  O1456   1.386   .     S
H1404  C1716   1.108   .     S
H1413  C354    1.083   1_556 S
H1420  C367    1.117   1_556 S
H1432  C1615   1.109   1_455 S
H1442  C1600   1.111   1_455 S
H1445  C1602   1.109   1_455 S
H1446  C1715   1.110   .     S
O1447  Zn1466  1.956   .     S
O1447  Zn1467  1.942   .     S
O1447  Zn1469  1.933   .     S
O1447  Zn1468  1.945   .     S
O1448  Zn1467  1.939   .     S
O1449  Zn1469  1.944   .     S
O1450  Zn1468  1.938   .     S
O1451  Zn1466  1.933   .     S
O1452  C1476   1.396   .     S
O1453  C1716   1.418   .     S
O1453  C1704   1.400   .     S
O1457  C1588   1.388   1_455 S
O1458  Zn1466  1.928   .     S
O1459  Zn1469  1.933   .     S
O1460  Zn1467  1.929   .     S
O1461  Zn1468  1.935   .     S
O1462  Zn1469  1.933   .     S
O1463  Zn1466  1.929   .     S
O1464  Zn1467  1.935   .     S
O1465  Zn1468  1.928   .     S
C1470  O1575   1.269   .     A
C1470  C1476   1.438   .     S
C1470  O1573   1.263   .     A
C1471  H1537   1.078   .     S
C1471  C1508   1.402   .     A
C1471  C1485   1.390   .     A
C1472  F1512   1.358   .     S
C1472  C1484   1.389   .     A
C1472  C1485   1.395   .     A
C1473  O1576   1.277   .     A
C1473  C1475   1.461   .     S
C1473  O1574   1.287   .     A
C1474  C1486   1.410   .     A
C1474  C1483   1.490   .     S
C1474  C1507   1.424   .     A
C1475  C1589   1.352   .     S
C1475  O1683   1.388   .     S
C1477  C1480   1.453   .     S
C1477  C1817   1.345   .     S
C1477  H1854   1.088   .     S
C1478  C1479   1.440   .     S
C1479  O1577   1.278   .     A
C1479  O1571   1.269   .     A
C1480  O1578   1.281   .     A
C1480  O1572   1.267   .     A
C1481  C1486   1.395   .     A
C1481  C475    1.393   1_556 S
C1481  O551    1.384   1_556 S
C1482  O1561   1.271   .     A
C1482  O1563   1.275   .     A
C1482  C1485   1.443   .     S
C1483  O1562   1.283   .     A
C1483  O1564   1.286   .     A
C1486  F1513   1.359   .     S
C1487  O1565   1.417   .     S
C1487  C1488   1.535   .     S
C1487  H1548   1.107   .     S
C1487  H1668   1.111   .     S
C1488  C1489   1.526   .     S
C1488  H1557   1.111   .     S
C1488  H1556   1.112   .     S
C1489  H1516   1.108   .     S
C1489  H1671   1.109   .     S
C1490  H1518   1.114   .     S
C1490  C1491   1.533   .     S
C1491  H1519   1.112   .     S
C1491  C1493   1.526   .     S
C1491  H1520   1.108   .     S
C1492  F1514   1.356   .     S
C1493  H1521   1.111   .     S
C1493  H1523   1.111   .     S
C1493  H1522   1.111   .     S
C1494  H1525   1.120   .     S
C1494  C1495   1.527   .     S
C1494  H1524   1.112   .     S
C1494  O1567   1.419   .     S
C1495  H1527   1.109   .     S
C1495  H1528   1.112   .     S
C1496  H1530   1.110   .     S
C1496  H1531   1.110   .     S
C1496  C1834   1.528   .     S
C1496  H1868   1.111   .     S
C1497  O1568   1.417   .     S
C1497  C1498   1.534   .     S
C1497  H1532   1.111   .     S
C1498  H1534   1.112   .     S
C1498  H1535   1.111   .     S
C1498  C1838   1.527   .     S
C1499  H1536   1.111   .     S
C1499  H1539   1.111   .     S
C1499  H1538   1.111   .     S
C1500  H1540   1.116   .     S
C1500  C1501   1.526   .     S
C1500  O1569   1.415   .     S
C1500  H1541   1.113   .     S
C1501  H1543   1.111   .     S
C1501  H1542   1.109   .     S
C1501  C1502   1.523   .     S
C1502  H1544   1.107   .     S
C1502  H1546   1.111   .     S
C1502  H1658   1.109   .     S
C1503  C1507   1.422   .     A
C1503  C475    1.421   1_556 S
C1503  C491    1.426   1_556 S
C1504  C1505   1.529   .     S
C1504  H1549   1.113   .     S
C1504  O1570   1.412   .     S
C1504  H1547   1.116   .     S
C1505  C1506   1.525   .     S
C1505  H1551   1.112   .     S
C1505  H1550   1.112   .     S
C1506  H1554   1.110   .     S
C1506  H1553   1.111   .     S
C1506  H1552   1.110   .     S
C1507  C1511   1.418   .     A
C1509  C1510   1.395   .     A
C1509  C491    1.423   1_556 S
C1509  C467    1.405   1_556 S
C1510  C1511   1.393   .     A
C1510  O1567   1.383   .     S
C1511  O1569   1.386   .     S
H1517  C1829   1.108   .     S
H1526  C467    1.083   1_556 S
H1533  C480    1.117   1_556 S
H1559  C1828   1.110   .     S
O1560  Zn1579  1.956   .     S
O1560  Zn1580  1.942   .     S
O1560  Zn1582  1.933   .     S
O1560  Zn1581  1.945   .     S
O1561  Zn1580  1.939   .     S
O1562  Zn1582  1.944   .     S
O1563  Zn1581  1.938   .     S
O1564  Zn1579  1.933   .     S
O1565  C1589   1.396   .     S
O1566  C1829   1.418   .     S
O1566  C1817   1.400   .     S
O1571  Zn1579  1.928   .     S
O1572  Zn1582  1.933   .     S
O1573  Zn1580  1.929   .     S
O1574  Zn1581  1.935   .     S
O1575  Zn1582  1.933   .     S
O1576  Zn1579  1.929   .     S
O1577  Zn1580  1.935   .     S
O1578  Zn1581  1.928   .     S
C1583  O1688   1.269   .     A
C1583  C1589   1.438   .     S
C1583  O1686   1.263   .     A
C1584  H1650   1.078   .     S
C1584  C1621   1.402   .     A
C1584  C1598   1.390   .     A
C1585  F1625   1.358   .     S
C1585  C1597   1.389   .     A
C1585  C1598   1.395   .     A
C1586  O1689   1.277   .     A
C1586  C1588   1.461   .     S
C1586  O1687   1.287   .     A
C1587  C1599   1.410   .     A
C1587  C1596   1.490   .     S
C1587  C1620   1.424   .     A
C1588  C1363   1.352   1_655 S
C1588  O1457   1.388   1_655 S
C1590  C1593   1.453   .     S
C1590  C1930   1.345   .     S
C1590  H1967   1.088   .     S
C1591  C1592   1.440   .     S
C1592  O1690   1.278   .     A
C1592  O1684   1.269   .     A
C1593  O1691   1.281   .     A
C1593  O1685   1.267   .     A
C1594  C1599   1.395   .     A
C1594  C588    1.393   1_556 S
C1594  O664    1.384   1_556 S
C1595  O1674   1.271   .     A
C1595  O1676   1.275   .     A
C1595  C1598   1.443   .     S
C1596  O1675   1.283   .     A
C1596  O1677   1.286   .     A
C1599  F1626   1.359   .     S
C1600  O1678   1.417   .     S
C1600  C1601   1.535   .     S
C1600  H1661   1.107   .     S
C1600  H1442   1.111   1_655 S
C1601  C1602   1.526   .     S
C1601  H1670   1.111   .     S
C1601  H1669   1.112   .     S
C1602  H1629   1.108   .     S
C1602  H1445   1.109   1_655 S
C1603  H1631   1.114   .     S
C1603  C1604   1.533   .     S
C1604  H1632   1.112   .     S
C1604  C1606   1.526   .     S
C1604  H1633   1.108   .     S
C1605  F1627   1.356   .     S
C1606  H1634   1.111   .     S
C1606  H1636   1.111   .     S
C1606  H1635   1.111   .     S
C1607  H1638   1.120   .     S
C1607  C1608   1.527   .     S
C1607  H1637   1.112   .     S
C1607  O1680   1.419   .     S
C1608  H1640   1.109   .     S
C1608  H1641   1.112   .     S
C1609  H1643   1.110   .     S
C1609  H1644   1.110   .     S
C1609  C1947   1.528   .     S
C1609  H1981   1.111   .     S
C1610  O1681   1.417   .     S
C1610  C1611   1.534   .     S
C1610  H1645   1.111   .     S
C1611  H1647   1.112   .     S
C1611  H1648   1.111   .     S
C1611  C1951   1.527   .     S
C1612  H1649   1.111   .     S
C1612  H1652   1.111   .     S
C1612  H1651   1.111   .     S
C1613  H1653   1.116   .     S
C1613  C1614   1.526   .     S
C1613  O1682   1.415   .     S
C1613  H1654   1.113   .     S
C1614  H1656   1.111   .     S
C1614  H1655   1.109   .     S
C1614  C1615   1.523   .     S
C1615  H1657   1.107   .     S
C1615  H1659   1.111   .     S
C1615  H1432   1.109   1_655 S
C1616  C1620   1.422   .     A
C1616  C588    1.421   1_556 S
C1616  C604    1.426   1_556 S
C1617  C1618   1.529   .     S
C1617  H1662   1.113   .     S
C1617  O1683   1.412   .     S
C1617  H1660   1.116   .     S
C1618  C1619   1.525   .     S
C1618  H1664   1.112   .     S
C1618  H1663   1.112   .     S
C1619  H1667   1.110   .     S
C1619  H1666   1.111   .     S
C1619  H1665   1.110   .     S
C1620  C1624   1.418   .     A
C1622  C1623   1.395   .     A
C1622  C604    1.423   1_556 S
C1622  C580    1.405   1_556 S
C1623  C1624   1.393   .     A
C1623  O1680   1.383   .     S
C1624  O1682   1.386   .     S
H1630  C1942   1.108   .     S
H1639  C580    1.083   1_556 S
H1646  C593    1.117   1_556 S
H1672  C1941   1.110   .     S
O1673  Zn1692  1.956   .     S
O1673  Zn1693  1.942   .     S
O1673  Zn1695  1.933   .     S
O1673  Zn1694  1.945   .     S
O1674  Zn1693  1.939   .     S
O1675  Zn1695  1.944   .     S
O1676  Zn1694  1.938   .     S
O1677  Zn1692  1.933   .     S
O1678  C1363   1.396   1_655 S
O1679  C1942   1.418   .     S
O1679  C1930   1.400   .     S
O1684  Zn1692  1.928   .     S
O1685  Zn1695  1.933   .     S
O1686  Zn1693  1.929   .     S
O1687  Zn1694  1.935   .     S
O1688  Zn1695  1.933   .     S
O1689  Zn1692  1.929   .     S
O1690  Zn1693  1.935   .     S
O1691  Zn1694  1.928   .     S
C1696  O1801   1.269   .     A
C1696  C1702   1.438   .     S
C1696  O1799   1.263   .     A
C1697  H1763   1.078   .     S
C1697  C1734   1.402   .     A
C1697  C1711   1.390   .     A
C1698  F1738   1.358   .     S
C1698  C1710   1.389   .     A
C1698  C1711   1.395   .     A
C1699  O1802   1.277   .     A
C1699  C1701   1.461   .     S
C1699  O1800   1.287   .     A
C1700  C1712   1.410   .     A
C1700  C1709   1.490   .     S
C1700  C1733   1.424   .     A
C1701  C1815   1.352   .     S
C1701  O1909   1.388   .     S
C1702  C1927   1.352   1_455 S
C1702  O2017   1.396   1_455 S
C1703  C1706   1.453   .     S
C1703  C1026   1.345   1_565 S
C1703  H1063   1.088   1_565 S
C1704  C1705   1.440   .     S
C1705  O1803   1.278   .     A
C1705  O1797   1.269   .     A
C1706  O1804   1.281   .     A
C1706  O1798   1.267   .     A
C1707  C1712   1.395   .     A
C1707  C701    1.393   1_556 S
C1707  O777    1.384   1_556 S
C1708  O1787   1.271   .     A
C1708  O1789   1.275   .     A
C1708  C1711   1.443   .     S
C1709  O1788   1.283   .     A
C1709  O1790   1.286   .     A
C1712  F1739   1.359   .     S
C1713  O1791   1.417   .     S
C1713  C1714   1.535   .     S
C1713  H1774   1.107   .     S
C1713  H1894   1.111   .     S
C1714  C1715   1.526   .     S
C1714  H1783   1.111   .     S
C1714  H1782   1.112   .     S
C1715  H1742   1.108   .     S
C1715  H1897   1.109   .     S
C1716  H1744   1.114   .     S
C1716  C1717   1.533   .     S
C1717  H1745   1.112   .     S
C1717  C1719   1.526   .     S
C1717  H1746   1.108   .     S
C1718  F1740   1.356   .     S
C1719  H1747   1.111   .     S
C1719  H1749   1.111   .     S
C1719  H1748   1.111   .     S
C1720  H1751   1.120   .     S
C1720  C1721   1.527   .     S
C1720  H1750   1.112   .     S
C1720  O1793   1.419   .     S
C1721  H1753   1.109   .     S
C1721  H1754   1.112   .     S
C1722  H1756   1.110   .     S
C1722  H1757   1.110   .     S
C1722  C1043   1.528   1_565 S
C1722  H1077   1.111   1_565 S
C1723  O1794   1.417   .     S
C1723  C1724   1.534   .     S
C1723  H1758   1.111   .     S
C1724  H1760   1.112   .     S
C1724  H1761   1.111   .     S
C1724  C1047   1.527   1_565 S
C1725  H1762   1.111   .     S
C1725  H1765   1.111   .     S
C1725  H1764   1.111   .     S
C1726  H1766   1.116   .     S
C1726  C1727   1.526   .     S
C1726  O1795   1.415   .     S
C1726  H1767   1.113   .     S
C1727  H1769   1.111   .     S
C1727  H1768   1.109   .     S
C1727  C1728   1.523   .     S
C1728  H1770   1.107   .     S
C1728  H1772   1.111   .     S
C1728  H1884   1.109   .     S
C1729  C1733   1.422   .     A
C1729  C701    1.421   1_556 S
C1729  C717    1.426   1_556 S
C1730  C1731   1.529   .     S
C1730  H1775   1.113   .     S
C1730  O1796   1.412   .     S
C1730  H1773   1.116   .     S
C1731  C1732   1.525   .     S
C1731  H1777   1.112   .     S
C1731  H1776   1.112   .     S
C1732  H1780   1.110   .     S
C1732  H1779   1.111   .     S
C1732  H1778   1.110   .     S
C1733  C1737   1.418   .     A
C1735  C1736   1.395   .     A
C1735  C717    1.423   1_556 S
C1735  C693    1.405   1_556 S
C1736  C1737   1.393   .     A
C1736  O1793   1.383   .     S
C1737  O1795   1.386   .     S
H1743  C1038   1.108   1_565 S
H1752  C693    1.083   1_556 S
H1759  C706    1.117   1_556 S
H1771  C1954   1.109   1_455 S
H1781  C1939   1.111   1_455 S
H1784  C1941   1.109   1_455 S
H1785  C1037   1.110   1_565 S
O1786  Zn1805  1.956   .     S
O1786  Zn1806  1.942   .     S
O1786  Zn1808  1.933   .     S
O1786  Zn1807  1.945   .     S
O1787  Zn1806  1.939   .     S
O1788  Zn1808  1.944   .     S
O1789  Zn1807  1.938   .     S
O1790  Zn1805  1.933   .     S
O1791  C1815   1.396   .     S
O1792  C1038   1.418   1_565 S
O1792  C1026   1.400   1_565 S
O1796  C1927   1.388   1_455 S
O1797  Zn1805  1.928   .     S
O1798  Zn1808  1.933   .     S
O1799  Zn1806  1.929   .     S
O1800  Zn1807  1.935   .     S
O1801  Zn1808  1.933   .     S
O1802  Zn1805  1.929   .     S
O1803  Zn1806  1.935   .     S
O1804  Zn1807  1.928   .     S
C1809  O1914   1.269   .     A
C1809  C1815   1.438   .     S
C1809  O1912   1.263   .     A
C1810  H1876   1.078   .     S
C1810  C1847   1.402   .     A
C1810  C1824   1.390   .     A
C1811  F1851   1.358   .     S
C1811  C1823   1.389   .     A
C1811  C1824   1.395   .     A
C1812  O1915   1.277   .     A
C1812  C1814   1.461   .     S
C1812  O1913   1.287   .     A
C1813  C1825   1.410   .     A
C1813  C1822   1.490   .     S
C1813  C1846   1.424   .     A
C1814  C1928   1.352   .     S
C1814  O2022   1.388   .     S
C1816  C1819   1.453   .     S
C1816  C1139   1.345   1_565 S
C1816  H1176   1.088   1_565 S
C1817  C1818   1.440   .     S
C1818  O1916   1.278   .     A
C1818  O1910   1.269   .     A
C1819  O1917   1.281   .     A
C1819  O1911   1.267   .     A
C1820  C1825   1.395   .     A
C1820  C814    1.393   1_556 S
C1820  O890    1.384   1_556 S
C1821  O1900   1.271   .     A
C1821  O1902   1.275   .     A
C1821  C1824   1.443   .     S
C1822  O1901   1.283   .     A
C1822  O1903   1.286   .     A
C1825  F1852   1.359   .     S
C1826  O1904   1.417   .     S
C1826  C1827   1.535   .     S
C1826  H1887   1.107   .     S
C1826  H2007   1.111   .     S
C1827  C1828   1.526   .     S
C1827  H1896   1.111   .     S
C1827  H1895   1.112   .     S
C1828  H1855   1.108   .     S
C1828  H2010   1.109   .     S
C1829  H1857   1.114   .     S
C1829  C1830   1.533   .     S
C1830  H1858   1.112   .     S
C1830  C1832   1.526   .     S
C1830  H1859   1.108   .     S
C1831  F1853   1.356   .     S
C1832  H1860   1.111   .     S
C1832  H1862   1.111   .     S
C1832  H1861   1.111   .     S
C1833  H1864   1.120   .     S
C1833  C1834   1.527   .     S
C1833  H1863   1.112   .     S
C1833  O1906   1.419   .     S
C1834  H1866   1.109   .     S
C1834  H1867   1.112   .     S
C1835  H1869   1.110   .     S
C1835  H1870   1.110   .     S
C1835  C1156   1.528   1_565 S
C1835  H1190   1.111   1_565 S
C1836  O1907   1.417   .     S
C1836  C1837   1.534   .     S
C1836  H1871   1.111   .     S
C1837  H1873   1.112   .     S
C1837  H1874   1.111   .     S
C1837  C1160   1.527   1_565 S
C1838  H1875   1.111   .     S
C1838  H1878   1.111   .     S
C1838  H1877   1.111   .     S
C1839  H1879   1.116   .     S
C1839  C1840   1.526   .     S
C1839  O1908   1.415   .     S
C1839  H1880   1.113   .     S
C1840  H1882   1.111   .     S
C1840  H1881   1.109   .     S
C1840  C1841   1.523   .     S
C1841  H1883   1.107   .     S
C1841  H1885   1.111   .     S
C1841  H1997   1.109   .     S
C1842  C1846   1.422   .     A
C1842  C814    1.421   1_556 S
C1842  C830    1.426   1_556 S
C1843  C1844   1.529   .     S
C1843  H1888   1.113   .     S
C1843  O1909   1.412   .     S
C1843  H1886   1.116   .     S
C1844  C1845   1.525   .     S
C1844  H1890   1.112   .     S
C1844  H1889   1.112   .     S
C1845  H1893   1.110   .     S
C1845  H1892   1.111   .     S
C1845  H1891   1.110   .     S
C1846  C1850   1.418   .     A
C1848  C1849   1.395   .     A
C1848  C830    1.423   1_556 S
C1848  C806    1.405   1_556 S
C1849  C1850   1.393   .     A
C1849  O1906   1.383   .     S
C1850  O1908   1.386   .     S
H1856  C1151   1.108   1_565 S
H1865  C806    1.083   1_556 S
H1872  C819    1.117   1_556 S
H1898  C1150   1.110   1_565 S
O1899  Zn1918  1.956   .     S
O1899  Zn1919  1.942   .     S
O1899  Zn1921  1.933   .     S
O1899  Zn1920  1.945   .     S
O1900  Zn1919  1.939   .     S
O1901  Zn1921  1.944   .     S
O1902  Zn1920  1.938   .     S
O1903  Zn1918  1.933   .     S
O1904  C1928   1.396   .     S
O1905  C1151   1.418   1_565 S
O1905  C1139   1.400   1_565 S
O1910  Zn1918  1.928   .     S
O1911  Zn1921  1.933   .     S
O1912  Zn1919  1.929   .     S
O1913  Zn1920  1.935   .     S
O1914  Zn1921  1.933   .     S
O1915  Zn1918  1.929   .     S
O1916  Zn1919  1.935   .     S
O1917  Zn1920  1.928   .     S
C1922  O2027   1.269   .     A
C1922  C1928   1.438   .     S
C1922  O2025   1.263   .     A
C1923  H1989   1.078   .     S
C1923  C1960   1.402   .     A
C1923  C1937   1.390   .     A
C1924  F1964   1.358   .     S
C1924  C1936   1.389   .     A
C1924  C1937   1.395   .     A
C1925  O2028   1.277   .     A
C1925  C1927   1.461   .     S
C1925  O2026   1.287   .     A
C1926  C1938   1.410   .     A
C1926  C1935   1.490   .     S
C1926  C1959   1.424   .     A
C1927  C1702   1.352   1_655 S
C1927  O1796   1.388   1_655 S
C1929  C1932   1.453   .     S
C1929  C1252   1.345   1_565 S
C1929  H1289   1.088   1_565 S
C1930  C1931   1.440   .     S
C1931  O2029   1.278   .     A
C1931  O2023   1.269   .     A
C1932  O2030   1.281   .     A
C1932  O2024   1.267   .     A
C1933  C1938   1.395   .     A
C1933  C927    1.393   1_556 S
C1933  O1003   1.384   1_556 S
C1934  O2013   1.271   .     A
C1934  O2015   1.275   .     A
C1934  C1937   1.443   .     S
C1935  O2014   1.283   .     A
C1935  O2016   1.286   .     A
C1938  F1965   1.359   .     S
C1939  O2017   1.417   .     S
C1939  C1940   1.535   .     S
C1939  H2000   1.107   .     S
C1939  H1781   1.111   1_655 S
C1940  C1941   1.526   .     S
C1940  H2009   1.111   .     S
C1940  H2008   1.112   .     S
C1941  H1968   1.108   .     S
C1941  H1784   1.109   1_655 S
C1942  H1970   1.114   .     S
C1942  C1943   1.533   .     S
C1943  H1971   1.112   .     S
C1943  C1945   1.526   .     S
C1943  H1972   1.108   .     S
C1944  F1966   1.356   .     S
C1945  H1973   1.111   .     S
C1945  H1975   1.111   .     S
C1945  H1974   1.111   .     S
C1946  H1977   1.120   .     S
C1946  C1947   1.527   .     S
C1946  H1976   1.112   .     S
C1946  O2019   1.419   .     S
C1947  H1979   1.109   .     S
C1947  H1980   1.112   .     S
C1948  H1982   1.110   .     S
C1948  H1983   1.110   .     S
C1948  C1269   1.528   1_565 S
C1948  H1303   1.111   1_565 S
C1949  O2020   1.417   .     S
C1949  C1950   1.534   .     S
C1949  H1984   1.111   .     S
C1950  H1986   1.112   .     S
C1950  H1987   1.111   .     S
C1950  C1273   1.527   1_565 S
C1951  H1988   1.111   .     S
C1951  H1991   1.111   .     S
C1951  H1990   1.111   .     S
C1952  H1992   1.116   .     S
C1952  C1953   1.526   .     S
C1952  O2021   1.415   .     S
C1952  H1993   1.113   .     S
C1953  H1995   1.111   .     S
C1953  H1994   1.109   .     S
C1953  C1954   1.523   .     S
C1954  H1996   1.107   .     S
C1954  H1998   1.111   .     S
C1954  H1771   1.109   1_655 S
C1955  C1959   1.422   .     A
C1955  C927    1.421   1_556 S
C1955  C943    1.426   1_556 S
C1956  C1957   1.529   .     S
C1956  H2001   1.113   .     S
C1956  O2022   1.412   .     S
C1956  H1999   1.116   .     S
C1957  C1958   1.525   .     S
C1957  H2003   1.112   .     S
C1957  H2002   1.112   .     S
C1958  H2006   1.110   .     S
C1958  H2005   1.111   .     S
C1958  H2004   1.110   .     S
C1959  C1963   1.418   .     A
C1961  C1962   1.395   .     A
C1961  C943    1.423   1_556 S
C1961  C919    1.405   1_556 S
C1962  C1963   1.393   .     A
C1962  O2019   1.383   .     S
C1963  O2021   1.386   .     S
H1969  C1264   1.108   1_565 S
H1978  C919    1.083   1_556 S
H1985  C932    1.117   1_556 S
H2011  C1263   1.110   1_565 S
O2012  Zn2031  1.956   .     S
O2012  Zn2032  1.942   .     S
O2012  Zn2034  1.933   .     S
O2012  Zn2033  1.945   .     S
O2013  Zn2032  1.939   .     S
O2014  Zn2034  1.944   .     S
O2015  Zn2033  1.938   .     S
O2016  Zn2031  1.933   .     S
O2017  C1702   1.396   1_655 S
O2018  C1264   1.418   1_565 S
O2018  C1252   1.400   1_565 S
O2023  Zn2031  1.928   .     S
O2024  Zn2034  1.933   .     S
O2025  Zn2032  1.929   .     S
O2026  Zn2033  1.935   .     S
O2027  Zn2034  1.933   .     S
O2028  Zn2031  1.929   .     S
O2029  Zn2032  1.935   .     S
O2030  Zn2033  1.928   .     S
