data_str_m2_o1_o17_pcu_sym.161
_audit_creation_date              2020-01-03
_audit_creation_method            'Materials Studio'
_symmetry_space_group_name_H-M    'P1'
_symmetry_Int_Tables_number       1
_symmetry_cell_setting            triclinic
loop_
_symmetry_equiv_pos_as_xyz
  x,y,z
_cell_length_a                    32.8535
_cell_length_b                    28.8590
_cell_length_c                    30.1313
_cell_angle_alpha                 90.7773
_cell_angle_beta                  91.6543
_cell_angle_gamma                 89.6636
loop_
_atom_site_label
_atom_site_type_symbol
_atom_site_fract_x
_atom_site_fract_y
_atom_site_fract_z
_atom_site_U_iso_or_equiv
_atom_site_adp_type
_atom_site_occupancy
C1     C     0.08728   0.16716   0.24868   0.00000  Uiso   1.00
C2     C     0.24577   0.16685   0.24966   0.00000  Uiso   1.00
C3     C     0.10653   0.11735   0.02211   0.00000  Uiso   1.00
C4     C     0.24334   0.18259   0.48038   0.00000  Uiso   1.00
C5     C     0.02022   0.12692   0.24910   0.00000  Uiso   1.00
C6     C     0.31091   0.20880   0.23592   0.00000  Uiso   1.00
C7     C     0.31323   0.12882   0.26105   0.00000  Uiso   1.00
C8     C     0.01961   0.21165   0.24662   0.00000  Uiso   1.00
C9     C     0.29022   0.16810   0.24873   0.00000  Uiso   1.00
C10    C     0.04226   0.16888   0.24792   0.00000  Uiso   1.00
C11    C     0.15188   0.02449   0.21408   0.00000  Uiso   1.00
C12    C     0.18396   0.30914   0.28477   0.00000  Uiso   1.00
C13    C     0.18233   0.02527   0.28564   0.00000  Uiso   1.00
C14    C     0.14992   0.30852   0.21499   0.00000  Uiso   1.00
C15    C     0.16909   0.16605   0.16470   0.00000  Uiso   1.00
C16    C     0.16641   0.16682   0.33558   0.00000  Uiso   1.00
C17    C     0.20401   0.17865   0.40804   0.00000  Uiso   1.00
C18    C     0.13391   0.15490   0.09121   0.00000  Uiso   1.00
C19    C     0.16767   0.16629   0.38435   0.00000  Uiso   1.00
C20    C     0.17024   0.16353   0.11630   0.00000  Uiso   1.00
C21    C     0.13364   0.14973   0.40675   0.00000  Uiso   1.00
C22    C     0.20784   0.16188   0.09473   0.00000  Uiso   1.00
C23    C     0.13718   0.14116   0.45276   0.00000  Uiso   1.00
C24    C     0.20713   0.16953   0.04864   0.00000  Uiso   1.00
C25    C     0.17213   0.15694   0.47692   0.00000  Uiso   1.00
C26    C     0.17203   0.15667   0.02365   0.00000  Uiso   1.00
C27    C     0.20695   0.17280   0.45470   0.00000  Uiso   1.00
C28    C     0.13677   0.14308   0.04583   0.00000  Uiso   1.00
C29    C     0.10721   0.11611   0.47527   0.00000  Uiso   1.00
C30    C     0.24180   0.18523   0.02686   0.00000  Uiso   1.00
Cu31   Cu    0.16667   0.21355   0.25000   0.00000  Uiso   1.00
Cu32   Cu    0.16667   0.11978   0.25000   0.00000  Uiso   1.00
N33    N     0.16667   0.28402   0.25000   0.00000  Uiso   1.00
N34    N     0.16667   0.04931   0.25000   0.00000  Uiso   1.00
O35    O     0.10655   0.20625   0.25000   0.00000  Uiso   1.00
O36    O     0.22679   0.12709   0.25001   0.00000  Uiso   1.00
O37    O     0.22679   0.20625   0.25001   0.00000  Uiso   1.00
O38    O     0.10655   0.12709   0.25000   0.00000  Uiso   1.00
O39    O     0.16666   0.20627   0.18513   0.00000  Uiso   1.00
O40    O     0.16668   0.12707   0.31487   0.00000  Uiso   1.00
O41    O     0.16668   0.20627   0.31487   0.00000  Uiso   1.00
O42    O     0.16666   0.12707   0.18513   0.00000  Uiso   1.00
O43    O     0.23511   0.20093   0.38709   0.00000  Uiso   1.00
H44    H     0.23436   0.19404   0.35491   0.00000  Uiso   1.00
O45    O     0.09576   0.15792   0.10943   0.00000  Uiso   1.00
H46    H     0.09764   0.17277   0.13919   0.00000  Uiso   1.00
S47    S     0.08497   0.14909   0.37860   0.00000  Uiso   1.00
O48    O     0.07894   0.10340   0.35490   0.00000  Uiso   1.00
O49    O     0.05123   0.15721   0.41046   0.00000  Uiso   1.00
O50    O     0.08202   0.19174   0.34183   0.00000  Uiso   1.00
H51    H     0.05248   0.19828   0.33825   0.00000  Uiso   1.00
S52    S     0.25061   0.13070   0.11800   0.00000  Uiso   1.00
O53    O     0.26974   0.10263   0.08165   0.00000  Uiso   1.00
O54    O     0.28224   0.16292   0.13746   0.00000  Uiso   1.00
O55    O     0.23648   0.09389   0.15735   0.00000  Uiso   1.00
H56    H     0.26225   0.08049   0.16946   0.00000  Uiso   1.00
O57    O     0.08185   0.08665   0.45117   0.00000  Uiso   1.00
H58    H     0.05441   0.08874   0.46388   0.00000  Uiso   1.00
O59    O     0.27397   0.20557   0.05014   0.00000  Uiso   1.00
H60    H     0.26341   0.22072   0.07721   0.00000  Uiso   1.00
S61    S     0.07351   0.07921   0.05019   0.00000  Uiso   1.00
O62    O     0.09249   0.06532   0.09388   0.00000  Uiso   1.00
O63    O     0.03376   0.10362   0.05795   0.00000  Uiso   1.00
O64    O     0.06465   0.03041   0.02032   0.00000  Uiso   1.00
H65    H     0.04451   0.01309   0.03734   0.00000  Uiso   1.00
S66    S     0.29256   0.18697   0.45711   0.00000  Uiso   1.00
O67    O     0.29684   0.15218   0.41998   0.00000  Uiso   1.00
O68    O     0.29791   0.23507   0.43967   0.00000  Uiso   1.00
O69    O     0.32954   0.17625   0.49554   0.00000  Uiso   1.00
H70    H     0.02023   0.19365   0.48595   0.00000  Uiso   1.00
S71    S     0.03742   0.07435   0.22469   0.00000  Uiso   1.00
O72    O     0.06492   0.04905   0.25697   0.00000  Uiso   1.00
O73    O     0.00223   0.04366   0.21140   0.00000  Uiso   1.00
O74    O     0.06275   0.08694   0.17889   0.00000  Uiso   1.00
H75    H     0.04255   0.10318   0.15955   0.00000  Uiso   1.00
S76    S     0.28638   0.25462   0.20475   0.00000  Uiso   1.00
O77    O     0.26986   0.29043   0.23615   0.00000  Uiso   1.00
O78    O     0.31622   0.27704   0.17505   0.00000  Uiso   1.00
O79    O     0.24744   0.23543   0.17232   0.00000  Uiso   1.00
H80    H     0.23551   0.26355   0.15851   0.00000  Uiso   1.00
S81    S     0.29542   0.08565   0.29708   0.00000  Uiso   1.00
O82    O     0.27199   0.04965   0.27076   0.00000  Uiso   1.00
O83    O     0.33087   0.06278   0.32085   0.00000  Uiso   1.00
O84    O     0.26518   0.11040   0.33482   0.00000  Uiso   1.00
H85    H     0.26539   0.08868   0.35999   0.00000  Uiso   1.00
S86    S     0.03951   0.26827   0.26072   0.00000  Uiso   1.00
O87    O     0.05263   0.29099   0.21907   0.00000  Uiso   1.00
O88    O     0.00645   0.29717   0.28076   0.00000  Uiso   1.00
O89    O     0.07870   0.26920   0.29782   0.00000  Uiso   1.00
H90    H     0.08704   0.30208   0.30018   0.00000  Uiso   1.00
O91    O     0.13760   0.04808   0.17750   0.00000  Uiso   1.00
H92    H     0.13658   0.02686   0.15144   0.00000  Uiso   1.00
O93    O     0.20411   0.28740   0.31928   0.00000  Uiso   1.00
H94    H     0.21962   0.26148   0.30644   0.00000  Uiso   1.00
O95    O     0.19866   0.04986   0.32130   0.00000  Uiso   1.00
H96    H     0.20507   0.02906   0.34641   0.00000  Uiso   1.00
O97    O     0.13026   0.28644   0.17992   0.00000  Uiso   1.00
H98    H     0.11590   0.25975   0.19187   0.00000  Uiso   1.00
C99    C     0.42061   0.16716   0.24868   0.00000  Uiso   1.00
C100   C     0.57910   0.16685   0.24966   0.00000  Uiso   1.00
C101   C     0.43986   0.11735   0.02211   0.00000  Uiso   1.00
C102   C     0.57667   0.18259   0.48038   0.00000  Uiso   1.00
C103   C     0.35356   0.12692   0.24910   0.00000  Uiso   1.00
C104   C     0.64424   0.20880   0.23592   0.00000  Uiso   1.00
C105   C     0.64656   0.12882   0.26105   0.00000  Uiso   1.00
C106   C     0.35295   0.21165   0.24662   0.00000  Uiso   1.00
C107   C     0.62355   0.16810   0.24873   0.00000  Uiso   1.00
C108   C     0.37559   0.16888   0.24792   0.00000  Uiso   1.00
C109   C     0.48522   0.02449   0.21408   0.00000  Uiso   1.00
C110   C     0.51729   0.30914   0.28477   0.00000  Uiso   1.00
C111   C     0.51566   0.02527   0.28564   0.00000  Uiso   1.00
C112   C     0.48325   0.30852   0.21499   0.00000  Uiso   1.00
C113   C     0.50242   0.16605   0.16470   0.00000  Uiso   1.00
C114   C     0.49974   0.16682   0.33558   0.00000  Uiso   1.00
C115   C     0.53734   0.17865   0.40804   0.00000  Uiso   1.00
C116   C     0.46724   0.15490   0.09121   0.00000  Uiso   1.00
C117   C     0.50101   0.16629   0.38435   0.00000  Uiso   1.00
C118   C     0.50358   0.16353   0.11630   0.00000  Uiso   1.00
C119   C     0.46697   0.14973   0.40675   0.00000  Uiso   1.00
C120   C     0.54117   0.16188   0.09473   0.00000  Uiso   1.00
C121   C     0.47052   0.14116   0.45276   0.00000  Uiso   1.00
C122   C     0.54047   0.16953   0.04864   0.00000  Uiso   1.00
C123   C     0.50547   0.15694   0.47692   0.00000  Uiso   1.00
C124   C     0.50537   0.15667   0.02365   0.00000  Uiso   1.00
C125   C     0.54029   0.17280   0.45470   0.00000  Uiso   1.00
C126   C     0.47011   0.14308   0.04583   0.00000  Uiso   1.00
C127   C     0.44055   0.11611   0.47527   0.00000  Uiso   1.00
C128   C     0.57513   0.18523   0.02686   0.00000  Uiso   1.00
Cu129  Cu    0.50000   0.21355   0.25000   0.00000  Uiso   1.00
Cu130  Cu    0.50000   0.11978   0.25000   0.00000  Uiso   1.00
N131   N     0.50000   0.28402   0.25000   0.00000  Uiso   1.00
N132   N     0.50000   0.04931   0.25000   0.00000  Uiso   1.00
O133   O     0.43988   0.20625   0.25000   0.00000  Uiso   1.00
O134   O     0.56012   0.12709   0.25001   0.00000  Uiso   1.00
O135   O     0.56012   0.20625   0.25001   0.00000  Uiso   1.00
O136   O     0.43988   0.12709   0.25000   0.00000  Uiso   1.00
O137   O     0.49999   0.20627   0.18513   0.00000  Uiso   1.00
O138   O     0.50001   0.12707   0.31487   0.00000  Uiso   1.00
O139   O     0.50001   0.20627   0.31487   0.00000  Uiso   1.00
O140   O     0.49999   0.12707   0.18513   0.00000  Uiso   1.00
O141   O     0.56844   0.20093   0.38709   0.00000  Uiso   1.00
H142   H     0.56770   0.19404   0.35491   0.00000  Uiso   1.00
O143   O     0.42910   0.15792   0.10943   0.00000  Uiso   1.00
H144   H     0.43097   0.17277   0.13919   0.00000  Uiso   1.00
S145   S     0.41830   0.14909   0.37860   0.00000  Uiso   1.00
O146   O     0.41227   0.10340   0.35490   0.00000  Uiso   1.00
O147   O     0.38456   0.15721   0.41046   0.00000  Uiso   1.00
O148   O     0.41535   0.19174   0.34183   0.00000  Uiso   1.00
H149   H     0.38581   0.19828   0.33825   0.00000  Uiso   1.00
S150   S     0.58394   0.13070   0.11800   0.00000  Uiso   1.00
O151   O     0.60307   0.10263   0.08165   0.00000  Uiso   1.00
O152   O     0.61557   0.16292   0.13746   0.00000  Uiso   1.00
O153   O     0.56982   0.09389   0.15735   0.00000  Uiso   1.00
H154   H     0.59558   0.08049   0.16946   0.00000  Uiso   1.00
O155   O     0.41518   0.08665   0.45117   0.00000  Uiso   1.00
H156   H     0.38774   0.08874   0.46388   0.00000  Uiso   1.00
O157   O     0.60731   0.20557   0.05014   0.00000  Uiso   1.00
H158   H     0.59675   0.22072   0.07721   0.00000  Uiso   1.00
S159   S     0.40684   0.07921   0.05019   0.00000  Uiso   1.00
O160   O     0.42583   0.06532   0.09388   0.00000  Uiso   1.00
O161   O     0.36710   0.10362   0.05795   0.00000  Uiso   1.00
O162   O     0.39799   0.03041   0.02032   0.00000  Uiso   1.00
H163   H     0.37784   0.01309   0.03734   0.00000  Uiso   1.00
S164   S     0.62589   0.18697   0.45711   0.00000  Uiso   1.00
O165   O     0.63017   0.15218   0.41998   0.00000  Uiso   1.00
O166   O     0.63125   0.23507   0.43967   0.00000  Uiso   1.00
O167   O     0.66287   0.17625   0.49554   0.00000  Uiso   1.00
H168   H     0.35356   0.19365   0.48595   0.00000  Uiso   1.00
S169   S     0.37075   0.07435   0.22469   0.00000  Uiso   1.00
O170   O     0.39826   0.04905   0.25697   0.00000  Uiso   1.00
O171   O     0.33556   0.04366   0.21140   0.00000  Uiso   1.00
O172   O     0.39609   0.08694   0.17889   0.00000  Uiso   1.00
H173   H     0.37588   0.10318   0.15955   0.00000  Uiso   1.00
S174   S     0.61972   0.25462   0.20475   0.00000  Uiso   1.00
O175   O     0.60319   0.29043   0.23615   0.00000  Uiso   1.00
O176   O     0.64955   0.27704   0.17505   0.00000  Uiso   1.00
O177   O     0.58078   0.23543   0.17232   0.00000  Uiso   1.00
H178   H     0.56885   0.26355   0.15851   0.00000  Uiso   1.00
S179   S     0.62875   0.08565   0.29708   0.00000  Uiso   1.00
O180   O     0.60533   0.04965   0.27076   0.00000  Uiso   1.00
O181   O     0.66421   0.06278   0.32085   0.00000  Uiso   1.00
O182   O     0.59852   0.11040   0.33482   0.00000  Uiso   1.00
H183   H     0.59872   0.08868   0.35999   0.00000  Uiso   1.00
S184   S     0.37284   0.26827   0.26072   0.00000  Uiso   1.00
O185   O     0.38596   0.29099   0.21907   0.00000  Uiso   1.00
O186   O     0.33978   0.29717   0.28076   0.00000  Uiso   1.00
O187   O     0.41203   0.26920   0.29782   0.00000  Uiso   1.00
H188   H     0.42037   0.30208   0.30018   0.00000  Uiso   1.00
O189   O     0.47093   0.04808   0.17750   0.00000  Uiso   1.00
H190   H     0.46991   0.02686   0.15144   0.00000  Uiso   1.00
O191   O     0.53744   0.28740   0.31928   0.00000  Uiso   1.00
H192   H     0.55295   0.26148   0.30644   0.00000  Uiso   1.00
O193   O     0.53200   0.04986   0.32130   0.00000  Uiso   1.00
H194   H     0.53841   0.02906   0.34641   0.00000  Uiso   1.00
O195   O     0.46359   0.28644   0.17992   0.00000  Uiso   1.00
H196   H     0.44924   0.25975   0.19187   0.00000  Uiso   1.00
C197   C     0.75394   0.16716   0.24868   0.00000  Uiso   1.00
C198   C     0.91243   0.16685   0.24966   0.00000  Uiso   1.00
C199   C     0.77319   0.11735   0.02211   0.00000  Uiso   1.00
C200   C     0.91000   0.18259   0.48038   0.00000  Uiso   1.00
C201   C     0.68689   0.12692   0.24910   0.00000  Uiso   1.00
C202   C     0.97758   0.20880   0.23592   0.00000  Uiso   1.00
C203   C     0.97989   0.12882   0.26105   0.00000  Uiso   1.00
C204   C     0.68628   0.21165   0.24662   0.00000  Uiso   1.00
C205   C     0.95688   0.16810   0.24873   0.00000  Uiso   1.00
C206   C     0.70893   0.16888   0.24792   0.00000  Uiso   1.00
C207   C     0.81855   0.02449   0.21408   0.00000  Uiso   1.00
C208   C     0.85063   0.30914   0.28477   0.00000  Uiso   1.00
C209   C     0.84899   0.02527   0.28564   0.00000  Uiso   1.00
C210   C     0.81659   0.30852   0.21499   0.00000  Uiso   1.00
C211   C     0.83575   0.16605   0.16470   0.00000  Uiso   1.00
C212   C     0.83308   0.16682   0.33558   0.00000  Uiso   1.00
C213   C     0.87067   0.17865   0.40804   0.00000  Uiso   1.00
C214   C     0.80057   0.15490   0.09121   0.00000  Uiso   1.00
C215   C     0.83434   0.16629   0.38435   0.00000  Uiso   1.00
C216   C     0.83691   0.16353   0.11630   0.00000  Uiso   1.00
C217   C     0.80031   0.14973   0.40675   0.00000  Uiso   1.00
C218   C     0.87450   0.16188   0.09473   0.00000  Uiso   1.00
C219   C     0.80385   0.14116   0.45276   0.00000  Uiso   1.00
C220   C     0.87380   0.16953   0.04864   0.00000  Uiso   1.00
C221   C     0.83880   0.15694   0.47692   0.00000  Uiso   1.00
C222   C     0.83870   0.15667   0.02365   0.00000  Uiso   1.00
C223   C     0.87362   0.17280   0.45470   0.00000  Uiso   1.00
C224   C     0.80344   0.14308   0.04583   0.00000  Uiso   1.00
C225   C     0.77388   0.11611   0.47527   0.00000  Uiso   1.00
C226   C     0.90846   0.18523   0.02686   0.00000  Uiso   1.00
Cu227  Cu    0.83333   0.21355   0.25000   0.00000  Uiso   1.00
Cu228  Cu    0.83333   0.11978   0.25000   0.00000  Uiso   1.00
N229   N     0.83333   0.28402   0.25000   0.00000  Uiso   1.00
N230   N     0.83333   0.04931   0.25000   0.00000  Uiso   1.00
O231   O     0.77321   0.20625   0.25000   0.00000  Uiso   1.00
O232   O     0.89345   0.12709   0.25001   0.00000  Uiso   1.00
O233   O     0.89345   0.20625   0.25001   0.00000  Uiso   1.00
O234   O     0.77321   0.12709   0.25000   0.00000  Uiso   1.00
O235   O     0.83332   0.20627   0.18513   0.00000  Uiso   1.00
O236   O     0.83334   0.12707   0.31487   0.00000  Uiso   1.00
O237   O     0.83334   0.20627   0.31487   0.00000  Uiso   1.00
O238   O     0.83332   0.12707   0.18513   0.00000  Uiso   1.00
O239   O     0.90177   0.20093   0.38709   0.00000  Uiso   1.00
H240   H     0.90103   0.19404   0.35491   0.00000  Uiso   1.00
O241   O     0.76243   0.15792   0.10943   0.00000  Uiso   1.00
H242   H     0.76430   0.17277   0.13919   0.00000  Uiso   1.00
S243   S     0.75163   0.14909   0.37860   0.00000  Uiso   1.00
O244   O     0.74560   0.10340   0.35490   0.00000  Uiso   1.00
O245   O     0.71789   0.15721   0.41046   0.00000  Uiso   1.00
O246   O     0.74868   0.19174   0.34183   0.00000  Uiso   1.00
H247   H     0.71914   0.19828   0.33825   0.00000  Uiso   1.00
S248   S     0.91727   0.13070   0.11800   0.00000  Uiso   1.00
O249   O     0.93641   0.10263   0.08165   0.00000  Uiso   1.00
O250   O     0.94891   0.16292   0.13746   0.00000  Uiso   1.00
O251   O     0.90315   0.09389   0.15735   0.00000  Uiso   1.00
H252   H     0.92892   0.08049   0.16946   0.00000  Uiso   1.00
O253   O     0.74852   0.08665   0.45117   0.00000  Uiso   1.00
H254   H     0.72108   0.08874   0.46388   0.00000  Uiso   1.00
O255   O     0.94064   0.20557   0.05014   0.00000  Uiso   1.00
H256   H     0.93008   0.22072   0.07721   0.00000  Uiso   1.00
S257   S     0.74018   0.07921   0.05019   0.00000  Uiso   1.00
O258   O     0.75916   0.06532   0.09388   0.00000  Uiso   1.00
O259   O     0.70043   0.10362   0.05795   0.00000  Uiso   1.00
O260   O     0.73132   0.03041   0.02032   0.00000  Uiso   1.00
H261   H     0.71117   0.01309   0.03734   0.00000  Uiso   1.00
S262   S     0.95922   0.18697   0.45711   0.00000  Uiso   1.00
O263   O     0.96351   0.15218   0.41998   0.00000  Uiso   1.00
O264   O     0.96458   0.23507   0.43967   0.00000  Uiso   1.00
O265   O     0.99620   0.17625   0.49554   0.00000  Uiso   1.00
H266   H     0.68690   0.19365   0.48595   0.00000  Uiso   1.00
S267   S     0.70409   0.07435   0.22469   0.00000  Uiso   1.00
O268   O     0.73159   0.04905   0.25697   0.00000  Uiso   1.00
O269   O     0.66889   0.04366   0.21140   0.00000  Uiso   1.00
O270   O     0.72942   0.08694   0.17889   0.00000  Uiso   1.00
H271   H     0.70921   0.10318   0.15955   0.00000  Uiso   1.00
S272   S     0.95305   0.25462   0.20475   0.00000  Uiso   1.00
O273   O     0.93652   0.29043   0.23615   0.00000  Uiso   1.00
O274   O     0.98289   0.27704   0.17505   0.00000  Uiso   1.00
O275   O     0.91411   0.23543   0.17232   0.00000  Uiso   1.00
H276   H     0.90218   0.26355   0.15851   0.00000  Uiso   1.00
S277   S     0.96209   0.08565   0.29708   0.00000  Uiso   1.00
O278   O     0.93866   0.04965   0.27076   0.00000  Uiso   1.00
O279   O     0.99754   0.06278   0.32085   0.00000  Uiso   1.00
O280   O     0.93185   0.11040   0.33482   0.00000  Uiso   1.00
H281   H     0.93206   0.08868   0.35999   0.00000  Uiso   1.00
S282   S     0.70618   0.26827   0.26072   0.00000  Uiso   1.00
O283   O     0.71929   0.29099   0.21907   0.00000  Uiso   1.00
O284   O     0.67311   0.29717   0.28076   0.00000  Uiso   1.00
O285   O     0.74537   0.26920   0.29782   0.00000  Uiso   1.00
H286   H     0.75370   0.30208   0.30018   0.00000  Uiso   1.00
O287   O     0.80426   0.04808   0.17750   0.00000  Uiso   1.00
H288   H     0.80324   0.02686   0.15144   0.00000  Uiso   1.00
O289   O     0.87078   0.28740   0.31928   0.00000  Uiso   1.00
H290   H     0.88629   0.26148   0.30644   0.00000  Uiso   1.00
O291   O     0.86533   0.04986   0.32130   0.00000  Uiso   1.00
H292   H     0.87174   0.02906   0.34641   0.00000  Uiso   1.00
O293   O     0.79692   0.28644   0.17992   0.00000  Uiso   1.00
H294   H     0.78257   0.25975   0.19187   0.00000  Uiso   1.00
C295   C     0.08728   0.50050   0.24868   0.00000  Uiso   1.00
C296   C     0.24577   0.50018   0.24966   0.00000  Uiso   1.00
C297   C     0.10653   0.45068   0.02211   0.00000  Uiso   1.00
C298   C     0.24334   0.51592   0.48038   0.00000  Uiso   1.00
C299   C     0.02022   0.46025   0.24910   0.00000  Uiso   1.00
C300   C     0.31091   0.54213   0.23592   0.00000  Uiso   1.00
C301   C     0.31323   0.46216   0.26105   0.00000  Uiso   1.00
C302   C     0.01961   0.54499   0.24662   0.00000  Uiso   1.00
C303   C     0.29022   0.50143   0.24873   0.00000  Uiso   1.00
C304   C     0.04226   0.50222   0.24792   0.00000  Uiso   1.00
C305   C     0.15188   0.35782   0.21408   0.00000  Uiso   1.00
C306   C     0.18396   0.64247   0.28477   0.00000  Uiso   1.00
C307   C     0.18233   0.35860   0.28564   0.00000  Uiso   1.00
C308   C     0.14992   0.64185   0.21499   0.00000  Uiso   1.00
C309   C     0.16909   0.49939   0.16470   0.00000  Uiso   1.00
C310   C     0.16641   0.50015   0.33558   0.00000  Uiso   1.00
C311   C     0.20401   0.51198   0.40804   0.00000  Uiso   1.00
C312   C     0.13391   0.48823   0.09121   0.00000  Uiso   1.00
C313   C     0.16767   0.49962   0.38435   0.00000  Uiso   1.00
C314   C     0.17024   0.49686   0.11630   0.00000  Uiso   1.00
C315   C     0.13364   0.48306   0.40675   0.00000  Uiso   1.00
C316   C     0.20784   0.49521   0.09473   0.00000  Uiso   1.00
C317   C     0.13718   0.47449   0.45276   0.00000  Uiso   1.00
C318   C     0.20713   0.50286   0.04864   0.00000  Uiso   1.00
C319   C     0.17213   0.49027   0.47692   0.00000  Uiso   1.00
C320   C     0.17203   0.49000   0.02365   0.00000  Uiso   1.00
C321   C     0.20695   0.50614   0.45470   0.00000  Uiso   1.00
C322   C     0.13677   0.47642   0.04583   0.00000  Uiso   1.00
C323   C     0.10721   0.44944   0.47527   0.00000  Uiso   1.00
C324   C     0.24180   0.51856   0.02686   0.00000  Uiso   1.00
Cu325  Cu    0.16667   0.54689   0.25000   0.00000  Uiso   1.00
Cu326  Cu    0.16667   0.45311   0.25000   0.00000  Uiso   1.00
N327   N     0.16667   0.61736   0.25000   0.00000  Uiso   1.00
N328   N     0.16667   0.38264   0.25000   0.00000  Uiso   1.00
O329   O     0.10655   0.53958   0.25000   0.00000  Uiso   1.00
O330   O     0.22679   0.46042   0.25001   0.00000  Uiso   1.00
O331   O     0.22679   0.53958   0.25001   0.00000  Uiso   1.00
O332   O     0.10655   0.46042   0.25000   0.00000  Uiso   1.00
O333   O     0.16666   0.53960   0.18513   0.00000  Uiso   1.00
O334   O     0.16668   0.46040   0.31487   0.00000  Uiso   1.00
O335   O     0.16668   0.53960   0.31487   0.00000  Uiso   1.00
O336   O     0.16666   0.46040   0.18513   0.00000  Uiso   1.00
O337   O     0.23511   0.53426   0.38709   0.00000  Uiso   1.00
H338   H     0.23436   0.52737   0.35491   0.00000  Uiso   1.00
O339   O     0.09576   0.49126   0.10943   0.00000  Uiso   1.00
H340   H     0.09764   0.50610   0.13919   0.00000  Uiso   1.00
S341   S     0.08497   0.48242   0.37860   0.00000  Uiso   1.00
O342   O     0.07894   0.43673   0.35490   0.00000  Uiso   1.00
O343   O     0.05123   0.49054   0.41046   0.00000  Uiso   1.00
O344   O     0.08202   0.52508   0.34183   0.00000  Uiso   1.00
H345   H     0.05248   0.53161   0.33825   0.00000  Uiso   1.00
S346   S     0.25061   0.46403   0.11800   0.00000  Uiso   1.00
O347   O     0.26974   0.43596   0.08165   0.00000  Uiso   1.00
O348   O     0.28224   0.49625   0.13746   0.00000  Uiso   1.00
O349   O     0.23648   0.42722   0.15735   0.00000  Uiso   1.00
H350   H     0.26225   0.41382   0.16946   0.00000  Uiso   1.00
O351   O     0.08185   0.41998   0.45117   0.00000  Uiso   1.00
H352   H     0.05441   0.42208   0.46388   0.00000  Uiso   1.00
O353   O     0.27397   0.53890   0.05014   0.00000  Uiso   1.00
H354   H     0.26341   0.55405   0.07721   0.00000  Uiso   1.00
S355   S     0.07351   0.41254   0.05019   0.00000  Uiso   1.00
O356   O     0.09249   0.39865   0.09388   0.00000  Uiso   1.00
O357   O     0.03376   0.43695   0.05795   0.00000  Uiso   1.00
O358   O     0.06465   0.36374   0.02032   0.00000  Uiso   1.00
H359   H     0.04451   0.34642   0.03734   0.00000  Uiso   1.00
S360   S     0.29256   0.52031   0.45711   0.00000  Uiso   1.00
O361   O     0.29684   0.48551   0.41998   0.00000  Uiso   1.00
O362   O     0.29791   0.56840   0.43967   0.00000  Uiso   1.00
O363   O     0.32954   0.50958   0.49554   0.00000  Uiso   1.00
H364   H     0.02023   0.52699   0.48595   0.00000  Uiso   1.00
S365   S     0.03742   0.40768   0.22469   0.00000  Uiso   1.00
O366   O     0.06492   0.38239   0.25697   0.00000  Uiso   1.00
O367   O     0.00223   0.37699   0.21140   0.00000  Uiso   1.00
O368   O     0.06275   0.42027   0.17889   0.00000  Uiso   1.00
H369   H     0.04255   0.43651   0.15955   0.00000  Uiso   1.00
S370   S     0.28638   0.58795   0.20475   0.00000  Uiso   1.00
O371   O     0.26986   0.62376   0.23615   0.00000  Uiso   1.00
O372   O     0.31622   0.61037   0.17505   0.00000  Uiso   1.00
O373   O     0.24744   0.56876   0.17232   0.00000  Uiso   1.00
H374   H     0.23551   0.59688   0.15851   0.00000  Uiso   1.00
S375   S     0.29542   0.41898   0.29708   0.00000  Uiso   1.00
O376   O     0.27199   0.38298   0.27076   0.00000  Uiso   1.00
O377   O     0.33087   0.39611   0.32085   0.00000  Uiso   1.00
O378   O     0.26518   0.44373   0.33482   0.00000  Uiso   1.00
H379   H     0.26539   0.42201   0.35999   0.00000  Uiso   1.00
S380   S     0.03951   0.60160   0.26072   0.00000  Uiso   1.00
O381   O     0.05263   0.62432   0.21907   0.00000  Uiso   1.00
O382   O     0.00645   0.63051   0.28076   0.00000  Uiso   1.00
O383   O     0.07870   0.60253   0.29782   0.00000  Uiso   1.00
H384   H     0.08704   0.63542   0.30018   0.00000  Uiso   1.00
O385   O     0.13760   0.38141   0.17750   0.00000  Uiso   1.00
H386   H     0.13658   0.36019   0.15144   0.00000  Uiso   1.00
O387   O     0.20411   0.62074   0.31928   0.00000  Uiso   1.00
H388   H     0.21962   0.59482   0.30644   0.00000  Uiso   1.00
O389   O     0.19866   0.38319   0.32130   0.00000  Uiso   1.00
H390   H     0.20507   0.36240   0.34641   0.00000  Uiso   1.00
O391   O     0.13026   0.61978   0.17992   0.00000  Uiso   1.00
H392   H     0.11590   0.59308   0.19187   0.00000  Uiso   1.00
C393   C     0.42061   0.50050   0.24868   0.00000  Uiso   1.00
C394   C     0.57910   0.50018   0.24966   0.00000  Uiso   1.00
C395   C     0.43986   0.45068   0.02211   0.00000  Uiso   1.00
C396   C     0.57667   0.51592   0.48038   0.00000  Uiso   1.00
C397   C     0.35356   0.46025   0.24910   0.00000  Uiso   1.00
C398   C     0.64424   0.54213   0.23592   0.00000  Uiso   1.00
C399   C     0.64656   0.46216   0.26105   0.00000  Uiso   1.00
C400   C     0.35295   0.54499   0.24662   0.00000  Uiso   1.00
C401   C     0.62355   0.50143   0.24873   0.00000  Uiso   1.00
C402   C     0.37559   0.50222   0.24792   0.00000  Uiso   1.00
C403   C     0.48522   0.35782   0.21408   0.00000  Uiso   1.00
C404   C     0.51729   0.64247   0.28477   0.00000  Uiso   1.00
C405   C     0.51566   0.35860   0.28564   0.00000  Uiso   1.00
C406   C     0.48325   0.64185   0.21499   0.00000  Uiso   1.00
C407   C     0.50242   0.49939   0.16470   0.00000  Uiso   1.00
C408   C     0.49974   0.50015   0.33558   0.00000  Uiso   1.00
C409   C     0.53734   0.51198   0.40804   0.00000  Uiso   1.00
C410   C     0.46724   0.48823   0.09121   0.00000  Uiso   1.00
C411   C     0.50101   0.49962   0.38435   0.00000  Uiso   1.00
C412   C     0.50358   0.49686   0.11630   0.00000  Uiso   1.00
C413   C     0.46697   0.48306   0.40675   0.00000  Uiso   1.00
C414   C     0.54117   0.49521   0.09473   0.00000  Uiso   1.00
C415   C     0.47052   0.47449   0.45276   0.00000  Uiso   1.00
C416   C     0.54047   0.50286   0.04864   0.00000  Uiso   1.00
C417   C     0.50547   0.49027   0.47692   0.00000  Uiso   1.00
C418   C     0.50537   0.49000   0.02365   0.00000  Uiso   1.00
C419   C     0.54029   0.50614   0.45470   0.00000  Uiso   1.00
C420   C     0.47011   0.47642   0.04583   0.00000  Uiso   1.00
C421   C     0.44055   0.44944   0.47527   0.00000  Uiso   1.00
C422   C     0.57513   0.51856   0.02686   0.00000  Uiso   1.00
Cu423  Cu    0.50000   0.54689   0.25000   0.00000  Uiso   1.00
Cu424  Cu    0.50000   0.45311   0.25000   0.00000  Uiso   1.00
N425   N     0.50000   0.61736   0.25000   0.00000  Uiso   1.00
N426   N     0.50000   0.38264   0.25000   0.00000  Uiso   1.00
O427   O     0.43988   0.53958   0.25000   0.00000  Uiso   1.00
O428   O     0.56012   0.46042   0.25001   0.00000  Uiso   1.00
O429   O     0.56012   0.53958   0.25001   0.00000  Uiso   1.00
O430   O     0.43988   0.46042   0.25000   0.00000  Uiso   1.00
O431   O     0.49999   0.53960   0.18513   0.00000  Uiso   1.00
O432   O     0.50001   0.46040   0.31487   0.00000  Uiso   1.00
O433   O     0.50001   0.53960   0.31487   0.00000  Uiso   1.00
O434   O     0.49999   0.46040   0.18513   0.00000  Uiso   1.00
O435   O     0.56844   0.53426   0.38709   0.00000  Uiso   1.00
H436   H     0.56770   0.52737   0.35491   0.00000  Uiso   1.00
O437   O     0.42910   0.49126   0.10943   0.00000  Uiso   1.00
H438   H     0.43097   0.50610   0.13919   0.00000  Uiso   1.00
S439   S     0.41830   0.48242   0.37860   0.00000  Uiso   1.00
O440   O     0.41227   0.43673   0.35490   0.00000  Uiso   1.00
O441   O     0.38456   0.49054   0.41046   0.00000  Uiso   1.00
O442   O     0.41535   0.52508   0.34183   0.00000  Uiso   1.00
H443   H     0.38581   0.53161   0.33825   0.00000  Uiso   1.00
S444   S     0.58394   0.46403   0.11800   0.00000  Uiso   1.00
O445   O     0.60307   0.43596   0.08165   0.00000  Uiso   1.00
O446   O     0.61557   0.49625   0.13746   0.00000  Uiso   1.00
O447   O     0.56982   0.42722   0.15735   0.00000  Uiso   1.00
H448   H     0.59558   0.41382   0.16946   0.00000  Uiso   1.00
O449   O     0.41518   0.41998   0.45117   0.00000  Uiso   1.00
H450   H     0.38774   0.42208   0.46388   0.00000  Uiso   1.00
O451   O     0.60731   0.53890   0.05014   0.00000  Uiso   1.00
H452   H     0.59675   0.55405   0.07721   0.00000  Uiso   1.00
S453   S     0.40684   0.41254   0.05019   0.00000  Uiso   1.00
O454   O     0.42583   0.39865   0.09388   0.00000  Uiso   1.00
O455   O     0.36710   0.43695   0.05795   0.00000  Uiso   1.00
O456   O     0.39799   0.36374   0.02032   0.00000  Uiso   1.00
H457   H     0.37784   0.34642   0.03734   0.00000  Uiso   1.00
S458   S     0.62589   0.52031   0.45711   0.00000  Uiso   1.00
O459   O     0.63017   0.48551   0.41998   0.00000  Uiso   1.00
O460   O     0.63125   0.56840   0.43967   0.00000  Uiso   1.00
O461   O     0.66287   0.50958   0.49554   0.00000  Uiso   1.00
H462   H     0.35356   0.52699   0.48595   0.00000  Uiso   1.00
S463   S     0.37075   0.40768   0.22469   0.00000  Uiso   1.00
O464   O     0.39826   0.38239   0.25697   0.00000  Uiso   1.00
O465   O     0.33556   0.37699   0.21140   0.00000  Uiso   1.00
O466   O     0.39609   0.42027   0.17889   0.00000  Uiso   1.00
H467   H     0.37588   0.43651   0.15955   0.00000  Uiso   1.00
S468   S     0.61972   0.58795   0.20475   0.00000  Uiso   1.00
O469   O     0.60319   0.62376   0.23615   0.00000  Uiso   1.00
O470   O     0.64955   0.61037   0.17505   0.00000  Uiso   1.00
O471   O     0.58078   0.56876   0.17232   0.00000  Uiso   1.00
H472   H     0.56885   0.59688   0.15851   0.00000  Uiso   1.00
S473   S     0.62875   0.41898   0.29708   0.00000  Uiso   1.00
O474   O     0.60533   0.38298   0.27076   0.00000  Uiso   1.00
O475   O     0.66421   0.39611   0.32085   0.00000  Uiso   1.00
O476   O     0.59852   0.44373   0.33482   0.00000  Uiso   1.00
H477   H     0.59872   0.42201   0.35999   0.00000  Uiso   1.00
S478   S     0.37284   0.60160   0.26072   0.00000  Uiso   1.00
O479   O     0.38596   0.62432   0.21907   0.00000  Uiso   1.00
O480   O     0.33978   0.63051   0.28076   0.00000  Uiso   1.00
O481   O     0.41203   0.60253   0.29782   0.00000  Uiso   1.00
H482   H     0.42037   0.63542   0.30018   0.00000  Uiso   1.00
O483   O     0.47093   0.38141   0.17750   0.00000  Uiso   1.00
H484   H     0.46991   0.36019   0.15144   0.00000  Uiso   1.00
O485   O     0.53744   0.62074   0.31928   0.00000  Uiso   1.00
H486   H     0.55295   0.59482   0.30644   0.00000  Uiso   1.00
O487   O     0.53200   0.38319   0.32130   0.00000  Uiso   1.00
H488   H     0.53841   0.36240   0.34641   0.00000  Uiso   1.00
O489   O     0.46359   0.61978   0.17992   0.00000  Uiso   1.00
H490   H     0.44924   0.59308   0.19187   0.00000  Uiso   1.00
C491   C     0.75394   0.50050   0.24868   0.00000  Uiso   1.00
C492   C     0.91243   0.50018   0.24966   0.00000  Uiso   1.00
C493   C     0.77319   0.45068   0.02211   0.00000  Uiso   1.00
C494   C     0.91000   0.51592   0.48038   0.00000  Uiso   1.00
C495   C     0.68689   0.46025   0.24910   0.00000  Uiso   1.00
C496   C     0.97758   0.54213   0.23592   0.00000  Uiso   1.00
C497   C     0.97989   0.46216   0.26105   0.00000  Uiso   1.00
C498   C     0.68628   0.54499   0.24662   0.00000  Uiso   1.00
C499   C     0.95688   0.50143   0.24873   0.00000  Uiso   1.00
C500   C     0.70893   0.50222   0.24792   0.00000  Uiso   1.00
C501   C     0.81855   0.35782   0.21408   0.00000  Uiso   1.00
C502   C     0.85063   0.64247   0.28477   0.00000  Uiso   1.00
C503   C     0.84899   0.35860   0.28564   0.00000  Uiso   1.00
C504   C     0.81659   0.64185   0.21499   0.00000  Uiso   1.00
C505   C     0.83575   0.49939   0.16470   0.00000  Uiso   1.00
C506   C     0.83308   0.50015   0.33558   0.00000  Uiso   1.00
C507   C     0.87067   0.51198   0.40804   0.00000  Uiso   1.00
C508   C     0.80057   0.48823   0.09121   0.00000  Uiso   1.00
C509   C     0.83434   0.49962   0.38435   0.00000  Uiso   1.00
C510   C     0.83691   0.49686   0.11630   0.00000  Uiso   1.00
C511   C     0.80031   0.48306   0.40675   0.00000  Uiso   1.00
C512   C     0.87450   0.49521   0.09473   0.00000  Uiso   1.00
C513   C     0.80385   0.47449   0.45276   0.00000  Uiso   1.00
C514   C     0.87380   0.50286   0.04864   0.00000  Uiso   1.00
C515   C     0.83880   0.49027   0.47692   0.00000  Uiso   1.00
C516   C     0.83870   0.49000   0.02365   0.00000  Uiso   1.00
C517   C     0.87362   0.50614   0.45470   0.00000  Uiso   1.00
C518   C     0.80344   0.47642   0.04583   0.00000  Uiso   1.00
C519   C     0.77388   0.44944   0.47527   0.00000  Uiso   1.00
C520   C     0.90846   0.51856   0.02686   0.00000  Uiso   1.00
Cu521  Cu    0.83333   0.54689   0.25000   0.00000  Uiso   1.00
Cu522  Cu    0.83333   0.45311   0.25000   0.00000  Uiso   1.00
N523   N     0.83333   0.61736   0.25000   0.00000  Uiso   1.00
N524   N     0.83333   0.38264   0.25000   0.00000  Uiso   1.00
O525   O     0.77321   0.53958   0.25000   0.00000  Uiso   1.00
O526   O     0.89345   0.46042   0.25001   0.00000  Uiso   1.00
O527   O     0.89345   0.53958   0.25001   0.00000  Uiso   1.00
O528   O     0.77321   0.46042   0.25000   0.00000  Uiso   1.00
O529   O     0.83332   0.53960   0.18513   0.00000  Uiso   1.00
O530   O     0.83334   0.46040   0.31487   0.00000  Uiso   1.00
O531   O     0.83334   0.53960   0.31487   0.00000  Uiso   1.00
O532   O     0.83332   0.46040   0.18513   0.00000  Uiso   1.00
O533   O     0.90177   0.53426   0.38709   0.00000  Uiso   1.00
H534   H     0.90103   0.52737   0.35491   0.00000  Uiso   1.00
O535   O     0.76243   0.49126   0.10943   0.00000  Uiso   1.00
H536   H     0.76430   0.50610   0.13919   0.00000  Uiso   1.00
S537   S     0.75163   0.48242   0.37860   0.00000  Uiso   1.00
O538   O     0.74560   0.43673   0.35490   0.00000  Uiso   1.00
O539   O     0.71789   0.49054   0.41046   0.00000  Uiso   1.00
O540   O     0.74868   0.52508   0.34183   0.00000  Uiso   1.00
H541   H     0.71914   0.53161   0.33825   0.00000  Uiso   1.00
S542   S     0.91727   0.46403   0.11800   0.00000  Uiso   1.00
O543   O     0.93641   0.43596   0.08165   0.00000  Uiso   1.00
O544   O     0.94891   0.49625   0.13746   0.00000  Uiso   1.00
O545   O     0.90315   0.42722   0.15735   0.00000  Uiso   1.00
H546   H     0.92892   0.41382   0.16946   0.00000  Uiso   1.00
O547   O     0.74852   0.41998   0.45117   0.00000  Uiso   1.00
H548   H     0.72108   0.42208   0.46388   0.00000  Uiso   1.00
O549   O     0.94064   0.53890   0.05014   0.00000  Uiso   1.00
H550   H     0.93008   0.55405   0.07721   0.00000  Uiso   1.00
S551   S     0.74018   0.41254   0.05019   0.00000  Uiso   1.00
O552   O     0.75916   0.39865   0.09388   0.00000  Uiso   1.00
O553   O     0.70043   0.43695   0.05795   0.00000  Uiso   1.00
O554   O     0.73132   0.36374   0.02032   0.00000  Uiso   1.00
H555   H     0.71117   0.34642   0.03734   0.00000  Uiso   1.00
S556   S     0.95922   0.52031   0.45711   0.00000  Uiso   1.00
O557   O     0.96351   0.48551   0.41998   0.00000  Uiso   1.00
O558   O     0.96458   0.56840   0.43967   0.00000  Uiso   1.00
O559   O     0.99620   0.50958   0.49554   0.00000  Uiso   1.00
H560   H     0.68690   0.52699   0.48595   0.00000  Uiso   1.00
S561   S     0.70409   0.40768   0.22469   0.00000  Uiso   1.00
O562   O     0.73159   0.38239   0.25697   0.00000  Uiso   1.00
O563   O     0.66889   0.37699   0.21140   0.00000  Uiso   1.00
O564   O     0.72942   0.42027   0.17889   0.00000  Uiso   1.00
H565   H     0.70921   0.43651   0.15955   0.00000  Uiso   1.00
S566   S     0.95305   0.58795   0.20475   0.00000  Uiso   1.00
O567   O     0.93652   0.62376   0.23615   0.00000  Uiso   1.00
O568   O     0.98289   0.61037   0.17505   0.00000  Uiso   1.00
O569   O     0.91411   0.56876   0.17232   0.00000  Uiso   1.00
H570   H     0.90218   0.59688   0.15851   0.00000  Uiso   1.00
S571   S     0.96209   0.41898   0.29708   0.00000  Uiso   1.00
O572   O     0.93866   0.38298   0.27076   0.00000  Uiso   1.00
O573   O     0.99754   0.39611   0.32085   0.00000  Uiso   1.00
O574   O     0.93185   0.44373   0.33482   0.00000  Uiso   1.00
H575   H     0.93206   0.42201   0.35999   0.00000  Uiso   1.00
S576   S     0.70618   0.60160   0.26072   0.00000  Uiso   1.00
O577   O     0.71929   0.62432   0.21907   0.00000  Uiso   1.00
O578   O     0.67311   0.63051   0.28076   0.00000  Uiso   1.00
O579   O     0.74537   0.60253   0.29782   0.00000  Uiso   1.00
H580   H     0.75370   0.63542   0.30018   0.00000  Uiso   1.00
O581   O     0.80426   0.38141   0.17750   0.00000  Uiso   1.00
H582   H     0.80324   0.36019   0.15144   0.00000  Uiso   1.00
O583   O     0.87078   0.62074   0.31928   0.00000  Uiso   1.00
H584   H     0.88629   0.59482   0.30644   0.00000  Uiso   1.00
O585   O     0.86533   0.38319   0.32130   0.00000  Uiso   1.00
H586   H     0.87174   0.36240   0.34641   0.00000  Uiso   1.00
O587   O     0.79692   0.61978   0.17992   0.00000  Uiso   1.00
H588   H     0.78257   0.59308   0.19187   0.00000  Uiso   1.00
C589   C     0.08728   0.83383   0.24868   0.00000  Uiso   1.00
C590   C     0.24577   0.83352   0.24966   0.00000  Uiso   1.00
C591   C     0.10653   0.78402   0.02211   0.00000  Uiso   1.00
C592   C     0.24334   0.84926   0.48038   0.00000  Uiso   1.00
C593   C     0.02022   0.79358   0.24910   0.00000  Uiso   1.00
C594   C     0.31091   0.87546   0.23592   0.00000  Uiso   1.00
C595   C     0.31323   0.79549   0.26105   0.00000  Uiso   1.00
C596   C     0.01961   0.87832   0.24662   0.00000  Uiso   1.00
C597   C     0.29022   0.83477   0.24873   0.00000  Uiso   1.00
C598   C     0.04226   0.83555   0.24792   0.00000  Uiso   1.00
C599   C     0.15188   0.69115   0.21408   0.00000  Uiso   1.00
C600   C     0.18396   0.97581   0.28477   0.00000  Uiso   1.00
C601   C     0.18233   0.69194   0.28564   0.00000  Uiso   1.00
C602   C     0.14992   0.97518   0.21499   0.00000  Uiso   1.00
C603   C     0.16909   0.83272   0.16470   0.00000  Uiso   1.00
C604   C     0.16641   0.83348   0.33558   0.00000  Uiso   1.00
C605   C     0.20401   0.84532   0.40804   0.00000  Uiso   1.00
C606   C     0.13391   0.82156   0.09121   0.00000  Uiso   1.00
C607   C     0.16767   0.83295   0.38435   0.00000  Uiso   1.00
C608   C     0.17024   0.83020   0.11630   0.00000  Uiso   1.00
C609   C     0.13364   0.81640   0.40675   0.00000  Uiso   1.00
C610   C     0.20784   0.82855   0.09473   0.00000  Uiso   1.00
C611   C     0.13718   0.80783   0.45276   0.00000  Uiso   1.00
C612   C     0.20713   0.83620   0.04864   0.00000  Uiso   1.00
C613   C     0.17213   0.82360   0.47692   0.00000  Uiso   1.00
C614   C     0.17203   0.82334   0.02365   0.00000  Uiso   1.00
C615   C     0.20695   0.83947   0.45470   0.00000  Uiso   1.00
C616   C     0.13677   0.80975   0.04583   0.00000  Uiso   1.00
C617   C     0.10721   0.78278   0.47527   0.00000  Uiso   1.00
C618   C     0.24180   0.85189   0.02686   0.00000  Uiso   1.00
Cu619  Cu    0.16667   0.88022   0.25000   0.00000  Uiso   1.00
Cu620  Cu    0.16667   0.78645   0.25000   0.00000  Uiso   1.00
N621   N     0.16667   0.95069   0.25000   0.00000  Uiso   1.00
N622   N     0.16667   0.71598   0.25000   0.00000  Uiso   1.00
O623   O     0.10655   0.87291   0.25000   0.00000  Uiso   1.00
O624   O     0.22679   0.79375   0.25001   0.00000  Uiso   1.00
O625   O     0.22679   0.87291   0.25001   0.00000  Uiso   1.00
O626   O     0.10655   0.79375   0.25000   0.00000  Uiso   1.00
O627   O     0.16666   0.87293   0.18513   0.00000  Uiso   1.00
O628   O     0.16668   0.79373   0.31487   0.00000  Uiso   1.00
O629   O     0.16668   0.87293   0.31487   0.00000  Uiso   1.00
O630   O     0.16666   0.79373   0.18513   0.00000  Uiso   1.00
O631   O     0.23511   0.86759   0.38709   0.00000  Uiso   1.00
H632   H     0.23436   0.86070   0.35491   0.00000  Uiso   1.00
O633   O     0.09576   0.82459   0.10943   0.00000  Uiso   1.00
H634   H     0.09764   0.83944   0.13919   0.00000  Uiso   1.00
S635   S     0.08497   0.81576   0.37860   0.00000  Uiso   1.00
O636   O     0.07894   0.77006   0.35490   0.00000  Uiso   1.00
O637   O     0.05123   0.82387   0.41046   0.00000  Uiso   1.00
O638   O     0.08202   0.85841   0.34183   0.00000  Uiso   1.00
H639   H     0.05248   0.86494   0.33825   0.00000  Uiso   1.00
S640   S     0.25061   0.79737   0.11800   0.00000  Uiso   1.00
O641   O     0.26974   0.76929   0.08165   0.00000  Uiso   1.00
O642   O     0.28224   0.82958   0.13746   0.00000  Uiso   1.00
O643   O     0.23648   0.76055   0.15735   0.00000  Uiso   1.00
H644   H     0.26225   0.74716   0.16946   0.00000  Uiso   1.00
O645   O     0.08185   0.75332   0.45117   0.00000  Uiso   1.00
H646   H     0.05441   0.75541   0.46388   0.00000  Uiso   1.00
O647   O     0.27397   0.87223   0.05014   0.00000  Uiso   1.00
H648   H     0.26341   0.88739   0.07721   0.00000  Uiso   1.00
S649   S     0.07351   0.74587   0.05019   0.00000  Uiso   1.00
O650   O     0.09249   0.73199   0.09388   0.00000  Uiso   1.00
O651   O     0.03376   0.77029   0.05795   0.00000  Uiso   1.00
O652   O     0.06465   0.69707   0.02032   0.00000  Uiso   1.00
H653   H     0.04451   0.67976   0.03734   0.00000  Uiso   1.00
S654   S     0.29256   0.85364   0.45711   0.00000  Uiso   1.00
O655   O     0.29684   0.81885   0.41998   0.00000  Uiso   1.00
O656   O     0.29791   0.90174   0.43967   0.00000  Uiso   1.00
O657   O     0.32954   0.84292   0.49554   0.00000  Uiso   1.00
H658   H     0.02023   0.86032   0.48595   0.00000  Uiso   1.00
S659   S     0.03742   0.74101   0.22469   0.00000  Uiso   1.00
O660   O     0.06492   0.71572   0.25697   0.00000  Uiso   1.00
O661   O     0.00223   0.71032   0.21140   0.00000  Uiso   1.00
O662   O     0.06275   0.75360   0.17889   0.00000  Uiso   1.00
H663   H     0.04255   0.76984   0.15955   0.00000  Uiso   1.00
S664   S     0.28638   0.92128   0.20475   0.00000  Uiso   1.00
O665   O     0.26986   0.95709   0.23615   0.00000  Uiso   1.00
O666   O     0.31622   0.94371   0.17505   0.00000  Uiso   1.00
O667   O     0.24744   0.90210   0.17232   0.00000  Uiso   1.00
H668   H     0.23551   0.93022   0.15851   0.00000  Uiso   1.00
S669   S     0.29542   0.75231   0.29708   0.00000  Uiso   1.00
O670   O     0.27199   0.71631   0.27076   0.00000  Uiso   1.00
O671   O     0.33087   0.72945   0.32085   0.00000  Uiso   1.00
O672   O     0.26518   0.77706   0.33482   0.00000  Uiso   1.00
H673   H     0.26539   0.75534   0.35999   0.00000  Uiso   1.00
S674   S     0.03951   0.93493   0.26072   0.00000  Uiso   1.00
O675   O     0.05263   0.95766   0.21907   0.00000  Uiso   1.00
O676   O     0.00645   0.96384   0.28076   0.00000  Uiso   1.00
O677   O     0.07870   0.93586   0.29782   0.00000  Uiso   1.00
H678   H     0.08704   0.96875   0.30018   0.00000  Uiso   1.00
O679   O     0.13760   0.71475   0.17750   0.00000  Uiso   1.00
H680   H     0.13658   0.69352   0.15144   0.00000  Uiso   1.00
O681   O     0.20411   0.95407   0.31928   0.00000  Uiso   1.00
H682   H     0.21962   0.92815   0.30644   0.00000  Uiso   1.00
O683   O     0.19866   0.71652   0.32130   0.00000  Uiso   1.00
H684   H     0.20507   0.69573   0.34641   0.00000  Uiso   1.00
O685   O     0.13026   0.95311   0.17992   0.00000  Uiso   1.00
H686   H     0.11590   0.92641   0.19187   0.00000  Uiso   1.00
C687   C     0.42061   0.83383   0.24868   0.00000  Uiso   1.00
C688   C     0.57910   0.83352   0.24966   0.00000  Uiso   1.00
C689   C     0.43986   0.78402   0.02211   0.00000  Uiso   1.00
C690   C     0.57667   0.84926   0.48038   0.00000  Uiso   1.00
C691   C     0.35356   0.79358   0.24910   0.00000  Uiso   1.00
C692   C     0.64424   0.87546   0.23592   0.00000  Uiso   1.00
C693   C     0.64656   0.79549   0.26105   0.00000  Uiso   1.00
C694   C     0.35295   0.87832   0.24662   0.00000  Uiso   1.00
C695   C     0.62355   0.83477   0.24873   0.00000  Uiso   1.00
C696   C     0.37559   0.83555   0.24792   0.00000  Uiso   1.00
C697   C     0.48522   0.69115   0.21408   0.00000  Uiso   1.00
C698   C     0.51729   0.97581   0.28477   0.00000  Uiso   1.00
C699   C     0.51566   0.69194   0.28564   0.00000  Uiso   1.00
C700   C     0.48325   0.97518   0.21499   0.00000  Uiso   1.00
C701   C     0.50242   0.83272   0.16470   0.00000  Uiso   1.00
C702   C     0.49974   0.83348   0.33558   0.00000  Uiso   1.00
C703   C     0.53734   0.84532   0.40804   0.00000  Uiso   1.00
C704   C     0.46724   0.82156   0.09121   0.00000  Uiso   1.00
C705   C     0.50101   0.83295   0.38435   0.00000  Uiso   1.00
C706   C     0.50358   0.83020   0.11630   0.00000  Uiso   1.00
C707   C     0.46697   0.81640   0.40675   0.00000  Uiso   1.00
C708   C     0.54117   0.82855   0.09473   0.00000  Uiso   1.00
C709   C     0.47052   0.80783   0.45276   0.00000  Uiso   1.00
C710   C     0.54047   0.83620   0.04864   0.00000  Uiso   1.00
C711   C     0.50547   0.82360   0.47692   0.00000  Uiso   1.00
C712   C     0.50537   0.82334   0.02365   0.00000  Uiso   1.00
C713   C     0.54029   0.83947   0.45470   0.00000  Uiso   1.00
C714   C     0.47011   0.80975   0.04583   0.00000  Uiso   1.00
C715   C     0.44055   0.78278   0.47527   0.00000  Uiso   1.00
C716   C     0.57513   0.85189   0.02686   0.00000  Uiso   1.00
Cu717  Cu    0.50000   0.88022   0.25000   0.00000  Uiso   1.00
Cu718  Cu    0.50000   0.78645   0.25000   0.00000  Uiso   1.00
N719   N     0.50000   0.95069   0.25000   0.00000  Uiso   1.00
N720   N     0.50000   0.71598   0.25000   0.00000  Uiso   1.00
O721   O     0.43988   0.87291   0.25000   0.00000  Uiso   1.00
O722   O     0.56012   0.79375   0.25001   0.00000  Uiso   1.00
O723   O     0.56012   0.87291   0.25001   0.00000  Uiso   1.00
O724   O     0.43988   0.79375   0.25000   0.00000  Uiso   1.00
O725   O     0.49999   0.87293   0.18513   0.00000  Uiso   1.00
O726   O     0.50001   0.79373   0.31487   0.00000  Uiso   1.00
O727   O     0.50001   0.87293   0.31487   0.00000  Uiso   1.00
O728   O     0.49999   0.79373   0.18513   0.00000  Uiso   1.00
O729   O     0.56844   0.86759   0.38709   0.00000  Uiso   1.00
H730   H     0.56770   0.86070   0.35491   0.00000  Uiso   1.00
O731   O     0.42910   0.82459   0.10943   0.00000  Uiso   1.00
H732   H     0.43097   0.83944   0.13919   0.00000  Uiso   1.00
S733   S     0.41830   0.81576   0.37860   0.00000  Uiso   1.00
O734   O     0.41227   0.77006   0.35490   0.00000  Uiso   1.00
O735   O     0.38456   0.82387   0.41046   0.00000  Uiso   1.00
O736   O     0.41535   0.85841   0.34183   0.00000  Uiso   1.00
H737   H     0.38581   0.86494   0.33825   0.00000  Uiso   1.00
S738   S     0.58394   0.79737   0.11800   0.00000  Uiso   1.00
O739   O     0.60307   0.76929   0.08165   0.00000  Uiso   1.00
O740   O     0.61557   0.82958   0.13746   0.00000  Uiso   1.00
O741   O     0.56982   0.76055   0.15735   0.00000  Uiso   1.00
H742   H     0.59558   0.74716   0.16946   0.00000  Uiso   1.00
O743   O     0.41518   0.75332   0.45117   0.00000  Uiso   1.00
H744   H     0.38774   0.75541   0.46388   0.00000  Uiso   1.00
O745   O     0.60731   0.87223   0.05014   0.00000  Uiso   1.00
H746   H     0.59675   0.88739   0.07721   0.00000  Uiso   1.00
S747   S     0.40684   0.74587   0.05019   0.00000  Uiso   1.00
O748   O     0.42583   0.73199   0.09388   0.00000  Uiso   1.00
O749   O     0.36710   0.77029   0.05795   0.00000  Uiso   1.00
O750   O     0.39799   0.69707   0.02032   0.00000  Uiso   1.00
H751   H     0.37784   0.67976   0.03734   0.00000  Uiso   1.00
S752   S     0.62589   0.85364   0.45711   0.00000  Uiso   1.00
O753   O     0.63017   0.81885   0.41998   0.00000  Uiso   1.00
O754   O     0.63125   0.90174   0.43967   0.00000  Uiso   1.00
O755   O     0.66287   0.84292   0.49554   0.00000  Uiso   1.00
H756   H     0.35356   0.86032   0.48595   0.00000  Uiso   1.00
S757   S     0.37075   0.74101   0.22469   0.00000  Uiso   1.00
O758   O     0.39826   0.71572   0.25697   0.00000  Uiso   1.00
O759   O     0.33556   0.71032   0.21140   0.00000  Uiso   1.00
O760   O     0.39609   0.75360   0.17889   0.00000  Uiso   1.00
H761   H     0.37588   0.76984   0.15955   0.00000  Uiso   1.00
S762   S     0.61972   0.92128   0.20475   0.00000  Uiso   1.00
O763   O     0.60319   0.95709   0.23615   0.00000  Uiso   1.00
O764   O     0.64955   0.94371   0.17505   0.00000  Uiso   1.00
O765   O     0.58078   0.90210   0.17232   0.00000  Uiso   1.00
H766   H     0.56885   0.93022   0.15851   0.00000  Uiso   1.00
S767   S     0.62875   0.75231   0.29708   0.00000  Uiso   1.00
O768   O     0.60533   0.71631   0.27076   0.00000  Uiso   1.00
O769   O     0.66421   0.72945   0.32085   0.00000  Uiso   1.00
O770   O     0.59852   0.77706   0.33482   0.00000  Uiso   1.00
H771   H     0.59872   0.75534   0.35999   0.00000  Uiso   1.00
S772   S     0.37284   0.93493   0.26072   0.00000  Uiso   1.00
O773   O     0.38596   0.95766   0.21907   0.00000  Uiso   1.00
O774   O     0.33978   0.96384   0.28076   0.00000  Uiso   1.00
O775   O     0.41203   0.93586   0.29782   0.00000  Uiso   1.00
H776   H     0.42037   0.96875   0.30018   0.00000  Uiso   1.00
O777   O     0.47093   0.71475   0.17750   0.00000  Uiso   1.00
H778   H     0.46991   0.69352   0.15144   0.00000  Uiso   1.00
O779   O     0.53744   0.95407   0.31928   0.00000  Uiso   1.00
H780   H     0.55295   0.92815   0.30644   0.00000  Uiso   1.00
O781   O     0.53200   0.71652   0.32130   0.00000  Uiso   1.00
H782   H     0.53841   0.69573   0.34641   0.00000  Uiso   1.00
O783   O     0.46359   0.95311   0.17992   0.00000  Uiso   1.00
H784   H     0.44924   0.92641   0.19187   0.00000  Uiso   1.00
C785   C     0.75394   0.83383   0.24868   0.00000  Uiso   1.00
C786   C     0.91243   0.83352   0.24966   0.00000  Uiso   1.00
C787   C     0.77319   0.78402   0.02211   0.00000  Uiso   1.00
C788   C     0.91000   0.84926   0.48038   0.00000  Uiso   1.00
C789   C     0.68689   0.79358   0.24910   0.00000  Uiso   1.00
C790   C     0.97758   0.87546   0.23592   0.00000  Uiso   1.00
C791   C     0.97989   0.79549   0.26105   0.00000  Uiso   1.00
C792   C     0.68628   0.87832   0.24662   0.00000  Uiso   1.00
C793   C     0.95688   0.83477   0.24873   0.00000  Uiso   1.00
C794   C     0.70893   0.83555   0.24792   0.00000  Uiso   1.00
C795   C     0.81855   0.69115   0.21408   0.00000  Uiso   1.00
C796   C     0.85063   0.97581   0.28477   0.00000  Uiso   1.00
C797   C     0.84899   0.69194   0.28564   0.00000  Uiso   1.00
C798   C     0.81659   0.97518   0.21499   0.00000  Uiso   1.00
C799   C     0.83575   0.83272   0.16470   0.00000  Uiso   1.00
C800   C     0.83308   0.83348   0.33558   0.00000  Uiso   1.00
C801   C     0.87067   0.84532   0.40804   0.00000  Uiso   1.00
C802   C     0.80057   0.82156   0.09121   0.00000  Uiso   1.00
C803   C     0.83434   0.83295   0.38435   0.00000  Uiso   1.00
C804   C     0.83691   0.83020   0.11630   0.00000  Uiso   1.00
C805   C     0.80031   0.81640   0.40675   0.00000  Uiso   1.00
C806   C     0.87450   0.82855   0.09473   0.00000  Uiso   1.00
C807   C     0.80385   0.80783   0.45276   0.00000  Uiso   1.00
C808   C     0.87380   0.83620   0.04864   0.00000  Uiso   1.00
C809   C     0.83880   0.82360   0.47692   0.00000  Uiso   1.00
C810   C     0.83870   0.82334   0.02365   0.00000  Uiso   1.00
C811   C     0.87362   0.83947   0.45470   0.00000  Uiso   1.00
C812   C     0.80344   0.80975   0.04583   0.00000  Uiso   1.00
C813   C     0.77388   0.78278   0.47527   0.00000  Uiso   1.00
C814   C     0.90846   0.85189   0.02686   0.00000  Uiso   1.00
Cu815  Cu    0.83333   0.88022   0.25000   0.00000  Uiso   1.00
Cu816  Cu    0.83333   0.78645   0.25000   0.00000  Uiso   1.00
N817   N     0.83333   0.95069   0.25000   0.00000  Uiso   1.00
N818   N     0.83333   0.71598   0.25000   0.00000  Uiso   1.00
O819   O     0.77321   0.87291   0.25000   0.00000  Uiso   1.00
O820   O     0.89345   0.79375   0.25001   0.00000  Uiso   1.00
O821   O     0.89345   0.87291   0.25001   0.00000  Uiso   1.00
O822   O     0.77321   0.79375   0.25000   0.00000  Uiso   1.00
O823   O     0.83332   0.87293   0.18513   0.00000  Uiso   1.00
O824   O     0.83334   0.79373   0.31487   0.00000  Uiso   1.00
O825   O     0.83334   0.87293   0.31487   0.00000  Uiso   1.00
O826   O     0.83332   0.79373   0.18513   0.00000  Uiso   1.00
O827   O     0.90177   0.86759   0.38709   0.00000  Uiso   1.00
H828   H     0.90103   0.86070   0.35491   0.00000  Uiso   1.00
O829   O     0.76243   0.82459   0.10943   0.00000  Uiso   1.00
H830   H     0.76430   0.83944   0.13919   0.00000  Uiso   1.00
S831   S     0.75163   0.81576   0.37860   0.00000  Uiso   1.00
O832   O     0.74560   0.77006   0.35490   0.00000  Uiso   1.00
O833   O     0.71789   0.82387   0.41046   0.00000  Uiso   1.00
O834   O     0.74868   0.85841   0.34183   0.00000  Uiso   1.00
H835   H     0.71914   0.86494   0.33825   0.00000  Uiso   1.00
S836   S     0.91727   0.79737   0.11800   0.00000  Uiso   1.00
O837   O     0.93641   0.76929   0.08165   0.00000  Uiso   1.00
O838   O     0.94891   0.82958   0.13746   0.00000  Uiso   1.00
O839   O     0.90315   0.76055   0.15735   0.00000  Uiso   1.00
H840   H     0.92892   0.74716   0.16946   0.00000  Uiso   1.00
O841   O     0.74852   0.75332   0.45117   0.00000  Uiso   1.00
H842   H     0.72108   0.75541   0.46388   0.00000  Uiso   1.00
O843   O     0.94064   0.87223   0.05014   0.00000  Uiso   1.00
H844   H     0.93008   0.88739   0.07721   0.00000  Uiso   1.00
S845   S     0.74018   0.74587   0.05019   0.00000  Uiso   1.00
O846   O     0.75916   0.73199   0.09388   0.00000  Uiso   1.00
O847   O     0.70043   0.77029   0.05795   0.00000  Uiso   1.00
O848   O     0.73132   0.69707   0.02032   0.00000  Uiso   1.00
H849   H     0.71117   0.67976   0.03734   0.00000  Uiso   1.00
S850   S     0.95922   0.85364   0.45711   0.00000  Uiso   1.00
O851   O     0.96351   0.81885   0.41998   0.00000  Uiso   1.00
O852   O     0.96458   0.90174   0.43967   0.00000  Uiso   1.00
O853   O     0.99620   0.84292   0.49554   0.00000  Uiso   1.00
H854   H     0.68690   0.86032   0.48595   0.00000  Uiso   1.00
S855   S     0.70409   0.74101   0.22469   0.00000  Uiso   1.00
O856   O     0.73159   0.71572   0.25697   0.00000  Uiso   1.00
O857   O     0.66889   0.71032   0.21140   0.00000  Uiso   1.00
O858   O     0.72942   0.75360   0.17889   0.00000  Uiso   1.00
H859   H     0.70921   0.76984   0.15955   0.00000  Uiso   1.00
S860   S     0.95305   0.92128   0.20475   0.00000  Uiso   1.00
O861   O     0.93652   0.95709   0.23615   0.00000  Uiso   1.00
O862   O     0.98289   0.94371   0.17505   0.00000  Uiso   1.00
O863   O     0.91411   0.90210   0.17232   0.00000  Uiso   1.00
H864   H     0.90218   0.93022   0.15851   0.00000  Uiso   1.00
S865   S     0.96209   0.75231   0.29708   0.00000  Uiso   1.00
O866   O     0.93866   0.71631   0.27076   0.00000  Uiso   1.00
O867   O     0.99754   0.72945   0.32085   0.00000  Uiso   1.00
O868   O     0.93185   0.77706   0.33482   0.00000  Uiso   1.00
H869   H     0.93206   0.75534   0.35999   0.00000  Uiso   1.00
S870   S     0.70618   0.93493   0.26072   0.00000  Uiso   1.00
O871   O     0.71929   0.95766   0.21907   0.00000  Uiso   1.00
O872   O     0.67311   0.96384   0.28076   0.00000  Uiso   1.00
O873   O     0.74537   0.93586   0.29782   0.00000  Uiso   1.00
H874   H     0.75370   0.96875   0.30018   0.00000  Uiso   1.00
O875   O     0.80426   0.71475   0.17750   0.00000  Uiso   1.00
H876   H     0.80324   0.69352   0.15144   0.00000  Uiso   1.00
O877   O     0.87078   0.95407   0.31928   0.00000  Uiso   1.00
H878   H     0.88629   0.92815   0.30644   0.00000  Uiso   1.00
O879   O     0.86533   0.71652   0.32130   0.00000  Uiso   1.00
H880   H     0.87174   0.69573   0.34641   0.00000  Uiso   1.00
O881   O     0.79692   0.95311   0.17992   0.00000  Uiso   1.00
H882   H     0.78257   0.92641   0.19187   0.00000  Uiso   1.00
C883   C     0.08728   0.16716   0.74868   0.00000  Uiso   1.00
C884   C     0.24577   0.16685   0.74966   0.00000  Uiso   1.00
C885   C     0.10653   0.11735   0.52211   0.00000  Uiso   1.00
C886   C     0.24334   0.18259   0.98038   0.00000  Uiso   1.00
C887   C     0.02022   0.12692   0.74910   0.00000  Uiso   1.00
C888   C     0.31091   0.20880   0.73592   0.00000  Uiso   1.00
C889   C     0.31323   0.12882   0.76105   0.00000  Uiso   1.00
C890   C     0.01961   0.21165   0.74662   0.00000  Uiso   1.00
C891   C     0.29022   0.16810   0.74873   0.00000  Uiso   1.00
C892   C     0.04226   0.16888   0.74792   0.00000  Uiso   1.00
C893   C     0.15188   0.02449   0.71408   0.00000  Uiso   1.00
C894   C     0.18396   0.30914   0.78477   0.00000  Uiso   1.00
C895   C     0.18233   0.02527   0.78564   0.00000  Uiso   1.00
C896   C     0.14992   0.30852   0.71499   0.00000  Uiso   1.00
C897   C     0.16909   0.16605   0.66470   0.00000  Uiso   1.00
C898   C     0.16641   0.16682   0.83558   0.00000  Uiso   1.00
C899   C     0.20401   0.17865   0.90804   0.00000  Uiso   1.00
C900   C     0.13391   0.15490   0.59121   0.00000  Uiso   1.00
C901   C     0.16767   0.16629   0.88435   0.00000  Uiso   1.00
C902   C     0.17024   0.16353   0.61630   0.00000  Uiso   1.00
C903   C     0.13364   0.14973   0.90675   0.00000  Uiso   1.00
C904   C     0.20784   0.16188   0.59473   0.00000  Uiso   1.00
C905   C     0.13718   0.14116   0.95276   0.00000  Uiso   1.00
C906   C     0.20713   0.16953   0.54864   0.00000  Uiso   1.00
C907   C     0.17213   0.15694   0.97692   0.00000  Uiso   1.00
C908   C     0.17203   0.15667   0.52365   0.00000  Uiso   1.00
C909   C     0.20695   0.17280   0.95470   0.00000  Uiso   1.00
C910   C     0.13677   0.14308   0.54583   0.00000  Uiso   1.00
C911   C     0.10721   0.11611   0.97527   0.00000  Uiso   1.00
C912   C     0.24180   0.18523   0.52686   0.00000  Uiso   1.00
Cu913  Cu    0.16667   0.21355   0.75000   0.00000  Uiso   1.00
Cu914  Cu    0.16667   0.11978   0.75000   0.00000  Uiso   1.00
N915   N     0.16667   0.28402   0.75000   0.00000  Uiso   1.00
N916   N     0.16667   0.04931   0.75000   0.00000  Uiso   1.00
O917   O     0.10655   0.20625   0.75000   0.00000  Uiso   1.00
O918   O     0.22679   0.12709   0.75001   0.00000  Uiso   1.00
O919   O     0.22679   0.20625   0.75001   0.00000  Uiso   1.00
O920   O     0.10655   0.12709   0.75000   0.00000  Uiso   1.00
O921   O     0.16666   0.20627   0.68513   0.00000  Uiso   1.00
O922   O     0.16668   0.12707   0.81487   0.00000  Uiso   1.00
O923   O     0.16668   0.20627   0.81487   0.00000  Uiso   1.00
O924   O     0.16666   0.12707   0.68513   0.00000  Uiso   1.00
O925   O     0.23511   0.20093   0.88709   0.00000  Uiso   1.00
H926   H     0.23436   0.19404   0.85491   0.00000  Uiso   1.00
O927   O     0.09576   0.15792   0.60943   0.00000  Uiso   1.00
H928   H     0.09764   0.17277   0.63919   0.00000  Uiso   1.00
S929   S     0.08497   0.14909   0.87860   0.00000  Uiso   1.00
O930   O     0.07894   0.10340   0.85490   0.00000  Uiso   1.00
O931   O     0.05123   0.15721   0.91046   0.00000  Uiso   1.00
O932   O     0.08202   0.19174   0.84183   0.00000  Uiso   1.00
H933   H     0.05248   0.19828   0.83825   0.00000  Uiso   1.00
S934   S     0.25061   0.13070   0.61800   0.00000  Uiso   1.00
O935   O     0.26974   0.10263   0.58165   0.00000  Uiso   1.00
O936   O     0.28224   0.16292   0.63746   0.00000  Uiso   1.00
O937   O     0.23648   0.09389   0.65735   0.00000  Uiso   1.00
H938   H     0.26225   0.08049   0.66946   0.00000  Uiso   1.00
O939   O     0.08185   0.08665   0.95117   0.00000  Uiso   1.00
H940   H     0.05441   0.08874   0.96388   0.00000  Uiso   1.00
O941   O     0.27397   0.20557   0.55014   0.00000  Uiso   1.00
H942   H     0.26341   0.22072   0.57721   0.00000  Uiso   1.00
S943   S     0.07351   0.07921   0.55019   0.00000  Uiso   1.00
O944   O     0.09249   0.06532   0.59388   0.00000  Uiso   1.00
O945   O     0.03376   0.10362   0.55795   0.00000  Uiso   1.00
O946   O     0.06465   0.03041   0.52032   0.00000  Uiso   1.00
H947   H     0.04451   0.01309   0.53734   0.00000  Uiso   1.00
S948   S     0.29256   0.18697   0.95711   0.00000  Uiso   1.00
O949   O     0.29684   0.15218   0.91998   0.00000  Uiso   1.00
O950   O     0.29791   0.23507   0.93967   0.00000  Uiso   1.00
O951   O     0.32954   0.17625   0.99554   0.00000  Uiso   1.00
H952   H     0.02023   0.19365   0.98595   0.00000  Uiso   1.00
S953   S     0.03742   0.07435   0.72469   0.00000  Uiso   1.00
O954   O     0.06492   0.04905   0.75697   0.00000  Uiso   1.00
O955   O     0.00223   0.04366   0.71140   0.00000  Uiso   1.00
O956   O     0.06275   0.08694   0.67889   0.00000  Uiso   1.00
H957   H     0.04255   0.10318   0.65955   0.00000  Uiso   1.00
S958   S     0.28638   0.25462   0.70475   0.00000  Uiso   1.00
O959   O     0.26986   0.29043   0.73615   0.00000  Uiso   1.00
O960   O     0.31622   0.27704   0.67505   0.00000  Uiso   1.00
O961   O     0.24744   0.23543   0.67232   0.00000  Uiso   1.00
H962   H     0.23551   0.26355   0.65851   0.00000  Uiso   1.00
S963   S     0.29542   0.08565   0.79708   0.00000  Uiso   1.00
O964   O     0.27199   0.04965   0.77076   0.00000  Uiso   1.00
O965   O     0.33087   0.06278   0.82085   0.00000  Uiso   1.00
O966   O     0.26518   0.11040   0.83482   0.00000  Uiso   1.00
H967   H     0.26539   0.08868   0.85999   0.00000  Uiso   1.00
S968   S     0.03951   0.26827   0.76072   0.00000  Uiso   1.00
O969   O     0.05263   0.29099   0.71907   0.00000  Uiso   1.00
O970   O     0.00645   0.29717   0.78076   0.00000  Uiso   1.00
O971   O     0.07870   0.26920   0.79782   0.00000  Uiso   1.00
H972   H     0.08704   0.30208   0.80018   0.00000  Uiso   1.00
O973   O     0.13760   0.04808   0.67750   0.00000  Uiso   1.00
H974   H     0.13658   0.02686   0.65144   0.00000  Uiso   1.00
O975   O     0.20411   0.28740   0.81928   0.00000  Uiso   1.00
H976   H     0.21962   0.26148   0.80644   0.00000  Uiso   1.00
O977   O     0.19866   0.04986   0.82130   0.00000  Uiso   1.00
H978   H     0.20507   0.02906   0.84641   0.00000  Uiso   1.00
O979   O     0.13026   0.28644   0.67992   0.00000  Uiso   1.00
H980   H     0.11590   0.25975   0.69187   0.00000  Uiso   1.00
C981   C     0.42061   0.16716   0.74868   0.00000  Uiso   1.00
C982   C     0.57910   0.16685   0.74966   0.00000  Uiso   1.00
C983   C     0.43986   0.11735   0.52211   0.00000  Uiso   1.00
C984   C     0.57667   0.18259   0.98038   0.00000  Uiso   1.00
C985   C     0.35356   0.12692   0.74910   0.00000  Uiso   1.00
C986   C     0.64424   0.20880   0.73592   0.00000  Uiso   1.00
C987   C     0.64656   0.12882   0.76105   0.00000  Uiso   1.00
C988   C     0.35295   0.21165   0.74662   0.00000  Uiso   1.00
C989   C     0.62355   0.16810   0.74873   0.00000  Uiso   1.00
C990   C     0.37559   0.16888   0.74792   0.00000  Uiso   1.00
C991   C     0.48522   0.02449   0.71408   0.00000  Uiso   1.00
C992   C     0.51729   0.30914   0.78477   0.00000  Uiso   1.00
C993   C     0.51566   0.02527   0.78564   0.00000  Uiso   1.00
C994   C     0.48325   0.30852   0.71499   0.00000  Uiso   1.00
C995   C     0.50242   0.16605   0.66470   0.00000  Uiso   1.00
C996   C     0.49974   0.16682   0.83558   0.00000  Uiso   1.00
C997   C     0.53734   0.17865   0.90804   0.00000  Uiso   1.00
C998   C     0.46724   0.15490   0.59121   0.00000  Uiso   1.00
C999   C     0.50101   0.16629   0.88435   0.00000  Uiso   1.00
C1000  C     0.50358   0.16353   0.61630   0.00000  Uiso   1.00
C1001  C     0.46697   0.14973   0.90675   0.00000  Uiso   1.00
C1002  C     0.54117   0.16188   0.59473   0.00000  Uiso   1.00
C1003  C     0.47052   0.14116   0.95276   0.00000  Uiso   1.00
C1004  C     0.54047   0.16953   0.54864   0.00000  Uiso   1.00
C1005  C     0.50547   0.15694   0.97692   0.00000  Uiso   1.00
C1006  C     0.50537   0.15667   0.52365   0.00000  Uiso   1.00
C1007  C     0.54029   0.17280   0.95470   0.00000  Uiso   1.00
C1008  C     0.47011   0.14308   0.54583   0.00000  Uiso   1.00
C1009  C     0.44055   0.11611   0.97527   0.00000  Uiso   1.00
C1010  C     0.57513   0.18523   0.52686   0.00000  Uiso   1.00
Cu1011 Cu    0.50000   0.21355   0.75000   0.00000  Uiso   1.00
Cu1012 Cu    0.50000   0.11978   0.75000   0.00000  Uiso   1.00
N1013  N     0.50000   0.28402   0.75000   0.00000  Uiso   1.00
N1014  N     0.50000   0.04931   0.75000   0.00000  Uiso   1.00
O1015  O     0.43988   0.20625   0.75000   0.00000  Uiso   1.00
O1016  O     0.56012   0.12709   0.75001   0.00000  Uiso   1.00
O1017  O     0.56012   0.20625   0.75001   0.00000  Uiso   1.00
O1018  O     0.43988   0.12709   0.75000   0.00000  Uiso   1.00
O1019  O     0.49999   0.20627   0.68513   0.00000  Uiso   1.00
O1020  O     0.50001   0.12707   0.81487   0.00000  Uiso   1.00
O1021  O     0.50001   0.20627   0.81487   0.00000  Uiso   1.00
O1022  O     0.49999   0.12707   0.68513   0.00000  Uiso   1.00
O1023  O     0.56844   0.20093   0.88709   0.00000  Uiso   1.00
H1024  H     0.56770   0.19404   0.85491   0.00000  Uiso   1.00
O1025  O     0.42910   0.15792   0.60943   0.00000  Uiso   1.00
H1026  H     0.43097   0.17277   0.63919   0.00000  Uiso   1.00
S1027  S     0.41830   0.14909   0.87860   0.00000  Uiso   1.00
O1028  O     0.41227   0.10340   0.85490   0.00000  Uiso   1.00
O1029  O     0.38456   0.15721   0.91046   0.00000  Uiso   1.00
O1030  O     0.41535   0.19174   0.84183   0.00000  Uiso   1.00
H1031  H     0.38581   0.19828   0.83825   0.00000  Uiso   1.00
S1032  S     0.58394   0.13070   0.61800   0.00000  Uiso   1.00
O1033  O     0.60307   0.10263   0.58165   0.00000  Uiso   1.00
O1034  O     0.61557   0.16292   0.63746   0.00000  Uiso   1.00
O1035  O     0.56982   0.09389   0.65735   0.00000  Uiso   1.00
H1036  H     0.59558   0.08049   0.66946   0.00000  Uiso   1.00
O1037  O     0.41518   0.08665   0.95117   0.00000  Uiso   1.00
H1038  H     0.38774   0.08874   0.96388   0.00000  Uiso   1.00
O1039  O     0.60731   0.20557   0.55014   0.00000  Uiso   1.00
H1040  H     0.59675   0.22072   0.57721   0.00000  Uiso   1.00
S1041  S     0.40684   0.07921   0.55019   0.00000  Uiso   1.00
O1042  O     0.42583   0.06532   0.59388   0.00000  Uiso   1.00
O1043  O     0.36710   0.10362   0.55795   0.00000  Uiso   1.00
O1044  O     0.39799   0.03041   0.52032   0.00000  Uiso   1.00
H1045  H     0.37784   0.01309   0.53734   0.00000  Uiso   1.00
S1046  S     0.62589   0.18697   0.95711   0.00000  Uiso   1.00
O1047  O     0.63017   0.15218   0.91998   0.00000  Uiso   1.00
O1048  O     0.63125   0.23507   0.93967   0.00000  Uiso   1.00
O1049  O     0.66287   0.17625   0.99554   0.00000  Uiso   1.00
H1050  H     0.35356   0.19365   0.98595   0.00000  Uiso   1.00
S1051  S     0.37075   0.07435   0.72469   0.00000  Uiso   1.00
O1052  O     0.39826   0.04905   0.75697   0.00000  Uiso   1.00
O1053  O     0.33556   0.04366   0.71140   0.00000  Uiso   1.00
O1054  O     0.39609   0.08694   0.67889   0.00000  Uiso   1.00
H1055  H     0.37588   0.10318   0.65955   0.00000  Uiso   1.00
S1056  S     0.61972   0.25462   0.70475   0.00000  Uiso   1.00
O1057  O     0.60319   0.29043   0.73615   0.00000  Uiso   1.00
O1058  O     0.64955   0.27704   0.67505   0.00000  Uiso   1.00
O1059  O     0.58078   0.23543   0.67232   0.00000  Uiso   1.00
H1060  H     0.56885   0.26355   0.65851   0.00000  Uiso   1.00
S1061  S     0.62875   0.08565   0.79708   0.00000  Uiso   1.00
O1062  O     0.60533   0.04965   0.77076   0.00000  Uiso   1.00
O1063  O     0.66421   0.06278   0.82085   0.00000  Uiso   1.00
O1064  O     0.59852   0.11040   0.83482   0.00000  Uiso   1.00
H1065  H     0.59872   0.08868   0.85999   0.00000  Uiso   1.00
S1066  S     0.37284   0.26827   0.76072   0.00000  Uiso   1.00
O1067  O     0.38596   0.29099   0.71907   0.00000  Uiso   1.00
O1068  O     0.33978   0.29717   0.78076   0.00000  Uiso   1.00
O1069  O     0.41203   0.26920   0.79782   0.00000  Uiso   1.00
H1070  H     0.42037   0.30208   0.80018   0.00000  Uiso   1.00
O1071  O     0.47093   0.04808   0.67750   0.00000  Uiso   1.00
H1072  H     0.46991   0.02686   0.65144   0.00000  Uiso   1.00
O1073  O     0.53744   0.28740   0.81928   0.00000  Uiso   1.00
H1074  H     0.55295   0.26148   0.80644   0.00000  Uiso   1.00
O1075  O     0.53200   0.04986   0.82130   0.00000  Uiso   1.00
H1076  H     0.53841   0.02906   0.84641   0.00000  Uiso   1.00
O1077  O     0.46359   0.28644   0.67992   0.00000  Uiso   1.00
H1078  H     0.44924   0.25975   0.69187   0.00000  Uiso   1.00
C1079  C     0.75394   0.16716   0.74868   0.00000  Uiso   1.00
C1080  C     0.91243   0.16685   0.74966   0.00000  Uiso   1.00
C1081  C     0.77319   0.11735   0.52211   0.00000  Uiso   1.00
C1082  C     0.91000   0.18259   0.98038   0.00000  Uiso   1.00
C1083  C     0.68689   0.12692   0.74910   0.00000  Uiso   1.00
C1084  C     0.97758   0.20880   0.73592   0.00000  Uiso   1.00
C1085  C     0.97989   0.12882   0.76105   0.00000  Uiso   1.00
C1086  C     0.68628   0.21165   0.74662   0.00000  Uiso   1.00
C1087  C     0.95688   0.16810   0.74873   0.00000  Uiso   1.00
C1088  C     0.70893   0.16888   0.74792   0.00000  Uiso   1.00
C1089  C     0.81855   0.02449   0.71408   0.00000  Uiso   1.00
C1090  C     0.85063   0.30914   0.78477   0.00000  Uiso   1.00
C1091  C     0.84899   0.02527   0.78564   0.00000  Uiso   1.00
C1092  C     0.81659   0.30852   0.71499   0.00000  Uiso   1.00
C1093  C     0.83575   0.16605   0.66470   0.00000  Uiso   1.00
C1094  C     0.83308   0.16682   0.83558   0.00000  Uiso   1.00
C1095  C     0.87067   0.17865   0.90804   0.00000  Uiso   1.00
C1096  C     0.80057   0.15490   0.59121   0.00000  Uiso   1.00
C1097  C     0.83434   0.16629   0.88435   0.00000  Uiso   1.00
C1098  C     0.83691   0.16353   0.61630   0.00000  Uiso   1.00
C1099  C     0.80031   0.14973   0.90675   0.00000  Uiso   1.00
C1100  C     0.87450   0.16188   0.59473   0.00000  Uiso   1.00
C1101  C     0.80385   0.14116   0.95276   0.00000  Uiso   1.00
C1102  C     0.87380   0.16953   0.54864   0.00000  Uiso   1.00
C1103  C     0.83880   0.15694   0.97692   0.00000  Uiso   1.00
C1104  C     0.83870   0.15667   0.52365   0.00000  Uiso   1.00
C1105  C     0.87362   0.17280   0.95470   0.00000  Uiso   1.00
C1106  C     0.80344   0.14308   0.54583   0.00000  Uiso   1.00
C1107  C     0.77388   0.11611   0.97527   0.00000  Uiso   1.00
C1108  C     0.90846   0.18523   0.52686   0.00000  Uiso   1.00
Cu1109 Cu    0.83333   0.21355   0.75000   0.00000  Uiso   1.00
Cu1110 Cu    0.83333   0.11978   0.75000   0.00000  Uiso   1.00
N1111  N     0.83333   0.28402   0.75000   0.00000  Uiso   1.00
N1112  N     0.83333   0.04931   0.75000   0.00000  Uiso   1.00
O1113  O     0.77321   0.20625   0.75000   0.00000  Uiso   1.00
O1114  O     0.89345   0.12709   0.75001   0.00000  Uiso   1.00
O1115  O     0.89345   0.20625   0.75001   0.00000  Uiso   1.00
O1116  O     0.77321   0.12709   0.75000   0.00000  Uiso   1.00
O1117  O     0.83332   0.20627   0.68513   0.00000  Uiso   1.00
O1118  O     0.83334   0.12707   0.81487   0.00000  Uiso   1.00
O1119  O     0.83334   0.20627   0.81487   0.00000  Uiso   1.00
O1120  O     0.83332   0.12707   0.68513   0.00000  Uiso   1.00
O1121  O     0.90177   0.20093   0.88709   0.00000  Uiso   1.00
H1122  H     0.90103   0.19404   0.85491   0.00000  Uiso   1.00
O1123  O     0.76243   0.15792   0.60943   0.00000  Uiso   1.00
H1124  H     0.76430   0.17277   0.63919   0.00000  Uiso   1.00
S1125  S     0.75163   0.14909   0.87860   0.00000  Uiso   1.00
O1126  O     0.74560   0.10340   0.85490   0.00000  Uiso   1.00
O1127  O     0.71789   0.15721   0.91046   0.00000  Uiso   1.00
O1128  O     0.74868   0.19174   0.84183   0.00000  Uiso   1.00
H1129  H     0.71914   0.19828   0.83825   0.00000  Uiso   1.00
S1130  S     0.91727   0.13070   0.61800   0.00000  Uiso   1.00
O1131  O     0.93641   0.10263   0.58165   0.00000  Uiso   1.00
O1132  O     0.94891   0.16292   0.63746   0.00000  Uiso   1.00
O1133  O     0.90315   0.09389   0.65735   0.00000  Uiso   1.00
H1134  H     0.92892   0.08049   0.66946   0.00000  Uiso   1.00
O1135  O     0.74852   0.08665   0.95117   0.00000  Uiso   1.00
H1136  H     0.72108   0.08874   0.96388   0.00000  Uiso   1.00
O1137  O     0.94064   0.20557   0.55014   0.00000  Uiso   1.00
H1138  H     0.93008   0.22072   0.57721   0.00000  Uiso   1.00
S1139  S     0.74018   0.07921   0.55019   0.00000  Uiso   1.00
O1140  O     0.75916   0.06532   0.59388   0.00000  Uiso   1.00
O1141  O     0.70043   0.10362   0.55795   0.00000  Uiso   1.00
O1142  O     0.73132   0.03041   0.52032   0.00000  Uiso   1.00
H1143  H     0.71117   0.01309   0.53734   0.00000  Uiso   1.00
S1144  S     0.95922   0.18697   0.95711   0.00000  Uiso   1.00
O1145  O     0.96351   0.15218   0.91998   0.00000  Uiso   1.00
O1146  O     0.96458   0.23507   0.93967   0.00000  Uiso   1.00
O1147  O     0.99620   0.17625   0.99554   0.00000  Uiso   1.00
H1148  H     0.68690   0.19365   0.98595   0.00000  Uiso   1.00
S1149  S     0.70409   0.07435   0.72469   0.00000  Uiso   1.00
O1150  O     0.73159   0.04905   0.75697   0.00000  Uiso   1.00
O1151  O     0.66889   0.04366   0.71140   0.00000  Uiso   1.00
O1152  O     0.72942   0.08694   0.67889   0.00000  Uiso   1.00
H1153  H     0.70921   0.10318   0.65955   0.00000  Uiso   1.00
S1154  S     0.95305   0.25462   0.70475   0.00000  Uiso   1.00
O1155  O     0.93652   0.29043   0.73615   0.00000  Uiso   1.00
O1156  O     0.98289   0.27704   0.67505   0.00000  Uiso   1.00
O1157  O     0.91411   0.23543   0.67232   0.00000  Uiso   1.00
H1158  H     0.90218   0.26355   0.65851   0.00000  Uiso   1.00
S1159  S     0.96209   0.08565   0.79708   0.00000  Uiso   1.00
O1160  O     0.93866   0.04965   0.77076   0.00000  Uiso   1.00
O1161  O     0.99754   0.06278   0.82085   0.00000  Uiso   1.00
O1162  O     0.93185   0.11040   0.83482   0.00000  Uiso   1.00
H1163  H     0.93206   0.08868   0.85999   0.00000  Uiso   1.00
S1164  S     0.70618   0.26827   0.76072   0.00000  Uiso   1.00
O1165  O     0.71929   0.29099   0.71907   0.00000  Uiso   1.00
O1166  O     0.67311   0.29717   0.78076   0.00000  Uiso   1.00
O1167  O     0.74537   0.26920   0.79782   0.00000  Uiso   1.00
H1168  H     0.75370   0.30208   0.80018   0.00000  Uiso   1.00
O1169  O     0.80426   0.04808   0.67750   0.00000  Uiso   1.00
H1170  H     0.80324   0.02686   0.65144   0.00000  Uiso   1.00
O1171  O     0.87078   0.28740   0.81928   0.00000  Uiso   1.00
H1172  H     0.88629   0.26148   0.80644   0.00000  Uiso   1.00
O1173  O     0.86533   0.04986   0.82130   0.00000  Uiso   1.00
H1174  H     0.87174   0.02906   0.84641   0.00000  Uiso   1.00
O1175  O     0.79692   0.28644   0.67992   0.00000  Uiso   1.00
H1176  H     0.78257   0.25975   0.69187   0.00000  Uiso   1.00
C1177  C     0.08728   0.50050   0.74868   0.00000  Uiso   1.00
C1178  C     0.24577   0.50018   0.74966   0.00000  Uiso   1.00
C1179  C     0.10653   0.45068   0.52211   0.00000  Uiso   1.00
C1180  C     0.24334   0.51592   0.98038   0.00000  Uiso   1.00
C1181  C     0.02022   0.46025   0.74910   0.00000  Uiso   1.00
C1182  C     0.31091   0.54213   0.73592   0.00000  Uiso   1.00
C1183  C     0.31323   0.46216   0.76105   0.00000  Uiso   1.00
C1184  C     0.01961   0.54499   0.74662   0.00000  Uiso   1.00
C1185  C     0.29022   0.50143   0.74873   0.00000  Uiso   1.00
C1186  C     0.04226   0.50222   0.74792   0.00000  Uiso   1.00
C1187  C     0.15188   0.35782   0.71408   0.00000  Uiso   1.00
C1188  C     0.18396   0.64247   0.78477   0.00000  Uiso   1.00
C1189  C     0.18233   0.35860   0.78564   0.00000  Uiso   1.00
C1190  C     0.14992   0.64185   0.71499   0.00000  Uiso   1.00
C1191  C     0.16909   0.49939   0.66470   0.00000  Uiso   1.00
C1192  C     0.16641   0.50015   0.83558   0.00000  Uiso   1.00
C1193  C     0.20401   0.51198   0.90804   0.00000  Uiso   1.00
C1194  C     0.13391   0.48823   0.59121   0.00000  Uiso   1.00
C1195  C     0.16767   0.49962   0.88435   0.00000  Uiso   1.00
C1196  C     0.17024   0.49686   0.61630   0.00000  Uiso   1.00
C1197  C     0.13364   0.48306   0.90675   0.00000  Uiso   1.00
C1198  C     0.20784   0.49521   0.59473   0.00000  Uiso   1.00
C1199  C     0.13718   0.47449   0.95276   0.00000  Uiso   1.00
C1200  C     0.20713   0.50286   0.54864   0.00000  Uiso   1.00
C1201  C     0.17213   0.49027   0.97692   0.00000  Uiso   1.00
C1202  C     0.17203   0.49000   0.52365   0.00000  Uiso   1.00
C1203  C     0.20695   0.50614   0.95470   0.00000  Uiso   1.00
C1204  C     0.13677   0.47642   0.54583   0.00000  Uiso   1.00
C1205  C     0.10721   0.44944   0.97527   0.00000  Uiso   1.00
C1206  C     0.24180   0.51856   0.52686   0.00000  Uiso   1.00
Cu1207 Cu    0.16667   0.54689   0.75000   0.00000  Uiso   1.00
Cu1208 Cu    0.16667   0.45311   0.75000   0.00000  Uiso   1.00
N1209  N     0.16667   0.61736   0.75000   0.00000  Uiso   1.00
N1210  N     0.16667   0.38264   0.75000   0.00000  Uiso   1.00
O1211  O     0.10655   0.53958   0.75000   0.00000  Uiso   1.00
O1212  O     0.22679   0.46042   0.75001   0.00000  Uiso   1.00
O1213  O     0.22679   0.53958   0.75001   0.00000  Uiso   1.00
O1214  O     0.10655   0.46042   0.75000   0.00000  Uiso   1.00
O1215  O     0.16666   0.53960   0.68513   0.00000  Uiso   1.00
O1216  O     0.16668   0.46040   0.81487   0.00000  Uiso   1.00
O1217  O     0.16668   0.53960   0.81487   0.00000  Uiso   1.00
O1218  O     0.16666   0.46040   0.68513   0.00000  Uiso   1.00
O1219  O     0.23511   0.53426   0.88709   0.00000  Uiso   1.00
H1220  H     0.23436   0.52737   0.85491   0.00000  Uiso   1.00
O1221  O     0.09576   0.49126   0.60943   0.00000  Uiso   1.00
H1222  H     0.09764   0.50610   0.63919   0.00000  Uiso   1.00
S1223  S     0.08497   0.48242   0.87860   0.00000  Uiso   1.00
O1224  O     0.07894   0.43673   0.85490   0.00000  Uiso   1.00
O1225  O     0.05123   0.49054   0.91046   0.00000  Uiso   1.00
O1226  O     0.08202   0.52508   0.84183   0.00000  Uiso   1.00
H1227  H     0.05248   0.53161   0.83825   0.00000  Uiso   1.00
S1228  S     0.25061   0.46403   0.61800   0.00000  Uiso   1.00
O1229  O     0.26974   0.43596   0.58165   0.00000  Uiso   1.00
O1230  O     0.28224   0.49625   0.63746   0.00000  Uiso   1.00
O1231  O     0.23648   0.42722   0.65735   0.00000  Uiso   1.00
H1232  H     0.26225   0.41382   0.66946   0.00000  Uiso   1.00
O1233  O     0.08185   0.41998   0.95117   0.00000  Uiso   1.00
H1234  H     0.05441   0.42208   0.96388   0.00000  Uiso   1.00
O1235  O     0.27397   0.53890   0.55014   0.00000  Uiso   1.00
H1236  H     0.26341   0.55405   0.57721   0.00000  Uiso   1.00
S1237  S     0.07351   0.41254   0.55019   0.00000  Uiso   1.00
O1238  O     0.09249   0.39865   0.59388   0.00000  Uiso   1.00
O1239  O     0.03376   0.43695   0.55795   0.00000  Uiso   1.00
O1240  O     0.06465   0.36374   0.52032   0.00000  Uiso   1.00
H1241  H     0.04451   0.34642   0.53734   0.00000  Uiso   1.00
S1242  S     0.29256   0.52031   0.95711   0.00000  Uiso   1.00
O1243  O     0.29684   0.48551   0.91998   0.00000  Uiso   1.00
O1244  O     0.29791   0.56840   0.93967   0.00000  Uiso   1.00
O1245  O     0.32954   0.50958   0.99554   0.00000  Uiso   1.00
H1246  H     0.02023   0.52699   0.98595   0.00000  Uiso   1.00
S1247  S     0.03742   0.40768   0.72469   0.00000  Uiso   1.00
O1248  O     0.06492   0.38239   0.75697   0.00000  Uiso   1.00
O1249  O     0.00223   0.37699   0.71140   0.00000  Uiso   1.00
O1250  O     0.06275   0.42027   0.67889   0.00000  Uiso   1.00
H1251  H     0.04255   0.43651   0.65955   0.00000  Uiso   1.00
S1252  S     0.28638   0.58795   0.70475   0.00000  Uiso   1.00
O1253  O     0.26986   0.62376   0.73615   0.00000  Uiso   1.00
O1254  O     0.31622   0.61037   0.67505   0.00000  Uiso   1.00
O1255  O     0.24744   0.56876   0.67232   0.00000  Uiso   1.00
H1256  H     0.23551   0.59688   0.65851   0.00000  Uiso   1.00
S1257  S     0.29542   0.41898   0.79708   0.00000  Uiso   1.00
O1258  O     0.27199   0.38298   0.77076   0.00000  Uiso   1.00
O1259  O     0.33087   0.39611   0.82085   0.00000  Uiso   1.00
O1260  O     0.26518   0.44373   0.83482   0.00000  Uiso   1.00
H1261  H     0.26539   0.42201   0.85999   0.00000  Uiso   1.00
S1262  S     0.03951   0.60160   0.76072   0.00000  Uiso   1.00
O1263  O     0.05263   0.62432   0.71907   0.00000  Uiso   1.00
O1264  O     0.00645   0.63051   0.78076   0.00000  Uiso   1.00
O1265  O     0.07870   0.60253   0.79782   0.00000  Uiso   1.00
H1266  H     0.08704   0.63542   0.80018   0.00000  Uiso   1.00
O1267  O     0.13760   0.38141   0.67750   0.00000  Uiso   1.00
H1268  H     0.13658   0.36019   0.65144   0.00000  Uiso   1.00
O1269  O     0.20411   0.62074   0.81928   0.00000  Uiso   1.00
H1270  H     0.21962   0.59482   0.80644   0.00000  Uiso   1.00
O1271  O     0.19866   0.38319   0.82130   0.00000  Uiso   1.00
H1272  H     0.20507   0.36240   0.84641   0.00000  Uiso   1.00
O1273  O     0.13026   0.61978   0.67992   0.00000  Uiso   1.00
H1274  H     0.11590   0.59308   0.69187   0.00000  Uiso   1.00
C1275  C     0.42061   0.50050   0.74868   0.00000  Uiso   1.00
C1276  C     0.57910   0.50018   0.74966   0.00000  Uiso   1.00
C1277  C     0.43986   0.45068   0.52211   0.00000  Uiso   1.00
C1278  C     0.57667   0.51592   0.98038   0.00000  Uiso   1.00
C1279  C     0.35356   0.46025   0.74910   0.00000  Uiso   1.00
C1280  C     0.64424   0.54213   0.73592   0.00000  Uiso   1.00
C1281  C     0.64656   0.46216   0.76105   0.00000  Uiso   1.00
C1282  C     0.35295   0.54499   0.74662   0.00000  Uiso   1.00
C1283  C     0.62355   0.50143   0.74873   0.00000  Uiso   1.00
C1284  C     0.37559   0.50222   0.74792   0.00000  Uiso   1.00
C1285  C     0.48522   0.35782   0.71408   0.00000  Uiso   1.00
C1286  C     0.51729   0.64247   0.78477   0.00000  Uiso   1.00
C1287  C     0.51566   0.35860   0.78564   0.00000  Uiso   1.00
C1288  C     0.48325   0.64185   0.71499   0.00000  Uiso   1.00
C1289  C     0.50242   0.49939   0.66470   0.00000  Uiso   1.00
C1290  C     0.49974   0.50015   0.83558   0.00000  Uiso   1.00
C1291  C     0.53734   0.51198   0.90804   0.00000  Uiso   1.00
C1292  C     0.46724   0.48823   0.59121   0.00000  Uiso   1.00
C1293  C     0.50101   0.49962   0.88435   0.00000  Uiso   1.00
C1294  C     0.50358   0.49686   0.61630   0.00000  Uiso   1.00
C1295  C     0.46697   0.48306   0.90675   0.00000  Uiso   1.00
C1296  C     0.54117   0.49521   0.59473   0.00000  Uiso   1.00
C1297  C     0.47052   0.47449   0.95276   0.00000  Uiso   1.00
C1298  C     0.54047   0.50286   0.54864   0.00000  Uiso   1.00
C1299  C     0.50547   0.49027   0.97692   0.00000  Uiso   1.00
C1300  C     0.50537   0.49000   0.52365   0.00000  Uiso   1.00
C1301  C     0.54029   0.50614   0.95470   0.00000  Uiso   1.00
C1302  C     0.47011   0.47642   0.54583   0.00000  Uiso   1.00
C1303  C     0.44055   0.44944   0.97527   0.00000  Uiso   1.00
C1304  C     0.57513   0.51856   0.52686   0.00000  Uiso   1.00
Cu1305 Cu    0.50000   0.54689   0.75000   0.00000  Uiso   1.00
Cu1306 Cu    0.50000   0.45311   0.75000   0.00000  Uiso   1.00
N1307  N     0.50000   0.61736   0.75000   0.00000  Uiso   1.00
N1308  N     0.50000   0.38264   0.75000   0.00000  Uiso   1.00
O1309  O     0.43988   0.53958   0.75000   0.00000  Uiso   1.00
O1310  O     0.56012   0.46042   0.75001   0.00000  Uiso   1.00
O1311  O     0.56012   0.53958   0.75001   0.00000  Uiso   1.00
O1312  O     0.43988   0.46042   0.75000   0.00000  Uiso   1.00
O1313  O     0.49999   0.53960   0.68513   0.00000  Uiso   1.00
O1314  O     0.50001   0.46040   0.81487   0.00000  Uiso   1.00
O1315  O     0.50001   0.53960   0.81487   0.00000  Uiso   1.00
O1316  O     0.49999   0.46040   0.68513   0.00000  Uiso   1.00
O1317  O     0.56844   0.53426   0.88709   0.00000  Uiso   1.00
H1318  H     0.56770   0.52737   0.85491   0.00000  Uiso   1.00
O1319  O     0.42910   0.49126   0.60943   0.00000  Uiso   1.00
H1320  H     0.43097   0.50610   0.63919   0.00000  Uiso   1.00
S1321  S     0.41830   0.48242   0.87860   0.00000  Uiso   1.00
O1322  O     0.41227   0.43673   0.85490   0.00000  Uiso   1.00
O1323  O     0.38456   0.49054   0.91046   0.00000  Uiso   1.00
O1324  O     0.41535   0.52508   0.84183   0.00000  Uiso   1.00
H1325  H     0.38581   0.53161   0.83825   0.00000  Uiso   1.00
S1326  S     0.58394   0.46403   0.61800   0.00000  Uiso   1.00
O1327  O     0.60307   0.43596   0.58165   0.00000  Uiso   1.00
O1328  O     0.61557   0.49625   0.63746   0.00000  Uiso   1.00
O1329  O     0.56982   0.42722   0.65735   0.00000  Uiso   1.00
H1330  H     0.59558   0.41382   0.66946   0.00000  Uiso   1.00
O1331  O     0.41518   0.41998   0.95117   0.00000  Uiso   1.00
H1332  H     0.38774   0.42208   0.96388   0.00000  Uiso   1.00
O1333  O     0.60731   0.53890   0.55014   0.00000  Uiso   1.00
H1334  H     0.59675   0.55405   0.57721   0.00000  Uiso   1.00
S1335  S     0.40684   0.41254   0.55019   0.00000  Uiso   1.00
O1336  O     0.42583   0.39865   0.59388   0.00000  Uiso   1.00
O1337  O     0.36710   0.43695   0.55795   0.00000  Uiso   1.00
O1338  O     0.39799   0.36374   0.52032   0.00000  Uiso   1.00
H1339  H     0.37784   0.34642   0.53734   0.00000  Uiso   1.00
S1340  S     0.62589   0.52031   0.95711   0.00000  Uiso   1.00
O1341  O     0.63017   0.48551   0.91998   0.00000  Uiso   1.00
O1342  O     0.63125   0.56840   0.93967   0.00000  Uiso   1.00
O1343  O     0.66287   0.50958   0.99554   0.00000  Uiso   1.00
H1344  H     0.35356   0.52699   0.98595   0.00000  Uiso   1.00
S1345  S     0.37075   0.40768   0.72469   0.00000  Uiso   1.00
O1346  O     0.39826   0.38239   0.75697   0.00000  Uiso   1.00
O1347  O     0.33556   0.37699   0.71140   0.00000  Uiso   1.00
O1348  O     0.39609   0.42027   0.67889   0.00000  Uiso   1.00
H1349  H     0.37588   0.43651   0.65955   0.00000  Uiso   1.00
S1350  S     0.61972   0.58795   0.70475   0.00000  Uiso   1.00
O1351  O     0.60319   0.62376   0.73615   0.00000  Uiso   1.00
O1352  O     0.64955   0.61037   0.67505   0.00000  Uiso   1.00
O1353  O     0.58078   0.56876   0.67232   0.00000  Uiso   1.00
H1354  H     0.56885   0.59688   0.65851   0.00000  Uiso   1.00
S1355  S     0.62875   0.41898   0.79708   0.00000  Uiso   1.00
O1356  O     0.60533   0.38298   0.77076   0.00000  Uiso   1.00
O1357  O     0.66421   0.39611   0.82085   0.00000  Uiso   1.00
O1358  O     0.59852   0.44373   0.83482   0.00000  Uiso   1.00
H1359  H     0.59872   0.42201   0.85999   0.00000  Uiso   1.00
S1360  S     0.37284   0.60160   0.76072   0.00000  Uiso   1.00
O1361  O     0.38596   0.62432   0.71907   0.00000  Uiso   1.00
O1362  O     0.33978   0.63051   0.78076   0.00000  Uiso   1.00
O1363  O     0.41203   0.60253   0.79782   0.00000  Uiso   1.00
H1364  H     0.42037   0.63542   0.80018   0.00000  Uiso   1.00
O1365  O     0.47093   0.38141   0.67750   0.00000  Uiso   1.00
H1366  H     0.46991   0.36019   0.65144   0.00000  Uiso   1.00
O1367  O     0.53744   0.62074   0.81928   0.00000  Uiso   1.00
H1368  H     0.55295   0.59482   0.80644   0.00000  Uiso   1.00
O1369  O     0.53200   0.38319   0.82130   0.00000  Uiso   1.00
H1370  H     0.53841   0.36240   0.84641   0.00000  Uiso   1.00
O1371  O     0.46359   0.61978   0.67992   0.00000  Uiso   1.00
H1372  H     0.44924   0.59308   0.69187   0.00000  Uiso   1.00
C1373  C     0.75394   0.50050   0.74868   0.00000  Uiso   1.00
C1374  C     0.91243   0.50018   0.74966   0.00000  Uiso   1.00
C1375  C     0.77319   0.45068   0.52211   0.00000  Uiso   1.00
C1376  C     0.91000   0.51592   0.98038   0.00000  Uiso   1.00
C1377  C     0.68689   0.46025   0.74910   0.00000  Uiso   1.00
C1378  C     0.97758   0.54213   0.73592   0.00000  Uiso   1.00
C1379  C     0.97989   0.46216   0.76105   0.00000  Uiso   1.00
C1380  C     0.68628   0.54499   0.74662   0.00000  Uiso   1.00
C1381  C     0.95688   0.50143   0.74873   0.00000  Uiso   1.00
C1382  C     0.70893   0.50222   0.74792   0.00000  Uiso   1.00
C1383  C     0.81855   0.35782   0.71408   0.00000  Uiso   1.00
C1384  C     0.85063   0.64247   0.78477   0.00000  Uiso   1.00
C1385  C     0.84899   0.35860   0.78564   0.00000  Uiso   1.00
C1386  C     0.81659   0.64185   0.71499   0.00000  Uiso   1.00
C1387  C     0.83575   0.49939   0.66470   0.00000  Uiso   1.00
C1388  C     0.83308   0.50015   0.83558   0.00000  Uiso   1.00
C1389  C     0.87067   0.51198   0.90804   0.00000  Uiso   1.00
C1390  C     0.80057   0.48823   0.59121   0.00000  Uiso   1.00
C1391  C     0.83434   0.49962   0.88435   0.00000  Uiso   1.00
C1392  C     0.83691   0.49686   0.61630   0.00000  Uiso   1.00
C1393  C     0.80031   0.48306   0.90675   0.00000  Uiso   1.00
C1394  C     0.87450   0.49521   0.59473   0.00000  Uiso   1.00
C1395  C     0.80385   0.47449   0.95276   0.00000  Uiso   1.00
C1396  C     0.87380   0.50286   0.54864   0.00000  Uiso   1.00
C1397  C     0.83880   0.49027   0.97692   0.00000  Uiso   1.00
C1398  C     0.83870   0.49000   0.52365   0.00000  Uiso   1.00
C1399  C     0.87362   0.50614   0.95470   0.00000  Uiso   1.00
C1400  C     0.80344   0.47642   0.54583   0.00000  Uiso   1.00
C1401  C     0.77388   0.44944   0.97527   0.00000  Uiso   1.00
C1402  C     0.90846   0.51856   0.52686   0.00000  Uiso   1.00
Cu1403 Cu    0.83333   0.54689   0.75000   0.00000  Uiso   1.00
Cu1404 Cu    0.83333   0.45311   0.75000   0.00000  Uiso   1.00
N1405  N     0.83333   0.61736   0.75000   0.00000  Uiso   1.00
N1406  N     0.83333   0.38264   0.75000   0.00000  Uiso   1.00
O1407  O     0.77321   0.53958   0.75000   0.00000  Uiso   1.00
O1408  O     0.89345   0.46042   0.75001   0.00000  Uiso   1.00
O1409  O     0.89345   0.53958   0.75001   0.00000  Uiso   1.00
O1410  O     0.77321   0.46042   0.75000   0.00000  Uiso   1.00
O1411  O     0.83332   0.53960   0.68513   0.00000  Uiso   1.00
O1412  O     0.83334   0.46040   0.81487   0.00000  Uiso   1.00
O1413  O     0.83334   0.53960   0.81487   0.00000  Uiso   1.00
O1414  O     0.83332   0.46040   0.68513   0.00000  Uiso   1.00
O1415  O     0.90177   0.53426   0.88709   0.00000  Uiso   1.00
H1416  H     0.90103   0.52737   0.85491   0.00000  Uiso   1.00
O1417  O     0.76243   0.49126   0.60943   0.00000  Uiso   1.00
H1418  H     0.76430   0.50610   0.63919   0.00000  Uiso   1.00
S1419  S     0.75163   0.48242   0.87860   0.00000  Uiso   1.00
O1420  O     0.74560   0.43673   0.85490   0.00000  Uiso   1.00
O1421  O     0.71789   0.49054   0.91046   0.00000  Uiso   1.00
O1422  O     0.74868   0.52508   0.84183   0.00000  Uiso   1.00
H1423  H     0.71914   0.53161   0.83825   0.00000  Uiso   1.00
S1424  S     0.91727   0.46403   0.61800   0.00000  Uiso   1.00
O1425  O     0.93641   0.43596   0.58165   0.00000  Uiso   1.00
O1426  O     0.94891   0.49625   0.63746   0.00000  Uiso   1.00
O1427  O     0.90315   0.42722   0.65735   0.00000  Uiso   1.00
H1428  H     0.92892   0.41382   0.66946   0.00000  Uiso   1.00
O1429  O     0.74852   0.41998   0.95117   0.00000  Uiso   1.00
H1430  H     0.72108   0.42208   0.96388   0.00000  Uiso   1.00
O1431  O     0.94064   0.53890   0.55014   0.00000  Uiso   1.00
H1432  H     0.93008   0.55405   0.57721   0.00000  Uiso   1.00
S1433  S     0.74018   0.41254   0.55019   0.00000  Uiso   1.00
O1434  O     0.75916   0.39865   0.59388   0.00000  Uiso   1.00
O1435  O     0.70043   0.43695   0.55795   0.00000  Uiso   1.00
O1436  O     0.73132   0.36374   0.52032   0.00000  Uiso   1.00
H1437  H     0.71117   0.34642   0.53734   0.00000  Uiso   1.00
S1438  S     0.95922   0.52031   0.95711   0.00000  Uiso   1.00
O1439  O     0.96351   0.48551   0.91998   0.00000  Uiso   1.00
O1440  O     0.96458   0.56840   0.93967   0.00000  Uiso   1.00
O1441  O     0.99620   0.50958   0.99554   0.00000  Uiso   1.00
H1442  H     0.68690   0.52699   0.98595   0.00000  Uiso   1.00
S1443  S     0.70409   0.40768   0.72469   0.00000  Uiso   1.00
O1444  O     0.73159   0.38239   0.75697   0.00000  Uiso   1.00
O1445  O     0.66889   0.37699   0.71140   0.00000  Uiso   1.00
O1446  O     0.72942   0.42027   0.67889   0.00000  Uiso   1.00
H1447  H     0.70921   0.43651   0.65955   0.00000  Uiso   1.00
S1448  S     0.95305   0.58795   0.70475   0.00000  Uiso   1.00
O1449  O     0.93652   0.62376   0.73615   0.00000  Uiso   1.00
O1450  O     0.98289   0.61037   0.67505   0.00000  Uiso   1.00
O1451  O     0.91411   0.56876   0.67232   0.00000  Uiso   1.00
H1452  H     0.90218   0.59688   0.65851   0.00000  Uiso   1.00
S1453  S     0.96209   0.41898   0.79708   0.00000  Uiso   1.00
O1454  O     0.93866   0.38298   0.77076   0.00000  Uiso   1.00
O1455  O     0.99754   0.39611   0.82085   0.00000  Uiso   1.00
O1456  O     0.93185   0.44373   0.83482   0.00000  Uiso   1.00
H1457  H     0.93206   0.42201   0.85999   0.00000  Uiso   1.00
S1458  S     0.70618   0.60160   0.76072   0.00000  Uiso   1.00
O1459  O     0.71929   0.62432   0.71907   0.00000  Uiso   1.00
O1460  O     0.67311   0.63051   0.78076   0.00000  Uiso   1.00
O1461  O     0.74537   0.60253   0.79782   0.00000  Uiso   1.00
H1462  H     0.75370   0.63542   0.80018   0.00000  Uiso   1.00
O1463  O     0.80426   0.38141   0.67750   0.00000  Uiso   1.00
H1464  H     0.80324   0.36019   0.65144   0.00000  Uiso   1.00
O1465  O     0.87078   0.62074   0.81928   0.00000  Uiso   1.00
H1466  H     0.88629   0.59482   0.80644   0.00000  Uiso   1.00
O1467  O     0.86533   0.38319   0.82130   0.00000  Uiso   1.00
H1468  H     0.87174   0.36240   0.84641   0.00000  Uiso   1.00
O1469  O     0.79692   0.61978   0.67992   0.00000  Uiso   1.00
H1470  H     0.78257   0.59308   0.69187   0.00000  Uiso   1.00
C1471  C     0.08728   0.83383   0.74868   0.00000  Uiso   1.00
C1472  C     0.24577   0.83352   0.74966   0.00000  Uiso   1.00
C1473  C     0.10653   0.78402   0.52211   0.00000  Uiso   1.00
C1474  C     0.24334   0.84926   0.98038   0.00000  Uiso   1.00
C1475  C     0.02022   0.79358   0.74910   0.00000  Uiso   1.00
C1476  C     0.31091   0.87546   0.73592   0.00000  Uiso   1.00
C1477  C     0.31323   0.79549   0.76105   0.00000  Uiso   1.00
C1478  C     0.01961   0.87832   0.74662   0.00000  Uiso   1.00
C1479  C     0.29022   0.83477   0.74873   0.00000  Uiso   1.00
C1480  C     0.04226   0.83555   0.74792   0.00000  Uiso   1.00
C1481  C     0.15188   0.69115   0.71408   0.00000  Uiso   1.00
C1482  C     0.18396   0.97581   0.78477   0.00000  Uiso   1.00
C1483  C     0.18233   0.69194   0.78564   0.00000  Uiso   1.00
C1484  C     0.14992   0.97518   0.71499   0.00000  Uiso   1.00
C1485  C     0.16909   0.83272   0.66470   0.00000  Uiso   1.00
C1486  C     0.16641   0.83348   0.83558   0.00000  Uiso   1.00
C1487  C     0.20401   0.84532   0.90804   0.00000  Uiso   1.00
C1488  C     0.13391   0.82156   0.59121   0.00000  Uiso   1.00
C1489  C     0.16767   0.83295   0.88435   0.00000  Uiso   1.00
C1490  C     0.17024   0.83020   0.61630   0.00000  Uiso   1.00
C1491  C     0.13364   0.81640   0.90675   0.00000  Uiso   1.00
C1492  C     0.20784   0.82855   0.59473   0.00000  Uiso   1.00
C1493  C     0.13718   0.80783   0.95276   0.00000  Uiso   1.00
C1494  C     0.20713   0.83620   0.54864   0.00000  Uiso   1.00
C1495  C     0.17213   0.82360   0.97692   0.00000  Uiso   1.00
C1496  C     0.17203   0.82334   0.52365   0.00000  Uiso   1.00
C1497  C     0.20695   0.83947   0.95470   0.00000  Uiso   1.00
C1498  C     0.13677   0.80975   0.54583   0.00000  Uiso   1.00
C1499  C     0.10721   0.78278   0.97527   0.00000  Uiso   1.00
C1500  C     0.24180   0.85189   0.52686   0.00000  Uiso   1.00
Cu1501 Cu    0.16667   0.88022   0.75000   0.00000  Uiso   1.00
Cu1502 Cu    0.16667   0.78645   0.75000   0.00000  Uiso   1.00
N1503  N     0.16667   0.95069   0.75000   0.00000  Uiso   1.00
N1504  N     0.16667   0.71598   0.75000   0.00000  Uiso   1.00
O1505  O     0.10655   0.87291   0.75000   0.00000  Uiso   1.00
O1506  O     0.22679   0.79375   0.75001   0.00000  Uiso   1.00
O1507  O     0.22679   0.87291   0.75001   0.00000  Uiso   1.00
O1508  O     0.10655   0.79375   0.75000   0.00000  Uiso   1.00
O1509  O     0.16666   0.87293   0.68513   0.00000  Uiso   1.00
O1510  O     0.16668   0.79373   0.81487   0.00000  Uiso   1.00
O1511  O     0.16668   0.87293   0.81487   0.00000  Uiso   1.00
O1512  O     0.16666   0.79373   0.68513   0.00000  Uiso   1.00
O1513  O     0.23511   0.86759   0.88709   0.00000  Uiso   1.00
H1514  H     0.23436   0.86070   0.85491   0.00000  Uiso   1.00
O1515  O     0.09576   0.82459   0.60943   0.00000  Uiso   1.00
H1516  H     0.09764   0.83944   0.63919   0.00000  Uiso   1.00
S1517  S     0.08497   0.81576   0.87860   0.00000  Uiso   1.00
O1518  O     0.07894   0.77006   0.85490   0.00000  Uiso   1.00
O1519  O     0.05123   0.82387   0.91046   0.00000  Uiso   1.00
O1520  O     0.08202   0.85841   0.84183   0.00000  Uiso   1.00
H1521  H     0.05248   0.86494   0.83825   0.00000  Uiso   1.00
S1522  S     0.25061   0.79737   0.61800   0.00000  Uiso   1.00
O1523  O     0.26974   0.76929   0.58165   0.00000  Uiso   1.00
O1524  O     0.28224   0.82958   0.63746   0.00000  Uiso   1.00
O1525  O     0.23648   0.76055   0.65735   0.00000  Uiso   1.00
H1526  H     0.26225   0.74716   0.66946   0.00000  Uiso   1.00
O1527  O     0.08185   0.75332   0.95117   0.00000  Uiso   1.00
H1528  H     0.05441   0.75541   0.96388   0.00000  Uiso   1.00
O1529  O     0.27397   0.87223   0.55014   0.00000  Uiso   1.00
H1530  H     0.26341   0.88739   0.57721   0.00000  Uiso   1.00
S1531  S     0.07351   0.74587   0.55019   0.00000  Uiso   1.00
O1532  O     0.09249   0.73199   0.59388   0.00000  Uiso   1.00
O1533  O     0.03376   0.77029   0.55795   0.00000  Uiso   1.00
O1534  O     0.06465   0.69707   0.52032   0.00000  Uiso   1.00
H1535  H     0.04451   0.67976   0.53734   0.00000  Uiso   1.00
S1536  S     0.29256   0.85364   0.95711   0.00000  Uiso   1.00
O1537  O     0.29684   0.81885   0.91998   0.00000  Uiso   1.00
O1538  O     0.29791   0.90174   0.93967   0.00000  Uiso   1.00
O1539  O     0.32954   0.84292   0.99554   0.00000  Uiso   1.00
H1540  H     0.02023   0.86032   0.98595   0.00000  Uiso   1.00
S1541  S     0.03742   0.74101   0.72469   0.00000  Uiso   1.00
O1542  O     0.06492   0.71572   0.75697   0.00000  Uiso   1.00
O1543  O     0.00223   0.71032   0.71140   0.00000  Uiso   1.00
O1544  O     0.06275   0.75360   0.67889   0.00000  Uiso   1.00
H1545  H     0.04255   0.76984   0.65955   0.00000  Uiso   1.00
S1546  S     0.28638   0.92128   0.70475   0.00000  Uiso   1.00
O1547  O     0.26986   0.95709   0.73615   0.00000  Uiso   1.00
O1548  O     0.31622   0.94371   0.67505   0.00000  Uiso   1.00
O1549  O     0.24744   0.90210   0.67232   0.00000  Uiso   1.00
H1550  H     0.23551   0.93022   0.65851   0.00000  Uiso   1.00
S1551  S     0.29542   0.75231   0.79708   0.00000  Uiso   1.00
O1552  O     0.27199   0.71631   0.77076   0.00000  Uiso   1.00
O1553  O     0.33087   0.72945   0.82085   0.00000  Uiso   1.00
O1554  O     0.26518   0.77706   0.83482   0.00000  Uiso   1.00
H1555  H     0.26539   0.75534   0.85999   0.00000  Uiso   1.00
S1556  S     0.03951   0.93493   0.76072   0.00000  Uiso   1.00
O1557  O     0.05263   0.95766   0.71907   0.00000  Uiso   1.00
O1558  O     0.00645   0.96384   0.78076   0.00000  Uiso   1.00
O1559  O     0.07870   0.93586   0.79782   0.00000  Uiso   1.00
H1560  H     0.08704   0.96875   0.80018   0.00000  Uiso   1.00
O1561  O     0.13760   0.71475   0.67750   0.00000  Uiso   1.00
H1562  H     0.13658   0.69352   0.65144   0.00000  Uiso   1.00
O1563  O     0.20411   0.95407   0.81928   0.00000  Uiso   1.00
H1564  H     0.21962   0.92815   0.80644   0.00000  Uiso   1.00
O1565  O     0.19866   0.71652   0.82130   0.00000  Uiso   1.00
H1566  H     0.20507   0.69573   0.84641   0.00000  Uiso   1.00
O1567  O     0.13026   0.95311   0.67992   0.00000  Uiso   1.00
H1568  H     0.11590   0.92641   0.69187   0.00000  Uiso   1.00
C1569  C     0.42061   0.83383   0.74868   0.00000  Uiso   1.00
C1570  C     0.57910   0.83352   0.74966   0.00000  Uiso   1.00
C1571  C     0.43986   0.78402   0.52211   0.00000  Uiso   1.00
C1572  C     0.57667   0.84926   0.98038   0.00000  Uiso   1.00
C1573  C     0.35356   0.79358   0.74910   0.00000  Uiso   1.00
C1574  C     0.64424   0.87546   0.73592   0.00000  Uiso   1.00
C1575  C     0.64656   0.79549   0.76105   0.00000  Uiso   1.00
C1576  C     0.35295   0.87832   0.74662   0.00000  Uiso   1.00
C1577  C     0.62355   0.83477   0.74873   0.00000  Uiso   1.00
C1578  C     0.37559   0.83555   0.74792   0.00000  Uiso   1.00
C1579  C     0.48522   0.69115   0.71408   0.00000  Uiso   1.00
C1580  C     0.51729   0.97581   0.78477   0.00000  Uiso   1.00
C1581  C     0.51566   0.69194   0.78564   0.00000  Uiso   1.00
C1582  C     0.48325   0.97518   0.71499   0.00000  Uiso   1.00
C1583  C     0.50242   0.83272   0.66470   0.00000  Uiso   1.00
C1584  C     0.49974   0.83348   0.83558   0.00000  Uiso   1.00
C1585  C     0.53734   0.84532   0.90804   0.00000  Uiso   1.00
C1586  C     0.46724   0.82156   0.59121   0.00000  Uiso   1.00
C1587  C     0.50101   0.83295   0.88435   0.00000  Uiso   1.00
C1588  C     0.50358   0.83020   0.61630   0.00000  Uiso   1.00
C1589  C     0.46697   0.81640   0.90675   0.00000  Uiso   1.00
C1590  C     0.54117   0.82855   0.59473   0.00000  Uiso   1.00
C1591  C     0.47052   0.80783   0.95276   0.00000  Uiso   1.00
C1592  C     0.54047   0.83620   0.54864   0.00000  Uiso   1.00
C1593  C     0.50547   0.82360   0.97692   0.00000  Uiso   1.00
C1594  C     0.50537   0.82334   0.52365   0.00000  Uiso   1.00
C1595  C     0.54029   0.83947   0.95470   0.00000  Uiso   1.00
C1596  C     0.47011   0.80975   0.54583   0.00000  Uiso   1.00
C1597  C     0.44055   0.78278   0.97527   0.00000  Uiso   1.00
C1598  C     0.57513   0.85189   0.52686   0.00000  Uiso   1.00
Cu1599 Cu    0.50000   0.88022   0.75000   0.00000  Uiso   1.00
Cu1600 Cu    0.50000   0.78645   0.75000   0.00000  Uiso   1.00
N1601  N     0.50000   0.95069   0.75000   0.00000  Uiso   1.00
N1602  N     0.50000   0.71598   0.75000   0.00000  Uiso   1.00
O1603  O     0.43988   0.87291   0.75000   0.00000  Uiso   1.00
O1604  O     0.56012   0.79375   0.75001   0.00000  Uiso   1.00
O1605  O     0.56012   0.87291   0.75001   0.00000  Uiso   1.00
O1606  O     0.43988   0.79375   0.75000   0.00000  Uiso   1.00
O1607  O     0.49999   0.87293   0.68513   0.00000  Uiso   1.00
O1608  O     0.50001   0.79373   0.81487   0.00000  Uiso   1.00
O1609  O     0.50001   0.87293   0.81487   0.00000  Uiso   1.00
O1610  O     0.49999   0.79373   0.68513   0.00000  Uiso   1.00
O1611  O     0.56844   0.86759   0.88709   0.00000  Uiso   1.00
H1612  H     0.56770   0.86070   0.85491   0.00000  Uiso   1.00
O1613  O     0.42910   0.82459   0.60943   0.00000  Uiso   1.00
H1614  H     0.43097   0.83944   0.63919   0.00000  Uiso   1.00
S1615  S     0.41830   0.81576   0.87860   0.00000  Uiso   1.00
O1616  O     0.41227   0.77006   0.85490   0.00000  Uiso   1.00
O1617  O     0.38456   0.82387   0.91046   0.00000  Uiso   1.00
O1618  O     0.41535   0.85841   0.84183   0.00000  Uiso   1.00
H1619  H     0.38581   0.86494   0.83825   0.00000  Uiso   1.00
S1620  S     0.58394   0.79737   0.61800   0.00000  Uiso   1.00
O1621  O     0.60307   0.76929   0.58165   0.00000  Uiso   1.00
O1622  O     0.61557   0.82958   0.63746   0.00000  Uiso   1.00
O1623  O     0.56982   0.76055   0.65735   0.00000  Uiso   1.00
H1624  H     0.59558   0.74716   0.66946   0.00000  Uiso   1.00
O1625  O     0.41518   0.75332   0.95117   0.00000  Uiso   1.00
H1626  H     0.38774   0.75541   0.96388   0.00000  Uiso   1.00
O1627  O     0.60731   0.87223   0.55014   0.00000  Uiso   1.00
H1628  H     0.59675   0.88739   0.57721   0.00000  Uiso   1.00
S1629  S     0.40684   0.74587   0.55019   0.00000  Uiso   1.00
O1630  O     0.42583   0.73199   0.59388   0.00000  Uiso   1.00
O1631  O     0.36710   0.77029   0.55795   0.00000  Uiso   1.00
O1632  O     0.39799   0.69707   0.52032   0.00000  Uiso   1.00
H1633  H     0.37784   0.67976   0.53734   0.00000  Uiso   1.00
S1634  S     0.62589   0.85364   0.95711   0.00000  Uiso   1.00
O1635  O     0.63017   0.81885   0.91998   0.00000  Uiso   1.00
O1636  O     0.63125   0.90174   0.93967   0.00000  Uiso   1.00
O1637  O     0.66287   0.84292   0.99554   0.00000  Uiso   1.00
H1638  H     0.35356   0.86032   0.98595   0.00000  Uiso   1.00
S1639  S     0.37075   0.74101   0.72469   0.00000  Uiso   1.00
O1640  O     0.39826   0.71572   0.75697   0.00000  Uiso   1.00
O1641  O     0.33556   0.71032   0.71140   0.00000  Uiso   1.00
O1642  O     0.39609   0.75360   0.67889   0.00000  Uiso   1.00
H1643  H     0.37588   0.76984   0.65955   0.00000  Uiso   1.00
S1644  S     0.61972   0.92128   0.70475   0.00000  Uiso   1.00
O1645  O     0.60319   0.95709   0.73615   0.00000  Uiso   1.00
O1646  O     0.64955   0.94371   0.67505   0.00000  Uiso   1.00
O1647  O     0.58078   0.90210   0.67232   0.00000  Uiso   1.00
H1648  H     0.56885   0.93022   0.65851   0.00000  Uiso   1.00
S1649  S     0.62875   0.75231   0.79708   0.00000  Uiso   1.00
O1650  O     0.60533   0.71631   0.77076   0.00000  Uiso   1.00
O1651  O     0.66421   0.72945   0.82085   0.00000  Uiso   1.00
O1652  O     0.59852   0.77706   0.83482   0.00000  Uiso   1.00
H1653  H     0.59872   0.75534   0.85999   0.00000  Uiso   1.00
S1654  S     0.37284   0.93493   0.76072   0.00000  Uiso   1.00
O1655  O     0.38596   0.95766   0.71907   0.00000  Uiso   1.00
O1656  O     0.33978   0.96384   0.78076   0.00000  Uiso   1.00
O1657  O     0.41203   0.93586   0.79782   0.00000  Uiso   1.00
H1658  H     0.42037   0.96875   0.80018   0.00000  Uiso   1.00
O1659  O     0.47093   0.71475   0.67750   0.00000  Uiso   1.00
H1660  H     0.46991   0.69352   0.65144   0.00000  Uiso   1.00
O1661  O     0.53744   0.95407   0.81928   0.00000  Uiso   1.00
H1662  H     0.55295   0.92815   0.80644   0.00000  Uiso   1.00
O1663  O     0.53200   0.71652   0.82130   0.00000  Uiso   1.00
H1664  H     0.53841   0.69573   0.84641   0.00000  Uiso   1.00
O1665  O     0.46359   0.95311   0.67992   0.00000  Uiso   1.00
H1666  H     0.44924   0.92641   0.69187   0.00000  Uiso   1.00
C1667  C     0.75394   0.83383   0.74868   0.00000  Uiso   1.00
C1668  C     0.91243   0.83352   0.74966   0.00000  Uiso   1.00
C1669  C     0.77319   0.78402   0.52211   0.00000  Uiso   1.00
C1670  C     0.91000   0.84926   0.98038   0.00000  Uiso   1.00
C1671  C     0.68689   0.79358   0.74910   0.00000  Uiso   1.00
C1672  C     0.97758   0.87546   0.73592   0.00000  Uiso   1.00
C1673  C     0.97989   0.79549   0.76105   0.00000  Uiso   1.00
C1674  C     0.68628   0.87832   0.74662   0.00000  Uiso   1.00
C1675  C     0.95688   0.83477   0.74873   0.00000  Uiso   1.00
C1676  C     0.70893   0.83555   0.74792   0.00000  Uiso   1.00
C1677  C     0.81855   0.69115   0.71408   0.00000  Uiso   1.00
C1678  C     0.85063   0.97581   0.78477   0.00000  Uiso   1.00
C1679  C     0.84899   0.69194   0.78564   0.00000  Uiso   1.00
C1680  C     0.81659   0.97518   0.71499   0.00000  Uiso   1.00
C1681  C     0.83575   0.83272   0.66470   0.00000  Uiso   1.00
C1682  C     0.83308   0.83348   0.83558   0.00000  Uiso   1.00
C1683  C     0.87067   0.84532   0.90804   0.00000  Uiso   1.00
C1684  C     0.80057   0.82156   0.59121   0.00000  Uiso   1.00
C1685  C     0.83434   0.83295   0.88435   0.00000  Uiso   1.00
C1686  C     0.83691   0.83020   0.61630   0.00000  Uiso   1.00
C1687  C     0.80031   0.81640   0.90675   0.00000  Uiso   1.00
C1688  C     0.87450   0.82855   0.59473   0.00000  Uiso   1.00
C1689  C     0.80385   0.80783   0.95276   0.00000  Uiso   1.00
C1690  C     0.87380   0.83620   0.54864   0.00000  Uiso   1.00
C1691  C     0.83880   0.82360   0.97692   0.00000  Uiso   1.00
C1692  C     0.83870   0.82334   0.52365   0.00000  Uiso   1.00
C1693  C     0.87362   0.83947   0.95470   0.00000  Uiso   1.00
C1694  C     0.80344   0.80975   0.54583   0.00000  Uiso   1.00
C1695  C     0.77388   0.78278   0.97527   0.00000  Uiso   1.00
C1696  C     0.90846   0.85189   0.52686   0.00000  Uiso   1.00
Cu1697 Cu    0.83333   0.88022   0.75000   0.00000  Uiso   1.00
Cu1698 Cu    0.83333   0.78645   0.75000   0.00000  Uiso   1.00
N1699  N     0.83333   0.95069   0.75000   0.00000  Uiso   1.00
N1700  N     0.83333   0.71598   0.75000   0.00000  Uiso   1.00
O1701  O     0.77321   0.87291   0.75000   0.00000  Uiso   1.00
O1702  O     0.89345   0.79375   0.75001   0.00000  Uiso   1.00
O1703  O     0.89345   0.87291   0.75001   0.00000  Uiso   1.00
O1704  O     0.77321   0.79375   0.75000   0.00000  Uiso   1.00
O1705  O     0.83332   0.87293   0.68513   0.00000  Uiso   1.00
O1706  O     0.83334   0.79373   0.81487   0.00000  Uiso   1.00
O1707  O     0.83334   0.87293   0.81487   0.00000  Uiso   1.00
O1708  O     0.83332   0.79373   0.68513   0.00000  Uiso   1.00
O1709  O     0.90177   0.86759   0.88709   0.00000  Uiso   1.00
H1710  H     0.90103   0.86070   0.85491   0.00000  Uiso   1.00
O1711  O     0.76243   0.82459   0.60943   0.00000  Uiso   1.00
H1712  H     0.76430   0.83944   0.63919   0.00000  Uiso   1.00
S1713  S     0.75163   0.81576   0.87860   0.00000  Uiso   1.00
O1714  O     0.74560   0.77006   0.85490   0.00000  Uiso   1.00
O1715  O     0.71789   0.82387   0.91046   0.00000  Uiso   1.00
O1716  O     0.74868   0.85841   0.84183   0.00000  Uiso   1.00
H1717  H     0.71914   0.86494   0.83825   0.00000  Uiso   1.00
S1718  S     0.91727   0.79737   0.61800   0.00000  Uiso   1.00
O1719  O     0.93641   0.76929   0.58165   0.00000  Uiso   1.00
O1720  O     0.94891   0.82958   0.63746   0.00000  Uiso   1.00
O1721  O     0.90315   0.76055   0.65735   0.00000  Uiso   1.00
H1722  H     0.92892   0.74716   0.66946   0.00000  Uiso   1.00
O1723  O     0.74852   0.75332   0.95117   0.00000  Uiso   1.00
H1724  H     0.72108   0.75541   0.96388   0.00000  Uiso   1.00
O1725  O     0.94064   0.87223   0.55014   0.00000  Uiso   1.00
H1726  H     0.93008   0.88739   0.57721   0.00000  Uiso   1.00
S1727  S     0.74018   0.74587   0.55019   0.00000  Uiso   1.00
O1728  O     0.75916   0.73199   0.59388   0.00000  Uiso   1.00
O1729  O     0.70043   0.77029   0.55795   0.00000  Uiso   1.00
O1730  O     0.73132   0.69707   0.52032   0.00000  Uiso   1.00
H1731  H     0.71117   0.67976   0.53734   0.00000  Uiso   1.00
S1732  S     0.95922   0.85364   0.95711   0.00000  Uiso   1.00
O1733  O     0.96351   0.81885   0.91998   0.00000  Uiso   1.00
O1734  O     0.96458   0.90174   0.93967   0.00000  Uiso   1.00
O1735  O     0.99620   0.84292   0.99554   0.00000  Uiso   1.00
H1736  H     0.68690   0.86032   0.98595   0.00000  Uiso   1.00
S1737  S     0.70409   0.74101   0.72469   0.00000  Uiso   1.00
O1738  O     0.73159   0.71572   0.75697   0.00000  Uiso   1.00
O1739  O     0.66889   0.71032   0.71140   0.00000  Uiso   1.00
O1740  O     0.72942   0.75360   0.67889   0.00000  Uiso   1.00
H1741  H     0.70921   0.76984   0.65955   0.00000  Uiso   1.00
S1742  S     0.95305   0.92128   0.70475   0.00000  Uiso   1.00
O1743  O     0.93652   0.95709   0.73615   0.00000  Uiso   1.00
O1744  O     0.98289   0.94371   0.67505   0.00000  Uiso   1.00
O1745  O     0.91411   0.90210   0.67232   0.00000  Uiso   1.00
H1746  H     0.90218   0.93022   0.65851   0.00000  Uiso   1.00
S1747  S     0.96209   0.75231   0.79708   0.00000  Uiso   1.00
O1748  O     0.93866   0.71631   0.77076   0.00000  Uiso   1.00
O1749  O     0.99754   0.72945   0.82085   0.00000  Uiso   1.00
O1750  O     0.93185   0.77706   0.83482   0.00000  Uiso   1.00
H1751  H     0.93206   0.75534   0.85999   0.00000  Uiso   1.00
S1752  S     0.70618   0.93493   0.76072   0.00000  Uiso   1.00
O1753  O     0.71929   0.95766   0.71907   0.00000  Uiso   1.00
O1754  O     0.67311   0.96384   0.78076   0.00000  Uiso   1.00
O1755  O     0.74537   0.93586   0.79782   0.00000  Uiso   1.00
H1756  H     0.75370   0.96875   0.80018   0.00000  Uiso   1.00
O1757  O     0.80426   0.71475   0.67750   0.00000  Uiso   1.00
H1758  H     0.80324   0.69352   0.65144   0.00000  Uiso   1.00
O1759  O     0.87078   0.95407   0.81928   0.00000  Uiso   1.00
H1760  H     0.88629   0.92815   0.80644   0.00000  Uiso   1.00
O1761  O     0.86533   0.71652   0.82130   0.00000  Uiso   1.00
H1762  H     0.87174   0.69573   0.84641   0.00000  Uiso   1.00
O1763  O     0.79692   0.95311   0.67992   0.00000  Uiso   1.00
H1764  H     0.78257   0.92641   0.69187   0.00000  Uiso   1.00
loop_
_geom_bond_atom_site_label_1
_geom_bond_atom_site_label_2
_geom_bond_distance
_geom_bond_site_symmetry_2
_ccdc_geom_bond_type
C1     O38     1.316   .     A
C1     O35     1.296   .     A
C1     C10     1.479   .     S
C2     O36     1.310   .     A
C2     O37     1.294   .     A
C2     C9      1.462   .     S
C3     C28     1.415   .     A
C3     S61     1.788   .     S
C3     C911    1.412   1_554 S
C4     C27     1.432   .     A
C4     S66     1.787   .     S
C4     C912    1.404   .     S
C5     S71     1.774   .     S
C5     C10     1.416   .     A
C5     C203    1.384   1_455 S
C6     C9      1.424   .     A
C6     S76     1.805   .     S
C6     C106    1.412   .     S
C7     S81     1.776   .     S
C7     C9      1.407   .     A
C7     C103    1.384   .     S
C8     S86     1.804   .     S
C8     C10     1.438   .     A
C8     C202    1.412   1_455 S
C11    N34     1.369   .     A
C11    O91     1.373   .     S
C11    C602    1.425   1_545 S
C12    O93     1.373   .     S
C12    N33     1.377   .     A
C12    C307    1.428   .     S
C13    O95     1.377   .     S
C13    N34     1.372   .     A
C13    C600    1.428   1_545 S
C14    N33     1.377   .     A
C14    O97     1.374   .     S
C14    C305    1.425   .     S
C15    C20     1.461   .     S
C15    O39     1.309   .     A
C15    O42     1.294   .     A
C16    O40     1.299   .     A
C16    C19     1.469   .     S
C16    O41     1.306   .     A
C17    C27     1.419   .     A
C17    O43     1.383   .     S
C17    C19     1.418   .     A
C18    C20     1.416   .     A
C18    C28     1.410   .     A
C18    O45     1.384   .     S
C19    C21     1.412   .     A
C20    C22     1.412   .     A
C21    C23     1.413   .     A
C21    S47     1.788   .     S
C22    C24     1.409   .     A
C22    S52     1.795   .     S
C23    C25     1.416   .     A
C23    C29     1.419   .     A
C24    C26     1.408   .     A
C24    C30     1.411   .     A
C25    C27     1.423   .     A
C25    C908    1.408   .     S
C26    C28     1.414   .     A
C26    C907    1.408   1_554 S
C29    O57     1.379   .     S
C29    C885    1.412   .     S
C30    O59     1.381   .     S
C30    C886    1.404   1_554 S
Cu31   N33     2.034   .     S
Cu31   O37     1.985   .     S
Cu31   Cu32    2.706   .     S
Cu31   O41     1.969   .     S
Cu31   O35     1.988   .     S
Cu31   O39     1.963   .     S
Cu32   O36     1.988   .     S
Cu32   O38     1.985   .     S
Cu32   N34     2.034   .     S
Cu32   O40     1.963   .     S
Cu32   O42     1.969   .     S
O43    H44     0.987   .     S
O45    H46     0.989   .     S
S47    O49     1.502   .     D
S47    O48     1.503   .     D
S47    O50     1.668   .     S
O50    H51     0.991   .     S
S52    O55     1.680   .     S
S52    O54     1.500   .     D
S52    O53     1.504   .     D
O55    H56     0.991   .     S
O57    H58     0.991   .     S
O59    H60     0.991   .     S
S61    O63     1.503   .     D
S61    O64     1.683   .     S
S61    O62     1.499   .     D
O64    H65     0.991   .     S
S66    O68     1.504   .     D
S66    O69     1.684   .     S
S66    O67     1.502   .     D
O69    H168    0.990   .     S
H70    O265    0.990   1_455 S
S71    O74     1.677   .     S
S71    O72     1.502   .     D
S71    O73     1.502   .     D
O74    H75     0.991   .     S
S76    O79     1.679   .     S
S76    O78     1.502   .     D
S76    O77     1.501   .     D
O79    H80     0.991   .     S
S81    O82     1.501   .     D
S81    O83     1.504   .     D
S81    O84     1.681   .     S
O84    H85     0.990   .     S
S86    O88     1.501   .     D
S86    O87     1.499   .     D
S86    O89     1.681   .     S
O89    H90     0.990   .     S
O91    H92     0.989   .     S
O93    H94     0.984   .     S
O95    H96     0.989   .     S
O97    H98     0.984   .     S
C99    O136    1.316   .     A
C99    O133    1.296   .     A
C99    C108    1.479   .     S
C100   O134    1.310   .     A
C100   O135    1.294   .     A
C100   C107    1.462   .     S
C101   C126    1.415   .     A
C101   S159    1.788   .     S
C101   C1009   1.412   1_554 S
C102   C125    1.432   .     A
C102   S164    1.787   .     S
C102   C1010   1.404   .     S
C103   S169    1.774   .     S
C103   C108    1.416   .     A
C104   C107    1.424   .     A
C104   S174    1.805   .     S
C104   C204    1.412   .     S
C105   S179    1.776   .     S
C105   C107    1.407   .     A
C105   C201    1.384   .     S
C106   S184    1.804   .     S
C106   C108    1.438   .     A
C109   N132    1.369   .     A
C109   O189    1.373   .     S
C109   C700    1.425   1_545 S
C110   O191    1.373   .     S
C110   N131    1.377   .     A
C110   C405    1.428   .     S
C111   O193    1.377   .     S
C111   N132    1.372   .     A
C111   C698    1.428   1_545 S
C112   N131    1.377   .     A
C112   O195    1.374   .     S
C112   C403    1.425   .     S
C113   C118    1.461   .     S
C113   O137    1.309   .     A
C113   O140    1.294   .     A
C114   O138    1.299   .     A
C114   C117    1.469   .     S
C114   O139    1.306   .     A
C115   C125    1.419   .     A
C115   O141    1.383   .     S
C115   C117    1.418   .     A
C116   C118    1.416   .     A
C116   C126    1.410   .     A
C116   O143    1.384   .     S
C117   C119    1.412   .     A
C118   C120    1.412   .     A
C119   C121    1.413   .     A
C119   S145    1.788   .     S
C120   C122    1.409   .     A
C120   S150    1.795   .     S
C121   C123    1.416   .     A
C121   C127    1.419   .     A
C122   C124    1.408   .     A
C122   C128    1.411   .     A
C123   C125    1.423   .     A
C123   C1006   1.408   .     S
C124   C126    1.414   .     A
C124   C1005   1.408   1_554 S
C127   O155    1.379   .     S
C127   C983    1.412   .     S
C128   O157    1.381   .     S
C128   C984    1.404   1_554 S
Cu129  N131    2.034   .     S
Cu129  O135    1.985   .     S
Cu129  Cu130   2.706   .     S
Cu129  O139    1.969   .     S
Cu129  O133    1.988   .     S
Cu129  O137    1.963   .     S
Cu130  O134    1.988   .     S
Cu130  O136    1.985   .     S
Cu130  N132    2.034   .     S
Cu130  O138    1.963   .     S
Cu130  O140    1.969   .     S
O141   H142    0.987   .     S
O143   H144    0.989   .     S
S145   O147    1.502   .     D
S145   O146    1.503   .     D
S145   O148    1.668   .     S
O148   H149    0.991   .     S
S150   O153    1.680   .     S
S150   O152    1.500   .     D
S150   O151    1.504   .     D
O153   H154    0.991   .     S
O155   H156    0.991   .     S
O157   H158    0.991   .     S
S159   O161    1.503   .     D
S159   O162    1.683   .     S
S159   O160    1.499   .     D
O162   H163    0.991   .     S
S164   O166    1.504   .     D
S164   O167    1.684   .     S
S164   O165    1.502   .     D
O167   H266    0.990   .     S
S169   O172    1.677   .     S
S169   O170    1.502   .     D
S169   O171    1.502   .     D
O172   H173    0.991   .     S
S174   O177    1.679   .     S
S174   O176    1.502   .     D
S174   O175    1.501   .     D
O177   H178    0.991   .     S
S179   O180    1.501   .     D
S179   O181    1.504   .     D
S179   O182    1.681   .     S
O182   H183    0.990   .     S
S184   O186    1.501   .     D
S184   O185    1.499   .     D
S184   O187    1.681   .     S
O187   H188    0.990   .     S
O189   H190    0.989   .     S
O191   H192    0.984   .     S
O193   H194    0.989   .     S
O195   H196    0.984   .     S
C197   O234    1.316   .     A
C197   O231    1.296   .     A
C197   C206    1.479   .     S
C198   O232    1.310   .     A
C198   O233    1.294   .     A
C198   C205    1.462   .     S
C199   C224    1.415   .     A
C199   S257    1.788   .     S
C199   C1107   1.412   1_554 S
C200   C223    1.432   .     A
C200   S262    1.787   .     S
C200   C1108   1.404   .     S
C201   S267    1.774   .     S
C201   C206    1.416   .     A
C202   C205    1.424   .     A
C202   S272    1.805   .     S
C202   C8      1.412   1_655 S
C203   S277    1.776   .     S
C203   C205    1.407   .     A
C203   C5      1.384   1_655 S
C204   S282    1.804   .     S
C204   C206    1.438   .     A
C207   N230    1.369   .     A
C207   O287    1.373   .     S
C207   C798    1.425   1_545 S
C208   O289    1.373   .     S
C208   N229    1.377   .     A
C208   C503    1.428   .     S
C209   O291    1.377   .     S
C209   N230    1.372   .     A
C209   C796    1.428   1_545 S
C210   N229    1.377   .     A
C210   O293    1.374   .     S
C210   C501    1.425   .     S
C211   C216    1.461   .     S
C211   O235    1.309   .     A
C211   O238    1.294   .     A
C212   O236    1.299   .     A
C212   C215    1.469   .     S
C212   O237    1.306   .     A
C213   C223    1.419   .     A
C213   O239    1.383   .     S
C213   C215    1.418   .     A
C214   C216    1.416   .     A
C214   C224    1.410   .     A
C214   O241    1.384   .     S
C215   C217    1.412   .     A
C216   C218    1.412   .     A
C217   C219    1.413   .     A
C217   S243    1.788   .     S
C218   C220    1.409   .     A
C218   S248    1.795   .     S
C219   C221    1.416   .     A
C219   C225    1.419   .     A
C220   C222    1.408   .     A
C220   C226    1.411   .     A
C221   C223    1.423   .     A
C221   C1104   1.408   .     S
C222   C224    1.414   .     A
C222   C1103   1.408   1_554 S
C225   O253    1.379   .     S
C225   C1081   1.412   .     S
C226   O255    1.381   .     S
C226   C1082   1.404   1_554 S
Cu227  N229    2.034   .     S
Cu227  O233    1.985   .     S
Cu227  Cu228   2.706   .     S
Cu227  O237    1.969   .     S
Cu227  O231    1.988   .     S
Cu227  O235    1.963   .     S
Cu228  O232    1.988   .     S
Cu228  O234    1.985   .     S
Cu228  N230    2.034   .     S
Cu228  O236    1.963   .     S
Cu228  O238    1.969   .     S
O239   H240    0.987   .     S
O241   H242    0.989   .     S
S243   O245    1.502   .     D
S243   O244    1.503   .     D
S243   O246    1.668   .     S
O246   H247    0.991   .     S
S248   O251    1.680   .     S
S248   O250    1.500   .     D
S248   O249    1.504   .     D
O251   H252    0.991   .     S
O253   H254    0.991   .     S
O255   H256    0.991   .     S
S257   O259    1.503   .     D
S257   O260    1.683   .     S
S257   O258    1.499   .     D
O260   H261    0.991   .     S
S262   O264    1.504   .     D
S262   O265    1.684   .     S
S262   O263    1.502   .     D
O265   H70     0.990   1_655 S
S267   O270    1.677   .     S
S267   O268    1.502   .     D
S267   O269    1.502   .     D
O270   H271    0.991   .     S
S272   O275    1.679   .     S
S272   O274    1.502   .     D
S272   O273    1.501   .     D
O275   H276    0.991   .     S
S277   O278    1.501   .     D
S277   O279    1.504   .     D
S277   O280    1.681   .     S
O280   H281    0.990   .     S
S282   O284    1.501   .     D
S282   O283    1.499   .     D
S282   O285    1.681   .     S
O285   H286    0.990   .     S
O287   H288    0.989   .     S
O289   H290    0.984   .     S
O291   H292    0.989   .     S
O293   H294    0.984   .     S
C295   O332    1.316   .     A
C295   O329    1.296   .     A
C295   C304    1.479   .     S
C296   O330    1.310   .     A
C296   O331    1.294   .     A
C296   C303    1.462   .     S
C297   C322    1.415   .     A
C297   S355    1.788   .     S
C297   C1205   1.412   1_554 S
C298   C321    1.432   .     A
C298   S360    1.787   .     S
C298   C1206   1.404   .     S
C299   S365    1.774   .     S
C299   C304    1.416   .     A
C299   C497    1.384   1_455 S
C300   C303    1.424   .     A
C300   S370    1.805   .     S
C300   C400    1.412   .     S
C301   S375    1.776   .     S
C301   C303    1.407   .     A
C301   C397    1.384   .     S
C302   S380    1.804   .     S
C302   C304    1.438   .     A
C302   C496    1.412   1_455 S
C305   N328    1.369   .     A
C305   O385    1.373   .     S
C306   O387    1.373   .     S
C306   N327    1.377   .     A
C306   C601    1.428   .     S
C307   O389    1.377   .     S
C307   N328    1.372   .     A
C308   N327    1.377   .     A
C308   O391    1.374   .     S
C308   C599    1.425   .     S
C309   C314    1.461   .     S
C309   O333    1.309   .     A
C309   O336    1.294   .     A
C310   O334    1.299   .     A
C310   C313    1.469   .     S
C310   O335    1.306   .     A
C311   C321    1.419   .     A
C311   O337    1.383   .     S
C311   C313    1.418   .     A
C312   C314    1.416   .     A
C312   C322    1.410   .     A
C312   O339    1.384   .     S
C313   C315    1.412   .     A
C314   C316    1.412   .     A
C315   C317    1.413   .     A
C315   S341    1.788   .     S
C316   C318    1.409   .     A
C316   S346    1.795   .     S
C317   C319    1.416   .     A
C317   C323    1.419   .     A
C318   C320    1.408   .     A
C318   C324    1.411   .     A
C319   C321    1.423   .     A
C319   C1202   1.408   .     S
C320   C322    1.414   .     A
C320   C1201   1.408   1_554 S
C323   O351    1.379   .     S
C323   C1179   1.412   .     S
C324   O353    1.381   .     S
C324   C1180   1.404   1_554 S
Cu325  N327    2.034   .     S
Cu325  O331    1.985   .     S
Cu325  Cu326   2.706   .     S
Cu325  O335    1.969   .     S
Cu325  O329    1.988   .     S
Cu325  O333    1.963   .     S
Cu326  O330    1.988   .     S
Cu326  O332    1.985   .     S
Cu326  N328    2.034   .     S
Cu326  O334    1.963   .     S
Cu326  O336    1.969   .     S
O337   H338    0.987   .     S
O339   H340    0.989   .     S
S341   O343    1.502   .     D
S341   O342    1.503   .     D
S341   O344    1.668   .     S
O344   H345    0.991   .     S
S346   O349    1.680   .     S
S346   O348    1.500   .     D
S346   O347    1.504   .     D
O349   H350    0.991   .     S
O351   H352    0.991   .     S
O353   H354    0.991   .     S
S355   O357    1.503   .     D
S355   O358    1.683   .     S
S355   O356    1.499   .     D
O358   H359    0.991   .     S
S360   O362    1.504   .     D
S360   O363    1.684   .     S
S360   O361    1.502   .     D
O363   H462    0.990   .     S
H364   O559    0.990   1_455 S
S365   O368    1.677   .     S
S365   O366    1.502   .     D
S365   O367    1.502   .     D
O368   H369    0.991   .     S
S370   O373    1.679   .     S
S370   O372    1.502   .     D
S370   O371    1.501   .     D
O373   H374    0.991   .     S
S375   O376    1.501   .     D
S375   O377    1.504   .     D
S375   O378    1.681   .     S
O378   H379    0.990   .     S
S380   O382    1.501   .     D
S380   O381    1.499   .     D
S380   O383    1.681   .     S
O383   H384    0.990   .     S
O385   H386    0.989   .     S
O387   H388    0.984   .     S
O389   H390    0.989   .     S
O391   H392    0.984   .     S
C393   O430    1.316   .     A
C393   O427    1.296   .     A
C393   C402    1.479   .     S
C394   O428    1.310   .     A
C394   O429    1.294   .     A
C394   C401    1.462   .     S
C395   C420    1.415   .     A
C395   S453    1.788   .     S
C395   C1303   1.412   1_554 S
C396   C419    1.432   .     A
C396   S458    1.787   .     S
C396   C1304   1.404   .     S
C397   S463    1.774   .     S
C397   C402    1.416   .     A
C398   C401    1.424   .     A
C398   S468    1.805   .     S
C398   C498    1.412   .     S
C399   S473    1.776   .     S
C399   C401    1.407   .     A
C399   C495    1.384   .     S
C400   S478    1.804   .     S
C400   C402    1.438   .     A
C403   N426    1.369   .     A
C403   O483    1.373   .     S
C404   O485    1.373   .     S
C404   N425    1.377   .     A
C404   C699    1.428   .     S
C405   O487    1.377   .     S
C405   N426    1.372   .     A
C406   N425    1.377   .     A
C406   O489    1.374   .     S
C406   C697    1.425   .     S
C407   C412    1.461   .     S
C407   O431    1.309   .     A
C407   O434    1.294   .     A
C408   O432    1.299   .     A
C408   C411    1.469   .     S
C408   O433    1.306   .     A
C409   C419    1.419   .     A
C409   O435    1.383   .     S
C409   C411    1.418   .     A
C410   C412    1.416   .     A
C410   C420    1.410   .     A
C410   O437    1.384   .     S
C411   C413    1.412   .     A
C412   C414    1.412   .     A
C413   C415    1.413   .     A
C413   S439    1.788   .     S
C414   C416    1.409   .     A
C414   S444    1.795   .     S
C415   C417    1.416   .     A
C415   C421    1.419   .     A
C416   C418    1.408   .     A
C416   C422    1.411   .     A
C417   C419    1.423   .     A
C417   C1300   1.408   .     S
C418   C420    1.414   .     A
C418   C1299   1.408   1_554 S
C421   O449    1.379   .     S
C421   C1277   1.412   .     S
C422   O451    1.381   .     S
C422   C1278   1.404   1_554 S
Cu423  N425    2.034   .     S
Cu423  O429    1.985   .     S
Cu423  Cu424   2.706   .     S
Cu423  O433    1.969   .     S
Cu423  O427    1.988   .     S
Cu423  O431    1.963   .     S
Cu424  O428    1.988   .     S
Cu424  O430    1.985   .     S
Cu424  N426    2.034   .     S
Cu424  O432    1.963   .     S
Cu424  O434    1.969   .     S
O435   H436    0.987   .     S
O437   H438    0.989   .     S
S439   O441    1.502   .     D
S439   O440    1.503   .     D
S439   O442    1.668   .     S
O442   H443    0.991   .     S
S444   O447    1.680   .     S
S444   O446    1.500   .     D
S444   O445    1.504   .     D
O447   H448    0.991   .     S
O449   H450    0.991   .     S
O451   H452    0.991   .     S
S453   O455    1.503   .     D
S453   O456    1.683   .     S
S453   O454    1.499   .     D
O456   H457    0.991   .     S
S458   O460    1.504   .     D
S458   O461    1.684   .     S
S458   O459    1.502   .     D
O461   H560    0.990   .     S
S463   O466    1.677   .     S
S463   O464    1.502   .     D
S463   O465    1.502   .     D
O466   H467    0.991   .     S
S468   O471    1.679   .     S
S468   O470    1.502   .     D
S468   O469    1.501   .     D
O471   H472    0.991   .     S
S473   O474    1.501   .     D
S473   O475    1.504   .     D
S473   O476    1.681   .     S
O476   H477    0.990   .     S
S478   O480    1.501   .     D
S478   O479    1.499   .     D
S478   O481    1.681   .     S
O481   H482    0.990   .     S
O483   H484    0.989   .     S
O485   H486    0.984   .     S
O487   H488    0.989   .     S
O489   H490    0.984   .     S
C491   O528    1.316   .     A
C491   O525    1.296   .     A
C491   C500    1.479   .     S
C492   O526    1.310   .     A
C492   O527    1.294   .     A
C492   C499    1.462   .     S
C493   C518    1.415   .     A
C493   S551    1.788   .     S
C493   C1401   1.412   1_554 S
C494   C517    1.432   .     A
C494   S556    1.787   .     S
C494   C1402   1.404   .     S
C495   S561    1.774   .     S
C495   C500    1.416   .     A
C496   C499    1.424   .     A
C496   S566    1.805   .     S
C496   C302    1.412   1_655 S
C497   S571    1.776   .     S
C497   C499    1.407   .     A
C497   C299    1.384   1_655 S
C498   S576    1.804   .     S
C498   C500    1.438   .     A
C501   N524    1.369   .     A
C501   O581    1.373   .     S
C502   O583    1.373   .     S
C502   N523    1.377   .     A
C502   C797    1.428   .     S
C503   O585    1.377   .     S
C503   N524    1.372   .     A
C504   N523    1.377   .     A
C504   O587    1.374   .     S
C504   C795    1.425   .     S
C505   C510    1.461   .     S
C505   O529    1.309   .     A
C505   O532    1.294   .     A
C506   O530    1.299   .     A
C506   C509    1.469   .     S
C506   O531    1.306   .     A
C507   C517    1.419   .     A
C507   O533    1.383   .     S
C507   C509    1.418   .     A
C508   C510    1.416   .     A
C508   C518    1.410   .     A
C508   O535    1.384   .     S
C509   C511    1.412   .     A
C510   C512    1.412   .     A
C511   C513    1.413   .     A
C511   S537    1.788   .     S
C512   C514    1.409   .     A
C512   S542    1.795   .     S
C513   C515    1.416   .     A
C513   C519    1.419   .     A
C514   C516    1.408   .     A
C514   C520    1.411   .     A
C515   C517    1.423   .     A
C515   C1398   1.408   .     S
C516   C518    1.414   .     A
C516   C1397   1.408   1_554 S
C519   O547    1.379   .     S
C519   C1375   1.412   .     S
C520   O549    1.381   .     S
C520   C1376   1.404   1_554 S
Cu521  N523    2.034   .     S
Cu521  O527    1.985   .     S
Cu521  Cu522   2.706   .     S
Cu521  O531    1.969   .     S
Cu521  O525    1.988   .     S
Cu521  O529    1.963   .     S
Cu522  O526    1.988   .     S
Cu522  O528    1.985   .     S
Cu522  N524    2.034   .     S
Cu522  O530    1.963   .     S
Cu522  O532    1.969   .     S
O533   H534    0.987   .     S
O535   H536    0.989   .     S
S537   O539    1.502   .     D
S537   O538    1.503   .     D
S537   O540    1.668   .     S
O540   H541    0.991   .     S
S542   O545    1.680   .     S
S542   O544    1.500   .     D
S542   O543    1.504   .     D
O545   H546    0.991   .     S
O547   H548    0.991   .     S
O549   H550    0.991   .     S
S551   O553    1.503   .     D
S551   O554    1.683   .     S
S551   O552    1.499   .     D
O554   H555    0.991   .     S
S556   O558    1.504   .     D
S556   O559    1.684   .     S
S556   O557    1.502   .     D
O559   H364    0.990   1_655 S
S561   O564    1.677   .     S
S561   O562    1.502   .     D
S561   O563    1.502   .     D
O564   H565    0.991   .     S
S566   O569    1.679   .     S
S566   O568    1.502   .     D
S566   O567    1.501   .     D
O569   H570    0.991   .     S
S571   O572    1.501   .     D
S571   O573    1.504   .     D
S571   O574    1.681   .     S
O574   H575    0.990   .     S
S576   O578    1.501   .     D
S576   O577    1.499   .     D
S576   O579    1.681   .     S
O579   H580    0.990   .     S
O581   H582    0.989   .     S
O583   H584    0.984   .     S
O585   H586    0.989   .     S
O587   H588    0.984   .     S
C589   O626    1.316   .     A
C589   O623    1.296   .     A
C589   C598    1.479   .     S
C590   O624    1.310   .     A
C590   O625    1.294   .     A
C590   C597    1.462   .     S
C591   C616    1.415   .     A
C591   S649    1.788   .     S
C591   C1499   1.412   1_554 S
C592   C615    1.432   .     A
C592   S654    1.787   .     S
C592   C1500   1.404   .     S
C593   S659    1.774   .     S
C593   C598    1.416   .     A
C593   C791    1.384   1_455 S
C594   C597    1.424   .     A
C594   S664    1.805   .     S
C594   C694    1.412   .     S
C595   S669    1.776   .     S
C595   C597    1.407   .     A
C595   C691    1.384   .     S
C596   S674    1.804   .     S
C596   C598    1.438   .     A
C596   C790    1.412   1_455 S
C599   N622    1.369   .     A
C599   O679    1.373   .     S
C600   O681    1.373   .     S
C600   N621    1.377   .     A
C600   C13     1.428   1_565 S
C601   O683    1.377   .     S
C601   N622    1.372   .     A
C602   N621    1.377   .     A
C602   O685    1.374   .     S
C602   C11     1.425   1_565 S
C603   C608    1.461   .     S
C603   O627    1.309   .     A
C603   O630    1.294   .     A
C604   O628    1.299   .     A
C604   C607    1.469   .     S
C604   O629    1.306   .     A
C605   C615    1.419   .     A
C605   O631    1.383   .     S
C605   C607    1.418   .     A
C606   C608    1.416   .     A
C606   C616    1.410   .     A
C606   O633    1.384   .     S
C607   C609    1.412   .     A
C608   C610    1.412   .     A
C609   C611    1.413   .     A
C609   S635    1.788   .     S
C610   C612    1.409   .     A
C610   S640    1.795   .     S
C611   C613    1.416   .     A
C611   C617    1.419   .     A
C612   C614    1.408   .     A
C612   C618    1.411   .     A
C613   C615    1.423   .     A
C613   C1496   1.408   .     S
C614   C616    1.414   .     A
C614   C1495   1.408   1_554 S
C617   O645    1.379   .     S
C617   C1473   1.412   .     S
C618   O647    1.381   .     S
C618   C1474   1.404   1_554 S
Cu619  N621    2.034   .     S
Cu619  O625    1.985   .     S
Cu619  Cu620   2.706   .     S
Cu619  O629    1.969   .     S
Cu619  O623    1.988   .     S
Cu619  O627    1.963   .     S
Cu620  O624    1.988   .     S
Cu620  O626    1.985   .     S
Cu620  N622    2.034   .     S
Cu620  O628    1.963   .     S
Cu620  O630    1.969   .     S
O631   H632    0.987   .     S
O633   H634    0.989   .     S
S635   O637    1.502   .     D
S635   O636    1.503   .     D
S635   O638    1.668   .     S
O638   H639    0.991   .     S
S640   O643    1.680   .     S
S640   O642    1.500   .     D
S640   O641    1.504   .     D
O643   H644    0.991   .     S
O645   H646    0.991   .     S
O647   H648    0.991   .     S
S649   O651    1.503   .     D
S649   O652    1.683   .     S
S649   O650    1.499   .     D
O652   H653    0.991   .     S
S654   O656    1.504   .     D
S654   O657    1.684   .     S
S654   O655    1.502   .     D
O657   H756    0.990   .     S
H658   O853    0.990   1_455 S
S659   O662    1.677   .     S
S659   O660    1.502   .     D
S659   O661    1.502   .     D
O662   H663    0.991   .     S
S664   O667    1.679   .     S
S664   O666    1.502   .     D
S664   O665    1.501   .     D
O667   H668    0.991   .     S
S669   O670    1.501   .     D
S669   O671    1.504   .     D
S669   O672    1.681   .     S
O672   H673    0.990   .     S
S674   O676    1.501   .     D
S674   O675    1.499   .     D
S674   O677    1.681   .     S
O677   H678    0.990   .     S
O679   H680    0.989   .     S
O681   H682    0.984   .     S
O683   H684    0.989   .     S
O685   H686    0.984   .     S
C687   O724    1.316   .     A
C687   O721    1.296   .     A
C687   C696    1.479   .     S
C688   O722    1.310   .     A
C688   O723    1.294   .     A
C688   C695    1.462   .     S
C689   C714    1.415   .     A
C689   S747    1.788   .     S
C689   C1597   1.412   1_554 S
C690   C713    1.432   .     A
C690   S752    1.787   .     S
C690   C1598   1.404   .     S
C691   S757    1.774   .     S
C691   C696    1.416   .     A
C692   C695    1.424   .     A
C692   S762    1.805   .     S
C692   C792    1.412   .     S
C693   S767    1.776   .     S
C693   C695    1.407   .     A
C693   C789    1.384   .     S
C694   S772    1.804   .     S
C694   C696    1.438   .     A
C697   N720    1.369   .     A
C697   O777    1.373   .     S
C698   O779    1.373   .     S
C698   N719    1.377   .     A
C698   C111    1.428   1_565 S
C699   O781    1.377   .     S
C699   N720    1.372   .     A
C700   N719    1.377   .     A
C700   O783    1.374   .     S
C700   C109    1.425   1_565 S
C701   C706    1.461   .     S
C701   O725    1.309   .     A
C701   O728    1.294   .     A
C702   O726    1.299   .     A
C702   C705    1.469   .     S
C702   O727    1.306   .     A
C703   C713    1.419   .     A
C703   O729    1.383   .     S
C703   C705    1.418   .     A
C704   C706    1.416   .     A
C704   C714    1.410   .     A
C704   O731    1.384   .     S
C705   C707    1.412   .     A
C706   C708    1.412   .     A
C707   C709    1.413   .     A
C707   S733    1.788   .     S
C708   C710    1.409   .     A
C708   S738    1.795   .     S
C709   C711    1.416   .     A
C709   C715    1.419   .     A
C710   C712    1.408   .     A
C710   C716    1.411   .     A
C711   C713    1.423   .     A
C711   C1594   1.408   .     S
C712   C714    1.414   .     A
C712   C1593   1.408   1_554 S
C715   O743    1.379   .     S
C715   C1571   1.412   .     S
C716   O745    1.381   .     S
C716   C1572   1.404   1_554 S
Cu717  N719    2.034   .     S
Cu717  O723    1.985   .     S
Cu717  Cu718   2.706   .     S
Cu717  O727    1.969   .     S
Cu717  O721    1.988   .     S
Cu717  O725    1.963   .     S
Cu718  O722    1.988   .     S
Cu718  O724    1.985   .     S
Cu718  N720    2.034   .     S
Cu718  O726    1.963   .     S
Cu718  O728    1.969   .     S
O729   H730    0.987   .     S
O731   H732    0.989   .     S
S733   O735    1.502   .     D
S733   O734    1.503   .     D
S733   O736    1.668   .     S
O736   H737    0.991   .     S
S738   O741    1.680   .     S
S738   O740    1.500   .     D
S738   O739    1.504   .     D
O741   H742    0.991   .     S
O743   H744    0.991   .     S
O745   H746    0.991   .     S
S747   O749    1.503   .     D
S747   O750    1.683   .     S
S747   O748    1.499   .     D
O750   H751    0.991   .     S
S752   O754    1.504   .     D
S752   O755    1.684   .     S
S752   O753    1.502   .     D
O755   H854    0.990   .     S
S757   O760    1.677   .     S
S757   O758    1.502   .     D
S757   O759    1.502   .     D
O760   H761    0.991   .     S
S762   O765    1.679   .     S
S762   O764    1.502   .     D
S762   O763    1.501   .     D
O765   H766    0.991   .     S
S767   O768    1.501   .     D
S767   O769    1.504   .     D
S767   O770    1.681   .     S
O770   H771    0.990   .     S
S772   O774    1.501   .     D
S772   O773    1.499   .     D
S772   O775    1.681   .     S
O775   H776    0.990   .     S
O777   H778    0.989   .     S
O779   H780    0.984   .     S
O781   H782    0.989   .     S
O783   H784    0.984   .     S
C785   O822    1.316   .     A
C785   O819    1.296   .     A
C785   C794    1.479   .     S
C786   O820    1.310   .     A
C786   O821    1.294   .     A
C786   C793    1.462   .     S
C787   C812    1.415   .     A
C787   S845    1.788   .     S
C787   C1695   1.412   1_554 S
C788   C811    1.432   .     A
C788   S850    1.787   .     S
C788   C1696   1.404   .     S
C789   S855    1.774   .     S
C789   C794    1.416   .     A
C790   C793    1.424   .     A
C790   S860    1.805   .     S
C790   C596    1.412   1_655 S
C791   S865    1.776   .     S
C791   C793    1.407   .     A
C791   C593    1.384   1_655 S
C792   S870    1.804   .     S
C792   C794    1.438   .     A
C795   N818    1.369   .     A
C795   O875    1.373   .     S
C796   O877    1.373   .     S
C796   N817    1.377   .     A
C796   C209    1.428   1_565 S
C797   O879    1.377   .     S
C797   N818    1.372   .     A
C798   N817    1.377   .     A
C798   O881    1.374   .     S
C798   C207    1.425   1_565 S
C799   C804    1.461   .     S
C799   O823    1.309   .     A
C799   O826    1.294   .     A
C800   O824    1.299   .     A
C800   C803    1.469   .     S
C800   O825    1.306   .     A
C801   C811    1.419   .     A
C801   O827    1.383   .     S
C801   C803    1.418   .     A
C802   C804    1.416   .     A
C802   C812    1.410   .     A
C802   O829    1.384   .     S
C803   C805    1.412   .     A
C804   C806    1.412   .     A
C805   C807    1.413   .     A
C805   S831    1.788   .     S
C806   C808    1.409   .     A
C806   S836    1.795   .     S
C807   C809    1.416   .     A
C807   C813    1.419   .     A
C808   C810    1.408   .     A
C808   C814    1.411   .     A
C809   C811    1.423   .     A
C809   C1692   1.408   .     S
C810   C812    1.414   .     A
C810   C1691   1.408   1_554 S
C813   O841    1.379   .     S
C813   C1669   1.412   .     S
C814   O843    1.381   .     S
C814   C1670   1.404   1_554 S
Cu815  N817    2.034   .     S
Cu815  O821    1.985   .     S
Cu815  Cu816   2.706   .     S
Cu815  O825    1.969   .     S
Cu815  O819    1.988   .     S
Cu815  O823    1.963   .     S
Cu816  O820    1.988   .     S
Cu816  O822    1.985   .     S
Cu816  N818    2.034   .     S
Cu816  O824    1.963   .     S
Cu816  O826    1.969   .     S
O827   H828    0.987   .     S
O829   H830    0.989   .     S
S831   O833    1.502   .     D
S831   O832    1.503   .     D
S831   O834    1.668   .     S
O834   H835    0.991   .     S
S836   O839    1.680   .     S
S836   O838    1.500   .     D
S836   O837    1.504   .     D
O839   H840    0.991   .     S
O841   H842    0.991   .     S
O843   H844    0.991   .     S
S845   O847    1.503   .     D
S845   O848    1.683   .     S
S845   O846    1.499   .     D
O848   H849    0.991   .     S
S850   O852    1.504   .     D
S850   O853    1.684   .     S
S850   O851    1.502   .     D
O853   H658    0.990   1_655 S
S855   O858    1.677   .     S
S855   O856    1.502   .     D
S855   O857    1.502   .     D
O858   H859    0.991   .     S
S860   O863    1.679   .     S
S860   O862    1.502   .     D
S860   O861    1.501   .     D
O863   H864    0.991   .     S
S865   O866    1.501   .     D
S865   O867    1.504   .     D
S865   O868    1.681   .     S
O868   H869    0.990   .     S
S870   O872    1.501   .     D
S870   O871    1.499   .     D
S870   O873    1.681   .     S
O873   H874    0.990   .     S
O875   H876    0.989   .     S
O877   H878    0.984   .     S
O879   H880    0.989   .     S
O881   H882    0.984   .     S
C883   O920    1.316   .     A
C883   O917    1.296   .     A
C883   C892    1.479   .     S
C884   O918    1.310   .     A
C884   O919    1.294   .     A
C884   C891    1.462   .     S
C885   C910    1.415   .     A
C885   S943    1.788   .     S
C886   C909    1.432   .     A
C886   S948    1.787   .     S
C886   C30     1.404   1_556 S
C887   S953    1.774   .     S
C887   C892    1.416   .     A
C887   C1085   1.384   1_455 S
C888   C891    1.424   .     A
C888   S958    1.805   .     S
C888   C988    1.412   .     S
C889   S963    1.776   .     S
C889   C891    1.407   .     A
C889   C985    1.384   .     S
C890   S968    1.804   .     S
C890   C892    1.438   .     A
C890   C1084   1.412   1_455 S
C893   N916    1.369   .     A
C893   O973    1.373   .     S
C893   C1484   1.425   1_545 S
C894   O975    1.373   .     S
C894   N915    1.377   .     A
C894   C1189   1.428   .     S
C895   O977    1.377   .     S
C895   N916    1.372   .     A
C895   C1482   1.428   1_545 S
C896   N915    1.377   .     A
C896   O979    1.374   .     S
C896   C1187   1.425   .     S
C897   C902    1.461   .     S
C897   O921    1.309   .     A
C897   O924    1.294   .     A
C898   O922    1.299   .     A
C898   C901    1.469   .     S
C898   O923    1.306   .     A
C899   C909    1.419   .     A
C899   O925    1.383   .     S
C899   C901    1.418   .     A
C900   C902    1.416   .     A
C900   C910    1.410   .     A
C900   O927    1.384   .     S
C901   C903    1.412   .     A
C902   C904    1.412   .     A
C903   C905    1.413   .     A
C903   S929    1.788   .     S
C904   C906    1.409   .     A
C904   S934    1.795   .     S
C905   C907    1.416   .     A
C905   C911    1.419   .     A
C906   C908    1.408   .     A
C906   C912    1.411   .     A
C907   C909    1.423   .     A
C907   C26     1.408   1_556 S
C908   C910    1.414   .     A
C911   O939    1.379   .     S
C911   C3      1.412   1_556 S
C912   O941    1.381   .     S
Cu913  N915    2.034   .     S
Cu913  O919    1.985   .     S
Cu913  Cu914   2.706   .     S
Cu913  O923    1.969   .     S
Cu913  O917    1.988   .     S
Cu913  O921    1.963   .     S
Cu914  O918    1.988   .     S
Cu914  O920    1.985   .     S
Cu914  N916    2.034   .     S
Cu914  O922    1.963   .     S
Cu914  O924    1.969   .     S
O925   H926    0.987   .     S
O927   H928    0.989   .     S
S929   O931    1.502   .     D
S929   O930    1.503   .     D
S929   O932    1.668   .     S
O932   H933    0.991   .     S
S934   O937    1.680   .     S
S934   O936    1.500   .     D
S934   O935    1.504   .     D
O937   H938    0.991   .     S
O939   H940    0.991   .     S
O941   H942    0.991   .     S
S943   O945    1.503   .     D
S943   O946    1.683   .     S
S943   O944    1.499   .     D
O946   H947    0.991   .     S
S948   O950    1.504   .     D
S948   O951    1.684   .     S
S948   O949    1.502   .     D
O951   H1050   0.990   .     S
H952   O1147   0.990   1_455 S
S953   O956    1.677   .     S
S953   O954    1.502   .     D
S953   O955    1.502   .     D
O956   H957    0.991   .     S
S958   O961    1.679   .     S
S958   O960    1.502   .     D
S958   O959    1.501   .     D
O961   H962    0.991   .     S
S963   O964    1.501   .     D
S963   O965    1.504   .     D
S963   O966    1.681   .     S
O966   H967    0.990   .     S
S968   O970    1.501   .     D
S968   O969    1.499   .     D
S968   O971    1.681   .     S
O971   H972    0.990   .     S
O973   H974    0.989   .     S
O975   H976    0.984   .     S
O977   H978    0.989   .     S
O979   H980    0.984   .     S
C981   O1018   1.316   .     A
C981   O1015   1.296   .     A
C981   C990    1.479   .     S
C982   O1016   1.310   .     A
C982   O1017   1.294   .     A
C982   C989    1.462   .     S
C983   C1008   1.415   .     A
C983   S1041   1.788   .     S
C984   C1007   1.432   .     A
C984   S1046   1.787   .     S
C984   C128    1.404   1_556 S
C985   S1051   1.774   .     S
C985   C990    1.416   .     A
C986   C989    1.424   .     A
C986   S1056   1.805   .     S
C986   C1086   1.412   .     S
C987   S1061   1.776   .     S
C987   C989    1.407   .     A
C987   C1083   1.384   .     S
C988   S1066   1.804   .     S
C988   C990    1.438   .     A
C991   N1014   1.369   .     A
C991   O1071   1.373   .     S
C991   C1582   1.425   1_545 S
C992   O1073   1.373   .     S
C992   N1013   1.377   .     A
C992   C1287   1.428   .     S
C993   O1075   1.377   .     S
C993   N1014   1.372   .     A
C993   C1580   1.428   1_545 S
C994   N1013   1.377   .     A
C994   O1077   1.374   .     S
C994   C1285   1.425   .     S
C995   C1000   1.461   .     S
C995   O1019   1.309   .     A
C995   O1022   1.294   .     A
C996   O1020   1.299   .     A
C996   C999    1.469   .     S
C996   O1021   1.306   .     A
C997   C1007   1.419   .     A
C997   O1023   1.383   .     S
C997   C999    1.418   .     A
C998   C1000   1.416   .     A
C998   C1008   1.410   .     A
C998   O1025   1.384   .     S
C999   C1001   1.412   .     A
C1000  C1002   1.412   .     A
C1001  C1003   1.413   .     A
C1001  S1027   1.788   .     S
C1002  C1004   1.409   .     A
C1002  S1032   1.795   .     S
C1003  C1005   1.416   .     A
C1003  C1009   1.419   .     A
C1004  C1006   1.408   .     A
C1004  C1010   1.411   .     A
C1005  C1007   1.423   .     A
C1005  C124    1.408   1_556 S
C1006  C1008   1.414   .     A
C1009  O1037   1.379   .     S
C1009  C101    1.412   1_556 S
C1010  O1039   1.381   .     S
Cu1011 N1013   2.034   .     S
Cu1011 O1017   1.985   .     S
Cu1011 Cu1012  2.706   .     S
Cu1011 O1021   1.969   .     S
Cu1011 O1015   1.988   .     S
Cu1011 O1019   1.963   .     S
Cu1012 O1016   1.988   .     S
Cu1012 O1018   1.985   .     S
Cu1012 N1014   2.034   .     S
Cu1012 O1020   1.963   .     S
Cu1012 O1022   1.969   .     S
O1023  H1024   0.987   .     S
O1025  H1026   0.989   .     S
S1027  O1029   1.502   .     D
S1027  O1028   1.503   .     D
S1027  O1030   1.668   .     S
O1030  H1031   0.991   .     S
S1032  O1035   1.680   .     S
S1032  O1034   1.500   .     D
S1032  O1033   1.504   .     D
O1035  H1036   0.991   .     S
O1037  H1038   0.991   .     S
O1039  H1040   0.991   .     S
S1041  O1043   1.503   .     D
S1041  O1044   1.683   .     S
S1041  O1042   1.499   .     D
O1044  H1045   0.991   .     S
S1046  O1048   1.504   .     D
S1046  O1049   1.684   .     S
S1046  O1047   1.502   .     D
O1049  H1148   0.990   .     S
S1051  O1054   1.677   .     S
S1051  O1052   1.502   .     D
S1051  O1053   1.502   .     D
O1054  H1055   0.991   .     S
S1056  O1059   1.679   .     S
S1056  O1058   1.502   .     D
S1056  O1057   1.501   .     D
O1059  H1060   0.991   .     S
S1061  O1062   1.501   .     D
S1061  O1063   1.504   .     D
S1061  O1064   1.681   .     S
O1064  H1065   0.990   .     S
S1066  O1068   1.501   .     D
S1066  O1067   1.499   .     D
S1066  O1069   1.681   .     S
O1069  H1070   0.990   .     S
O1071  H1072   0.989   .     S
O1073  H1074   0.984   .     S
O1075  H1076   0.989   .     S
O1077  H1078   0.984   .     S
C1079  O1116   1.316   .     A
C1079  O1113   1.296   .     A
C1079  C1088   1.479   .     S
C1080  O1114   1.310   .     A
C1080  O1115   1.294   .     A
C1080  C1087   1.462   .     S
C1081  C1106   1.415   .     A
C1081  S1139   1.788   .     S
C1082  C1105   1.432   .     A
C1082  S1144   1.787   .     S
C1082  C226    1.404   1_556 S
C1083  S1149   1.774   .     S
C1083  C1088   1.416   .     A
C1084  C1087   1.424   .     A
C1084  S1154   1.805   .     S
C1084  C890    1.412   1_655 S
C1085  S1159   1.776   .     S
C1085  C1087   1.407   .     A
C1085  C887    1.384   1_655 S
C1086  S1164   1.804   .     S
C1086  C1088   1.438   .     A
C1089  N1112   1.369   .     A
C1089  O1169   1.373   .     S
C1089  C1680   1.425   1_545 S
C1090  O1171   1.373   .     S
C1090  N1111   1.377   .     A
C1090  C1385   1.428   .     S
C1091  O1173   1.377   .     S
C1091  N1112   1.372   .     A
C1091  C1678   1.428   1_545 S
C1092  N1111   1.377   .     A
C1092  O1175   1.374   .     S
C1092  C1383   1.425   .     S
C1093  C1098   1.461   .     S
C1093  O1117   1.309   .     A
C1093  O1120   1.294   .     A
C1094  O1118   1.299   .     A
C1094  C1097   1.469   .     S
C1094  O1119   1.306   .     A
C1095  C1105   1.419   .     A
C1095  O1121   1.383   .     S
C1095  C1097   1.418   .     A
C1096  C1098   1.416   .     A
C1096  C1106   1.410   .     A
C1096  O1123   1.384   .     S
C1097  C1099   1.412   .     A
C1098  C1100   1.412   .     A
C1099  C1101   1.413   .     A
C1099  S1125   1.788   .     S
C1100  C1102   1.409   .     A
C1100  S1130   1.795   .     S
C1101  C1103   1.416   .     A
C1101  C1107   1.419   .     A
C1102  C1104   1.408   .     A
C1102  C1108   1.411   .     A
C1103  C1105   1.423   .     A
C1103  C222    1.408   1_556 S
C1104  C1106   1.414   .     A
C1107  O1135   1.379   .     S
C1107  C199    1.412   1_556 S
C1108  O1137   1.381   .     S
Cu1109 N1111   2.034   .     S
Cu1109 O1115   1.985   .     S
Cu1109 Cu1110  2.706   .     S
Cu1109 O1119   1.969   .     S
Cu1109 O1113   1.988   .     S
Cu1109 O1117   1.963   .     S
Cu1110 O1114   1.988   .     S
Cu1110 O1116   1.985   .     S
Cu1110 N1112   2.034   .     S
Cu1110 O1118   1.963   .     S
Cu1110 O1120   1.969   .     S
O1121  H1122   0.987   .     S
O1123  H1124   0.989   .     S
S1125  O1127   1.502   .     D
S1125  O1126   1.503   .     D
S1125  O1128   1.668   .     S
O1128  H1129   0.991   .     S
S1130  O1133   1.680   .     S
S1130  O1132   1.500   .     D
S1130  O1131   1.504   .     D
O1133  H1134   0.991   .     S
O1135  H1136   0.991   .     S
O1137  H1138   0.991   .     S
S1139  O1141   1.503   .     D
S1139  O1142   1.683   .     S
S1139  O1140   1.499   .     D
O1142  H1143   0.991   .     S
S1144  O1146   1.504   .     D
S1144  O1147   1.684   .     S
S1144  O1145   1.502   .     D
O1147  H952    0.990   1_655 S
S1149  O1152   1.677   .     S
S1149  O1150   1.502   .     D
S1149  O1151   1.502   .     D
O1152  H1153   0.991   .     S
S1154  O1157   1.679   .     S
S1154  O1156   1.502   .     D
S1154  O1155   1.501   .     D
O1157  H1158   0.991   .     S
S1159  O1160   1.501   .     D
S1159  O1161   1.504   .     D
S1159  O1162   1.681   .     S
O1162  H1163   0.990   .     S
S1164  O1166   1.501   .     D
S1164  O1165   1.499   .     D
S1164  O1167   1.681   .     S
O1167  H1168   0.990   .     S
O1169  H1170   0.989   .     S
O1171  H1172   0.984   .     S
O1173  H1174   0.989   .     S
O1175  H1176   0.984   .     S
C1177  O1214   1.316   .     A
C1177  O1211   1.296   .     A
C1177  C1186   1.479   .     S
C1178  O1212   1.310   .     A
C1178  O1213   1.294   .     A
C1178  C1185   1.462   .     S
C1179  C1204   1.415   .     A
C1179  S1237   1.788   .     S
C1180  C1203   1.432   .     A
C1180  S1242   1.787   .     S
C1180  C324    1.404   1_556 S
C1181  S1247   1.774   .     S
C1181  C1186   1.416   .     A
C1181  C1379   1.384   1_455 S
C1182  C1185   1.424   .     A
C1182  S1252   1.805   .     S
C1182  C1282   1.412   .     S
C1183  S1257   1.776   .     S
C1183  C1185   1.407   .     A
C1183  C1279   1.384   .     S
C1184  S1262   1.804   .     S
C1184  C1186   1.438   .     A
C1184  C1378   1.412   1_455 S
C1187  N1210   1.369   .     A
C1187  O1267   1.373   .     S
C1188  O1269   1.373   .     S
C1188  N1209   1.377   .     A
C1188  C1483   1.428   .     S
C1189  O1271   1.377   .     S
C1189  N1210   1.372   .     A
C1190  N1209   1.377   .     A
C1190  O1273   1.374   .     S
C1190  C1481   1.425   .     S
C1191  C1196   1.461   .     S
C1191  O1215   1.309   .     A
C1191  O1218   1.294   .     A
C1192  O1216   1.299   .     A
C1192  C1195   1.469   .     S
C1192  O1217   1.306   .     A
C1193  C1203   1.419   .     A
C1193  O1219   1.383   .     S
C1193  C1195   1.418   .     A
C1194  C1196   1.416   .     A
C1194  C1204   1.410   .     A
C1194  O1221   1.384   .     S
C1195  C1197   1.412   .     A
C1196  C1198   1.412   .     A
C1197  C1199   1.413   .     A
C1197  S1223   1.788   .     S
C1198  C1200   1.409   .     A
C1198  S1228   1.795   .     S
C1199  C1201   1.416   .     A
C1199  C1205   1.419   .     A
C1200  C1202   1.408   .     A
C1200  C1206   1.411   .     A
C1201  C1203   1.423   .     A
C1201  C320    1.408   1_556 S
C1202  C1204   1.414   .     A
C1205  O1233   1.379   .     S
C1205  C297    1.412   1_556 S
C1206  O1235   1.381   .     S
Cu1207 N1209   2.034   .     S
Cu1207 O1213   1.985   .     S
Cu1207 Cu1208  2.706   .     S
Cu1207 O1217   1.969   .     S
Cu1207 O1211   1.988   .     S
Cu1207 O1215   1.963   .     S
Cu1208 O1212   1.988   .     S
Cu1208 O1214   1.985   .     S
Cu1208 N1210   2.034   .     S
Cu1208 O1216   1.963   .     S
Cu1208 O1218   1.969   .     S
O1219  H1220   0.987   .     S
O1221  H1222   0.989   .     S
S1223  O1225   1.502   .     D
S1223  O1224   1.503   .     D
S1223  O1226   1.668   .     S
O1226  H1227   0.991   .     S
S1228  O1231   1.680   .     S
S1228  O1230   1.500   .     D
S1228  O1229   1.504   .     D
O1231  H1232   0.991   .     S
O1233  H1234   0.991   .     S
O1235  H1236   0.991   .     S
S1237  O1239   1.503   .     D
S1237  O1240   1.683   .     S
S1237  O1238   1.499   .     D
O1240  H1241   0.991   .     S
S1242  O1244   1.504   .     D
S1242  O1245   1.684   .     S
S1242  O1243   1.502   .     D
O1245  H1344   0.990   .     S
H1246  O1441   0.990   1_455 S
S1247  O1250   1.677   .     S
S1247  O1248   1.502   .     D
S1247  O1249   1.502   .     D
O1250  H1251   0.991   .     S
S1252  O1255   1.679   .     S
S1252  O1254   1.502   .     D
S1252  O1253   1.501   .     D
O1255  H1256   0.991   .     S
S1257  O1258   1.501   .     D
S1257  O1259   1.504   .     D
S1257  O1260   1.681   .     S
O1260  H1261   0.990   .     S
S1262  O1264   1.501   .     D
S1262  O1263   1.499   .     D
S1262  O1265   1.681   .     S
O1265  H1266   0.990   .     S
O1267  H1268   0.989   .     S
O1269  H1270   0.984   .     S
O1271  H1272   0.989   .     S
O1273  H1274   0.984   .     S
C1275  O1312   1.316   .     A
C1275  O1309   1.296   .     A
C1275  C1284   1.479   .     S
C1276  O1310   1.310   .     A
C1276  O1311   1.294   .     A
C1276  C1283   1.462   .     S
C1277  C1302   1.415   .     A
C1277  S1335   1.788   .     S
C1278  C1301   1.432   .     A
C1278  S1340   1.787   .     S
C1278  C422    1.404   1_556 S
C1279  S1345   1.774   .     S
C1279  C1284   1.416   .     A
C1280  C1283   1.424   .     A
C1280  S1350   1.805   .     S
C1280  C1380   1.412   .     S
C1281  S1355   1.776   .     S
C1281  C1283   1.407   .     A
C1281  C1377   1.384   .     S
C1282  S1360   1.804   .     S
C1282  C1284   1.438   .     A
C1285  N1308   1.369   .     A
C1285  O1365   1.373   .     S
C1286  O1367   1.373   .     S
C1286  N1307   1.377   .     A
C1286  C1581   1.428   .     S
C1287  O1369   1.377   .     S
C1287  N1308   1.372   .     A
C1288  N1307   1.377   .     A
C1288  O1371   1.374   .     S
C1288  C1579   1.425   .     S
C1289  C1294   1.461   .     S
C1289  O1313   1.309   .     A
C1289  O1316   1.294   .     A
C1290  O1314   1.299   .     A
C1290  C1293   1.469   .     S
C1290  O1315   1.306   .     A
C1291  C1301   1.419   .     A
C1291  O1317   1.383   .     S
C1291  C1293   1.418   .     A
C1292  C1294   1.416   .     A
C1292  C1302   1.410   .     A
C1292  O1319   1.384   .     S
C1293  C1295   1.412   .     A
C1294  C1296   1.412   .     A
C1295  C1297   1.413   .     A
C1295  S1321   1.788   .     S
C1296  C1298   1.409   .     A
C1296  S1326   1.795   .     S
C1297  C1299   1.416   .     A
C1297  C1303   1.419   .     A
C1298  C1300   1.408   .     A
C1298  C1304   1.411   .     A
C1299  C1301   1.423   .     A
C1299  C418    1.408   1_556 S
C1300  C1302   1.414   .     A
C1303  O1331   1.379   .     S
C1303  C395    1.412   1_556 S
C1304  O1333   1.381   .     S
Cu1305 N1307   2.034   .     S
Cu1305 O1311   1.985   .     S
Cu1305 Cu1306  2.706   .     S
Cu1305 O1315   1.969   .     S
Cu1305 O1309   1.988   .     S
Cu1305 O1313   1.963   .     S
Cu1306 O1310   1.988   .     S
Cu1306 O1312   1.985   .     S
Cu1306 N1308   2.034   .     S
Cu1306 O1314   1.963   .     S
Cu1306 O1316   1.969   .     S
O1317  H1318   0.987   .     S
O1319  H1320   0.989   .     S
S1321  O1323   1.502   .     D
S1321  O1322   1.503   .     D
S1321  O1324   1.668   .     S
O1324  H1325   0.991   .     S
S1326  O1329   1.680   .     S
S1326  O1328   1.500   .     D
S1326  O1327   1.504   .     D
O1329  H1330   0.991   .     S
O1331  H1332   0.991   .     S
O1333  H1334   0.991   .     S
S1335  O1337   1.503   .     D
S1335  O1338   1.683   .     S
S1335  O1336   1.499   .     D
O1338  H1339   0.991   .     S
S1340  O1342   1.504   .     D
S1340  O1343   1.684   .     S
S1340  O1341   1.502   .     D
O1343  H1442   0.990   .     S
S1345  O1348   1.677   .     S
S1345  O1346   1.502   .     D
S1345  O1347   1.502   .     D
O1348  H1349   0.991   .     S
S1350  O1353   1.679   .     S
S1350  O1352   1.502   .     D
S1350  O1351   1.501   .     D
O1353  H1354   0.991   .     S
S1355  O1356   1.501   .     D
S1355  O1357   1.504   .     D
S1355  O1358   1.681   .     S
O1358  H1359   0.990   .     S
S1360  O1362   1.501   .     D
S1360  O1361   1.499   .     D
S1360  O1363   1.681   .     S
O1363  H1364   0.990   .     S
O1365  H1366   0.989   .     S
O1367  H1368   0.984   .     S
O1369  H1370   0.989   .     S
O1371  H1372   0.984   .     S
C1373  O1410   1.316   .     A
C1373  O1407   1.296   .     A
C1373  C1382   1.479   .     S
C1374  O1408   1.310   .     A
C1374  O1409   1.294   .     A
C1374  C1381   1.462   .     S
C1375  C1400   1.415   .     A
C1375  S1433   1.788   .     S
C1376  C1399   1.432   .     A
C1376  S1438   1.787   .     S
C1376  C520    1.404   1_556 S
C1377  S1443   1.774   .     S
C1377  C1382   1.416   .     A
C1378  C1381   1.424   .     A
C1378  S1448   1.805   .     S
C1378  C1184   1.412   1_655 S
C1379  S1453   1.776   .     S
C1379  C1381   1.407   .     A
C1379  C1181   1.384   1_655 S
C1380  S1458   1.804   .     S
C1380  C1382   1.438   .     A
C1383  N1406   1.369   .     A
C1383  O1463   1.373   .     S
C1384  O1465   1.373   .     S
C1384  N1405   1.377   .     A
C1384  C1679   1.428   .     S
C1385  O1467   1.377   .     S
C1385  N1406   1.372   .     A
C1386  N1405   1.377   .     A
C1386  O1469   1.374   .     S
C1386  C1677   1.425   .     S
C1387  C1392   1.461   .     S
C1387  O1411   1.309   .     A
C1387  O1414   1.294   .     A
C1388  O1412   1.299   .     A
C1388  C1391   1.469   .     S
C1388  O1413   1.306   .     A
C1389  C1399   1.419   .     A
C1389  O1415   1.383   .     S
C1389  C1391   1.418   .     A
C1390  C1392   1.416   .     A
C1390  C1400   1.410   .     A
C1390  O1417   1.384   .     S
C1391  C1393   1.412   .     A
C1392  C1394   1.412   .     A
C1393  C1395   1.413   .     A
C1393  S1419   1.788   .     S
C1394  C1396   1.409   .     A
C1394  S1424   1.795   .     S
C1395  C1397   1.416   .     A
C1395  C1401   1.419   .     A
C1396  C1398   1.408   .     A
C1396  C1402   1.411   .     A
C1397  C1399   1.423   .     A
C1397  C516    1.408   1_556 S
C1398  C1400   1.414   .     A
C1401  O1429   1.379   .     S
C1401  C493    1.412   1_556 S
C1402  O1431   1.381   .     S
Cu1403 N1405   2.034   .     S
Cu1403 O1409   1.985   .     S
Cu1403 Cu1404  2.706   .     S
Cu1403 O1413   1.969   .     S
Cu1403 O1407   1.988   .     S
Cu1403 O1411   1.963   .     S
Cu1404 O1408   1.988   .     S
Cu1404 O1410   1.985   .     S
Cu1404 N1406   2.034   .     S
Cu1404 O1412   1.963   .     S
Cu1404 O1414   1.969   .     S
O1415  H1416   0.987   .     S
O1417  H1418   0.989   .     S
S1419  O1421   1.502   .     D
S1419  O1420   1.503   .     D
S1419  O1422   1.668   .     S
O1422  H1423   0.991   .     S
S1424  O1427   1.680   .     S
S1424  O1426   1.500   .     D
S1424  O1425   1.504   .     D
O1427  H1428   0.991   .     S
O1429  H1430   0.991   .     S
O1431  H1432   0.991   .     S
S1433  O1435   1.503   .     D
S1433  O1436   1.683   .     S
S1433  O1434   1.499   .     D
O1436  H1437   0.991   .     S
S1438  O1440   1.504   .     D
S1438  O1441   1.684   .     S
S1438  O1439   1.502   .     D
O1441  H1246   0.990   1_655 S
S1443  O1446   1.677   .     S
S1443  O1444   1.502   .     D
S1443  O1445   1.502   .     D
O1446  H1447   0.991   .     S
S1448  O1451   1.679   .     S
S1448  O1450   1.502   .     D
S1448  O1449   1.501   .     D
O1451  H1452   0.991   .     S
S1453  O1454   1.501   .     D
S1453  O1455   1.504   .     D
S1453  O1456   1.681   .     S
O1456  H1457   0.990   .     S
S1458  O1460   1.501   .     D
S1458  O1459   1.499   .     D
S1458  O1461   1.681   .     S
O1461  H1462   0.990   .     S
O1463  H1464   0.989   .     S
O1465  H1466   0.984   .     S
O1467  H1468   0.989   .     S
O1469  H1470   0.984   .     S
C1471  O1508   1.316   .     A
C1471  O1505   1.296   .     A
C1471  C1480   1.479   .     S
C1472  O1506   1.310   .     A
C1472  O1507   1.294   .     A
C1472  C1479   1.462   .     S
C1473  C1498   1.415   .     A
C1473  S1531   1.788   .     S
C1474  C1497   1.432   .     A
C1474  S1536   1.787   .     S
C1474  C618    1.404   1_556 S
C1475  S1541   1.774   .     S
C1475  C1480   1.416   .     A
C1475  C1673   1.384   1_455 S
C1476  C1479   1.424   .     A
C1476  S1546   1.805   .     S
C1476  C1576   1.412   .     S
C1477  S1551   1.776   .     S
C1477  C1479   1.407   .     A
C1477  C1573   1.384   .     S
C1478  S1556   1.804   .     S
C1478  C1480   1.438   .     A
C1478  C1672   1.412   1_455 S
C1481  N1504   1.369   .     A
C1481  O1561   1.373   .     S
C1482  O1563   1.373   .     S
C1482  N1503   1.377   .     A
C1482  C895    1.428   1_565 S
C1483  O1565   1.377   .     S
C1483  N1504   1.372   .     A
C1484  N1503   1.377   .     A
C1484  O1567   1.374   .     S
C1484  C893    1.425   1_565 S
C1485  C1490   1.461   .     S
C1485  O1509   1.309   .     A
C1485  O1512   1.294   .     A
C1486  O1510   1.299   .     A
C1486  C1489   1.469   .     S
C1486  O1511   1.306   .     A
C1487  C1497   1.419   .     A
C1487  O1513   1.383   .     S
C1487  C1489   1.418   .     A
C1488  C1490   1.416   .     A
C1488  C1498   1.410   .     A
C1488  O1515   1.384   .     S
C1489  C1491   1.412   .     A
C1490  C1492   1.412   .     A
C1491  C1493   1.413   .     A
C1491  S1517   1.788   .     S
C1492  C1494   1.409   .     A
C1492  S1522   1.795   .     S
C1493  C1495   1.416   .     A
C1493  C1499   1.419   .     A
C1494  C1496   1.408   .     A
C1494  C1500   1.411   .     A
C1495  C1497   1.423   .     A
C1495  C614    1.408   1_556 S
C1496  C1498   1.414   .     A
C1499  O1527   1.379   .     S
C1499  C591    1.412   1_556 S
C1500  O1529   1.381   .     S
Cu1501 N1503   2.034   .     S
Cu1501 O1507   1.985   .     S
Cu1501 Cu1502  2.706   .     S
Cu1501 O1511   1.969   .     S
Cu1501 O1505   1.988   .     S
Cu1501 O1509   1.963   .     S
Cu1502 O1506   1.988   .     S
Cu1502 O1508   1.985   .     S
Cu1502 N1504   2.034   .     S
Cu1502 O1510   1.963   .     S
Cu1502 O1512   1.969   .     S
O1513  H1514   0.987   .     S
O1515  H1516   0.989   .     S
S1517  O1519   1.502   .     D
S1517  O1518   1.503   .     D
S1517  O1520   1.668   .     S
O1520  H1521   0.991   .     S
S1522  O1525   1.680   .     S
S1522  O1524   1.500   .     D
S1522  O1523   1.504   .     D
O1525  H1526   0.991   .     S
O1527  H1528   0.991   .     S
O1529  H1530   0.991   .     S
S1531  O1533   1.503   .     D
S1531  O1534   1.683   .     S
S1531  O1532   1.499   .     D
O1534  H1535   0.991   .     S
S1536  O1538   1.504   .     D
S1536  O1539   1.684   .     S
S1536  O1537   1.502   .     D
O1539  H1638   0.990   .     S
H1540  O1735   0.990   1_455 S
S1541  O1544   1.677   .     S
S1541  O1542   1.502   .     D
S1541  O1543   1.502   .     D
O1544  H1545   0.991   .     S
S1546  O1549   1.679   .     S
S1546  O1548   1.502   .     D
S1546  O1547   1.501   .     D
O1549  H1550   0.991   .     S
S1551  O1552   1.501   .     D
S1551  O1553   1.504   .     D
S1551  O1554   1.681   .     S
O1554  H1555   0.990   .     S
S1556  O1558   1.501   .     D
S1556  O1557   1.499   .     D
S1556  O1559   1.681   .     S
O1559  H1560   0.990   .     S
O1561  H1562   0.989   .     S
O1563  H1564   0.984   .     S
O1565  H1566   0.989   .     S
O1567  H1568   0.984   .     S
C1569  O1606   1.316   .     A
C1569  O1603   1.296   .     A
C1569  C1578   1.479   .     S
C1570  O1604   1.310   .     A
C1570  O1605   1.294   .     A
C1570  C1577   1.462   .     S
C1571  C1596   1.415   .     A
C1571  S1629   1.788   .     S
C1572  C1595   1.432   .     A
C1572  S1634   1.787   .     S
C1572  C716    1.404   1_556 S
C1573  S1639   1.774   .     S
C1573  C1578   1.416   .     A
C1574  C1577   1.424   .     A
C1574  S1644   1.805   .     S
C1574  C1674   1.412   .     S
C1575  S1649   1.776   .     S
C1575  C1577   1.407   .     A
C1575  C1671   1.384   .     S
C1576  S1654   1.804   .     S
C1576  C1578   1.438   .     A
C1579  N1602   1.369   .     A
C1579  O1659   1.373   .     S
C1580  O1661   1.373   .     S
C1580  N1601   1.377   .     A
C1580  C993    1.428   1_565 S
C1581  O1663   1.377   .     S
C1581  N1602   1.372   .     A
C1582  N1601   1.377   .     A
C1582  O1665   1.374   .     S
C1582  C991    1.425   1_565 S
C1583  C1588   1.461   .     S
C1583  O1607   1.309   .     A
C1583  O1610   1.294   .     A
C1584  O1608   1.299   .     A
C1584  C1587   1.469   .     S
C1584  O1609   1.306   .     A
C1585  C1595   1.419   .     A
C1585  O1611   1.383   .     S
C1585  C1587   1.418   .     A
C1586  C1588   1.416   .     A
C1586  C1596   1.410   .     A
C1586  O1613   1.384   .     S
C1587  C1589   1.412   .     A
C1588  C1590   1.412   .     A
C1589  C1591   1.413   .     A
C1589  S1615   1.788   .     S
C1590  C1592   1.409   .     A
C1590  S1620   1.795   .     S
C1591  C1593   1.416   .     A
C1591  C1597   1.419   .     A
C1592  C1594   1.408   .     A
C1592  C1598   1.411   .     A
C1593  C1595   1.423   .     A
C1593  C712    1.408   1_556 S
C1594  C1596   1.414   .     A
C1597  O1625   1.379   .     S
C1597  C689    1.412   1_556 S
C1598  O1627   1.381   .     S
Cu1599 N1601   2.034   .     S
Cu1599 O1605   1.985   .     S
Cu1599 Cu1600  2.706   .     S
Cu1599 O1609   1.969   .     S
Cu1599 O1603   1.988   .     S
Cu1599 O1607   1.963   .     S
Cu1600 O1604   1.988   .     S
Cu1600 O1606   1.985   .     S
Cu1600 N1602   2.034   .     S
Cu1600 O1608   1.963   .     S
Cu1600 O1610   1.969   .     S
O1611  H1612   0.987   .     S
O1613  H1614   0.989   .     S
S1615  O1617   1.502   .     D
S1615  O1616   1.503   .     D
S1615  O1618   1.668   .     S
O1618  H1619   0.991   .     S
S1620  O1623   1.680   .     S
S1620  O1622   1.500   .     D
S1620  O1621   1.504   .     D
O1623  H1624   0.991   .     S
O1625  H1626   0.991   .     S
O1627  H1628   0.991   .     S
S1629  O1631   1.503   .     D
S1629  O1632   1.683   .     S
S1629  O1630   1.499   .     D
O1632  H1633   0.991   .     S
S1634  O1636   1.504   .     D
S1634  O1637   1.684   .     S
S1634  O1635   1.502   .     D
O1637  H1736   0.990   .     S
S1639  O1642   1.677   .     S
S1639  O1640   1.502   .     D
S1639  O1641   1.502   .     D
O1642  H1643   0.991   .     S
S1644  O1647   1.679   .     S
S1644  O1646   1.502   .     D
S1644  O1645   1.501   .     D
O1647  H1648   0.991   .     S
S1649  O1650   1.501   .     D
S1649  O1651   1.504   .     D
S1649  O1652   1.681   .     S
O1652  H1653   0.990   .     S
S1654  O1656   1.501   .     D
S1654  O1655   1.499   .     D
S1654  O1657   1.681   .     S
O1657  H1658   0.990   .     S
O1659  H1660   0.989   .     S
O1661  H1662   0.984   .     S
O1663  H1664   0.989   .     S
O1665  H1666   0.984   .     S
C1667  O1704   1.316   .     A
C1667  O1701   1.296   .     A
C1667  C1676   1.479   .     S
C1668  O1702   1.310   .     A
C1668  O1703   1.294   .     A
C1668  C1675   1.462   .     S
C1669  C1694   1.415   .     A
C1669  S1727   1.788   .     S
C1670  C1693   1.432   .     A
C1670  S1732   1.787   .     S
C1670  C814    1.404   1_556 S
C1671  S1737   1.774   .     S
C1671  C1676   1.416   .     A
C1672  C1675   1.424   .     A
C1672  S1742   1.805   .     S
C1672  C1478   1.412   1_655 S
C1673  S1747   1.776   .     S
C1673  C1675   1.407   .     A
C1673  C1475   1.384   1_655 S
C1674  S1752   1.804   .     S
C1674  C1676   1.438   .     A
C1677  N1700   1.369   .     A
C1677  O1757   1.373   .     S
C1678  O1759   1.373   .     S
C1678  N1699   1.377   .     A
C1678  C1091   1.428   1_565 S
C1679  O1761   1.377   .     S
C1679  N1700   1.372   .     A
C1680  N1699   1.377   .     A
C1680  O1763   1.374   .     S
C1680  C1089   1.425   1_565 S
C1681  C1686   1.461   .     S
C1681  O1705   1.309   .     A
C1681  O1708   1.294   .     A
C1682  O1706   1.299   .     A
C1682  C1685   1.469   .     S
C1682  O1707   1.306   .     A
C1683  C1693   1.419   .     A
C1683  O1709   1.383   .     S
C1683  C1685   1.418   .     A
C1684  C1686   1.416   .     A
C1684  C1694   1.410   .     A
C1684  O1711   1.384   .     S
C1685  C1687   1.412   .     A
C1686  C1688   1.412   .     A
C1687  C1689   1.413   .     A
C1687  S1713   1.788   .     S
C1688  C1690   1.409   .     A
C1688  S1718   1.795   .     S
C1689  C1691   1.416   .     A
C1689  C1695   1.419   .     A
C1690  C1692   1.408   .     A
C1690  C1696   1.411   .     A
C1691  C1693   1.423   .     A
C1691  C810    1.408   1_556 S
C1692  C1694   1.414   .     A
C1695  O1723   1.379   .     S
C1695  C787    1.412   1_556 S
C1696  O1725   1.381   .     S
Cu1697 N1699   2.034   .     S
Cu1697 O1703   1.985   .     S
Cu1697 Cu1698  2.706   .     S
Cu1697 O1707   1.969   .     S
Cu1697 O1701   1.988   .     S
Cu1697 O1705   1.963   .     S
Cu1698 O1702   1.988   .     S
Cu1698 O1704   1.985   .     S
Cu1698 N1700   2.034   .     S
Cu1698 O1706   1.963   .     S
Cu1698 O1708   1.969   .     S
O1709  H1710   0.987   .     S
O1711  H1712   0.989   .     S
S1713  O1715   1.502   .     D
S1713  O1714   1.503   .     D
S1713  O1716   1.668   .     S
O1716  H1717   0.991   .     S
S1718  O1721   1.680   .     S
S1718  O1720   1.500   .     D
S1718  O1719   1.504   .     D
O1721  H1722   0.991   .     S
O1723  H1724   0.991   .     S
O1725  H1726   0.991   .     S
S1727  O1729   1.503   .     D
S1727  O1730   1.683   .     S
S1727  O1728   1.499   .     D
O1730  H1731   0.991   .     S
S1732  O1734   1.504   .     D
S1732  O1735   1.684   .     S
S1732  O1733   1.502   .     D
O1735  H1540   0.990   1_655 S
S1737  O1740   1.677   .     S
S1737  O1738   1.502   .     D
S1737  O1739   1.502   .     D
O1740  H1741   0.991   .     S
S1742  O1745   1.679   .     S
S1742  O1744   1.502   .     D
S1742  O1743   1.501   .     D
O1745  H1746   0.991   .     S
S1747  O1748   1.501   .     D
S1747  O1749   1.504   .     D
S1747  O1750   1.681   .     S
O1750  H1751   0.990   .     S
S1752  O1754   1.501   .     D
S1752  O1753   1.499   .     D
S1752  O1755   1.681   .     S
O1755  H1756   0.990   .     S
O1757  H1758   0.989   .     S
O1759  H1760   0.984   .     S
O1761  H1762   0.989   .     S
O1763  H1764   0.984   .     S
