data_str_m3_o2_o5_pcu_sym.98
_audit_creation_date              2020-01-03
_audit_creation_method            'Materials Studio'
_symmetry_space_group_name_H-M    'P1'
_symmetry_Int_Tables_number       1
_symmetry_cell_setting            triclinic
loop_
_symmetry_equiv_pos_as_xyz
  x,y,z
_cell_length_a                    29.8856
_cell_length_b                    28.3193
_cell_length_c                    26.7256
_cell_angle_alpha                 89.9995
_cell_angle_beta                  89.9942
_cell_angle_gamma                 90.0006
loop_
_atom_site_label
_atom_site_type_symbol
_atom_site_fract_x
_atom_site_fract_y
_atom_site_fract_z
_atom_site_U_iso_or_equiv
_atom_site_adp_type
_atom_site_occupancy
C1     C     0.16402   0.25000   0.16667   0.00000  Uiso   1.00
C2     C     0.22298   0.44757   0.20030   0.00000  Uiso   1.00
C3     C     0.25000   0.25000   0.07283   0.00000  Uiso   1.00
C4     C     0.25000   0.25000   0.26050   0.00000  Uiso   1.00
C5     C     0.25000   0.02664   0.16667   0.00000  Uiso   1.00
C6     C     0.25000   0.47336   0.16667   0.00000  Uiso   1.00
C7     C     0.25000   0.25000   0.02178   0.00000  Uiso   1.00
C8     C     0.25000   0.25000   0.31155   0.00000  Uiso   1.00
C9     C     0.04698   0.26965   0.20717   0.00000  Uiso   1.00
C10    C     0.45301   0.23038   0.20718   0.00000  Uiso   1.00
C11    C     0.45302   0.26963   0.12615   0.00000  Uiso   1.00
C12    C     0.33598   0.25000   0.16666   0.00000  Uiso   1.00
C13    C     0.04699   0.23035   0.12617   0.00000  Uiso   1.00
C14    C     0.09324   0.26993   0.20731   0.00000  Uiso   1.00
C15    C     0.40675   0.23009   0.20731   0.00000  Uiso   1.00
C16    C     0.40676   0.26991   0.12602   0.00000  Uiso   1.00
C17    C     0.09325   0.23007   0.12603   0.00000  Uiso   1.00
C18    C     0.11625   0.25000   0.16667   0.00000  Uiso   1.00
C19    C     0.38375   0.25000   0.16666   0.00000  Uiso   1.00
C20    C     0.02408   0.25000   0.16667   0.00000  Uiso   1.00
C21    C     0.47592   0.25000   0.16667   0.00000  Uiso   1.00
C22    C     0.22411   0.10220   0.13326   0.00000  Uiso   1.00
C23    C     0.27646   0.39780   0.13382   0.00000  Uiso   1.00
C24    C     0.27589   0.10220   0.20007   0.00000  Uiso   1.00
C25    C     0.22354   0.39780   0.19951   0.00000  Uiso   1.00
C26    C     0.22358   0.05243   0.13245   0.00000  Uiso   1.00
C27    C     0.27702   0.44757   0.13303   0.00000  Uiso   1.00
C28    C     0.27642   0.05243   0.20088   0.00000  Uiso   1.00
Cl29   Cl    0.12126   0.29411   0.25945   0.00000  Uiso   1.00
Cl30   Cl    0.37872   0.20594   0.25947   0.00000  Uiso   1.00
Cl31   Cl    0.37874   0.29406   0.07386   0.00000  Uiso   1.00
Cl32   Cl    0.12128   0.20589   0.07390   0.00000  Uiso   1.00
Cl33   Cl    0.18935   0.02356   0.08848   0.00000  Uiso   1.00
Cl34   Cl    0.31203   0.47644   0.08983   0.00000  Uiso   1.00
Cl35   Cl    0.31065   0.02356   0.24485   0.00000  Uiso   1.00
Cl36   Cl    0.18797   0.47644   0.24351   0.00000  Uiso   1.00
H37    H     0.20371   0.12181   0.10705   0.00000  Uiso   1.00
H38    H     0.29732   0.37819   0.10805   0.00000  Uiso   1.00
H39    H     0.29629   0.12181   0.22628   0.00000  Uiso   1.00
H40    H     0.20268   0.37818   0.22528   0.00000  Uiso   1.00
H41    H     0.02885   0.28494   0.23835   0.00000  Uiso   1.00
H42    H     0.47113   0.21511   0.23837   0.00000  Uiso   1.00
H43    H     0.47115   0.28490   0.09497   0.00000  Uiso   1.00
H44    H     0.02887   0.21506   0.09499   0.00000  Uiso   1.00
N45    N     0.25000   0.12623   0.16667   0.00000  Uiso   1.00
N46    N     0.25000   0.37376   0.16667   0.00000  Uiso   1.00
O47    O     0.18453   0.28974   0.16667   0.00000  Uiso   1.00
O48    O     0.31547   0.21026   0.16666   0.00000  Uiso   1.00
O49    O     0.31547   0.28974   0.16666   0.00000  Uiso   1.00
O50    O     0.18453   0.21026   0.16667   0.00000  Uiso   1.00
O51    O     0.25000   0.28973   0.09511   0.00000  Uiso   1.00
O52    O     0.25000   0.21027   0.23822   0.00000  Uiso   1.00
O53    O     0.25000   0.28973   0.23822   0.00000  Uiso   1.00
O54    O     0.25000   0.21027   0.09511   0.00000  Uiso   1.00
Zn55   Zn    0.25000   0.30307   0.16667   0.00000  Uiso   1.00
Zn56   Zn    0.25000   0.19693   0.16667   0.00000  Uiso   1.00
C57    C     0.66402   0.25000   0.16667   0.00000  Uiso   1.00
C58    C     0.72298   0.44757   0.20030   0.00000  Uiso   1.00
C59    C     0.75000   0.25000   0.07283   0.00000  Uiso   1.00
C60    C     0.75000   0.25000   0.26050   0.00000  Uiso   1.00
C61    C     0.75000   0.02664   0.16667   0.00000  Uiso   1.00
C62    C     0.75000   0.47336   0.16667   0.00000  Uiso   1.00
C63    C     0.75000   0.25000   0.02178   0.00000  Uiso   1.00
C64    C     0.75000   0.25000   0.31155   0.00000  Uiso   1.00
C65    C     0.54698   0.26965   0.20717   0.00000  Uiso   1.00
C66    C     0.95301   0.23038   0.20718   0.00000  Uiso   1.00
C67    C     0.95302   0.26963   0.12615   0.00000  Uiso   1.00
C68    C     0.83598   0.25000   0.16666   0.00000  Uiso   1.00
C69    C     0.54699   0.23035   0.12617   0.00000  Uiso   1.00
C70    C     0.59324   0.26993   0.20731   0.00000  Uiso   1.00
C71    C     0.90675   0.23009   0.20731   0.00000  Uiso   1.00
C72    C     0.90676   0.26991   0.12602   0.00000  Uiso   1.00
C73    C     0.59325   0.23007   0.12603   0.00000  Uiso   1.00
C74    C     0.61625   0.25000   0.16667   0.00000  Uiso   1.00
C75    C     0.88375   0.25000   0.16666   0.00000  Uiso   1.00
C76    C     0.52408   0.25000   0.16667   0.00000  Uiso   1.00
C77    C     0.97592   0.25000   0.16667   0.00000  Uiso   1.00
C78    C     0.72411   0.10220   0.13326   0.00000  Uiso   1.00
C79    C     0.77646   0.39780   0.13382   0.00000  Uiso   1.00
C80    C     0.77589   0.10220   0.20007   0.00000  Uiso   1.00
C81    C     0.72354   0.39780   0.19951   0.00000  Uiso   1.00
C82    C     0.72358   0.05243   0.13245   0.00000  Uiso   1.00
C83    C     0.77702   0.44757   0.13303   0.00000  Uiso   1.00
C84    C     0.77642   0.05243   0.20088   0.00000  Uiso   1.00
Cl85   Cl    0.62126   0.29411   0.25945   0.00000  Uiso   1.00
Cl86   Cl    0.87872   0.20594   0.25947   0.00000  Uiso   1.00
Cl87   Cl    0.87874   0.29406   0.07386   0.00000  Uiso   1.00
Cl88   Cl    0.62128   0.20589   0.07390   0.00000  Uiso   1.00
Cl89   Cl    0.68935   0.02356   0.08848   0.00000  Uiso   1.00
Cl90   Cl    0.81203   0.47644   0.08983   0.00000  Uiso   1.00
Cl91   Cl    0.81065   0.02356   0.24485   0.00000  Uiso   1.00
Cl92   Cl    0.68797   0.47644   0.24351   0.00000  Uiso   1.00
H93    H     0.70371   0.12181   0.10705   0.00000  Uiso   1.00
H94    H     0.79732   0.37819   0.10805   0.00000  Uiso   1.00
H95    H     0.79629   0.12181   0.22628   0.00000  Uiso   1.00
H96    H     0.70268   0.37818   0.22528   0.00000  Uiso   1.00
H97    H     0.52885   0.28494   0.23835   0.00000  Uiso   1.00
H98    H     0.97113   0.21511   0.23837   0.00000  Uiso   1.00
H99    H     0.97115   0.28490   0.09497   0.00000  Uiso   1.00
H100   H     0.52887   0.21506   0.09499   0.00000  Uiso   1.00
N101   N     0.75000   0.12623   0.16667   0.00000  Uiso   1.00
N102   N     0.75000   0.37376   0.16667   0.00000  Uiso   1.00
O103   O     0.68453   0.28974   0.16667   0.00000  Uiso   1.00
O104   O     0.81547   0.21026   0.16666   0.00000  Uiso   1.00
O105   O     0.81547   0.28974   0.16666   0.00000  Uiso   1.00
O106   O     0.68453   0.21026   0.16667   0.00000  Uiso   1.00
O107   O     0.75000   0.28973   0.09511   0.00000  Uiso   1.00
O108   O     0.75000   0.21027   0.23822   0.00000  Uiso   1.00
O109   O     0.75000   0.28973   0.23822   0.00000  Uiso   1.00
O110   O     0.75000   0.21027   0.09511   0.00000  Uiso   1.00
Zn111  Zn    0.75000   0.30307   0.16667   0.00000  Uiso   1.00
Zn112  Zn    0.75000   0.19693   0.16667   0.00000  Uiso   1.00
C113   C     0.16402   0.75000   0.16667   0.00000  Uiso   1.00
C114   C     0.22298   0.94757   0.20030   0.00000  Uiso   1.00
C115   C     0.25000   0.75000   0.07283   0.00000  Uiso   1.00
C116   C     0.25000   0.75000   0.26050   0.00000  Uiso   1.00
C117   C     0.25000   0.52664   0.16667   0.00000  Uiso   1.00
C118   C     0.25000   0.97336   0.16667   0.00000  Uiso   1.00
C119   C     0.25000   0.75000   0.02178   0.00000  Uiso   1.00
C120   C     0.25000   0.75000   0.31155   0.00000  Uiso   1.00
C121   C     0.04698   0.76965   0.20717   0.00000  Uiso   1.00
C122   C     0.45301   0.73038   0.20718   0.00000  Uiso   1.00
C123   C     0.45302   0.76963   0.12615   0.00000  Uiso   1.00
C124   C     0.33598   0.75000   0.16666   0.00000  Uiso   1.00
C125   C     0.04699   0.73035   0.12617   0.00000  Uiso   1.00
C126   C     0.09324   0.76993   0.20731   0.00000  Uiso   1.00
C127   C     0.40675   0.73009   0.20731   0.00000  Uiso   1.00
C128   C     0.40676   0.76991   0.12602   0.00000  Uiso   1.00
C129   C     0.09325   0.73007   0.12603   0.00000  Uiso   1.00
C130   C     0.11625   0.75000   0.16667   0.00000  Uiso   1.00
C131   C     0.38375   0.75000   0.16666   0.00000  Uiso   1.00
C132   C     0.02408   0.75000   0.16667   0.00000  Uiso   1.00
C133   C     0.47592   0.75000   0.16667   0.00000  Uiso   1.00
C134   C     0.22411   0.60220   0.13326   0.00000  Uiso   1.00
C135   C     0.27646   0.89780   0.13382   0.00000  Uiso   1.00
C136   C     0.27589   0.60220   0.20007   0.00000  Uiso   1.00
C137   C     0.22354   0.89780   0.19951   0.00000  Uiso   1.00
C138   C     0.22358   0.55243   0.13245   0.00000  Uiso   1.00
C139   C     0.27702   0.94757   0.13303   0.00000  Uiso   1.00
C140   C     0.27642   0.55243   0.20088   0.00000  Uiso   1.00
Cl141  Cl    0.12126   0.79411   0.25945   0.00000  Uiso   1.00
Cl142  Cl    0.37872   0.70594   0.25947   0.00000  Uiso   1.00
Cl143  Cl    0.37874   0.79406   0.07386   0.00000  Uiso   1.00
Cl144  Cl    0.12128   0.70589   0.07390   0.00000  Uiso   1.00
Cl145  Cl    0.18935   0.52356   0.08848   0.00000  Uiso   1.00
Cl146  Cl    0.31203   0.97644   0.08983   0.00000  Uiso   1.00
Cl147  Cl    0.31065   0.52356   0.24485   0.00000  Uiso   1.00
Cl148  Cl    0.18797   0.97644   0.24351   0.00000  Uiso   1.00
H149   H     0.20371   0.62181   0.10705   0.00000  Uiso   1.00
H150   H     0.29732   0.87819   0.10805   0.00000  Uiso   1.00
H151   H     0.29629   0.62181   0.22628   0.00000  Uiso   1.00
H152   H     0.20268   0.87818   0.22528   0.00000  Uiso   1.00
H153   H     0.02885   0.78494   0.23835   0.00000  Uiso   1.00
H154   H     0.47113   0.71511   0.23837   0.00000  Uiso   1.00
H155   H     0.47115   0.78490   0.09497   0.00000  Uiso   1.00
H156   H     0.02887   0.71506   0.09499   0.00000  Uiso   1.00
N157   N     0.25000   0.62623   0.16667   0.00000  Uiso   1.00
N158   N     0.25000   0.87376   0.16667   0.00000  Uiso   1.00
O159   O     0.18453   0.78974   0.16667   0.00000  Uiso   1.00
O160   O     0.31547   0.71026   0.16666   0.00000  Uiso   1.00
O161   O     0.31547   0.78974   0.16666   0.00000  Uiso   1.00
O162   O     0.18453   0.71026   0.16667   0.00000  Uiso   1.00
O163   O     0.25000   0.78973   0.09511   0.00000  Uiso   1.00
O164   O     0.25000   0.71027   0.23822   0.00000  Uiso   1.00
O165   O     0.25000   0.78973   0.23822   0.00000  Uiso   1.00
O166   O     0.25000   0.71027   0.09511   0.00000  Uiso   1.00
Zn167  Zn    0.25000   0.80307   0.16667   0.00000  Uiso   1.00
Zn168  Zn    0.25000   0.69693   0.16667   0.00000  Uiso   1.00
C169   C     0.66402   0.75000   0.16667   0.00000  Uiso   1.00
C170   C     0.72298   0.94757   0.20030   0.00000  Uiso   1.00
C171   C     0.75000   0.75000   0.07283   0.00000  Uiso   1.00
C172   C     0.75000   0.75000   0.26050   0.00000  Uiso   1.00
C173   C     0.75000   0.52664   0.16667   0.00000  Uiso   1.00
C174   C     0.75000   0.97336   0.16667   0.00000  Uiso   1.00
C175   C     0.75000   0.75000   0.02178   0.00000  Uiso   1.00
C176   C     0.75000   0.75000   0.31155   0.00000  Uiso   1.00
C177   C     0.54698   0.76965   0.20717   0.00000  Uiso   1.00
C178   C     0.95301   0.73038   0.20718   0.00000  Uiso   1.00
C179   C     0.95302   0.76963   0.12615   0.00000  Uiso   1.00
C180   C     0.83598   0.75000   0.16666   0.00000  Uiso   1.00
C181   C     0.54699   0.73035   0.12617   0.00000  Uiso   1.00
C182   C     0.59324   0.76993   0.20731   0.00000  Uiso   1.00
C183   C     0.90675   0.73009   0.20731   0.00000  Uiso   1.00
C184   C     0.90676   0.76991   0.12602   0.00000  Uiso   1.00
C185   C     0.59325   0.73007   0.12603   0.00000  Uiso   1.00
C186   C     0.61625   0.75000   0.16667   0.00000  Uiso   1.00
C187   C     0.88375   0.75000   0.16666   0.00000  Uiso   1.00
C188   C     0.52408   0.75000   0.16667   0.00000  Uiso   1.00
C189   C     0.97592   0.75000   0.16667   0.00000  Uiso   1.00
C190   C     0.72411   0.60220   0.13326   0.00000  Uiso   1.00
C191   C     0.77646   0.89780   0.13382   0.00000  Uiso   1.00
C192   C     0.77589   0.60220   0.20007   0.00000  Uiso   1.00
C193   C     0.72354   0.89780   0.19951   0.00000  Uiso   1.00
C194   C     0.72358   0.55243   0.13245   0.00000  Uiso   1.00
C195   C     0.77702   0.94757   0.13303   0.00000  Uiso   1.00
C196   C     0.77642   0.55243   0.20088   0.00000  Uiso   1.00
Cl197  Cl    0.62126   0.79411   0.25945   0.00000  Uiso   1.00
Cl198  Cl    0.87872   0.70594   0.25947   0.00000  Uiso   1.00
Cl199  Cl    0.87874   0.79406   0.07386   0.00000  Uiso   1.00
Cl200  Cl    0.62128   0.70589   0.07390   0.00000  Uiso   1.00
Cl201  Cl    0.68935   0.52356   0.08848   0.00000  Uiso   1.00
Cl202  Cl    0.81203   0.97644   0.08983   0.00000  Uiso   1.00
Cl203  Cl    0.81065   0.52356   0.24485   0.00000  Uiso   1.00
Cl204  Cl    0.68797   0.97644   0.24351   0.00000  Uiso   1.00
H205   H     0.70371   0.62181   0.10705   0.00000  Uiso   1.00
H206   H     0.79732   0.87819   0.10805   0.00000  Uiso   1.00
H207   H     0.79629   0.62181   0.22628   0.00000  Uiso   1.00
H208   H     0.70268   0.87818   0.22528   0.00000  Uiso   1.00
H209   H     0.52885   0.78494   0.23835   0.00000  Uiso   1.00
H210   H     0.97113   0.71511   0.23837   0.00000  Uiso   1.00
H211   H     0.97115   0.78490   0.09497   0.00000  Uiso   1.00
H212   H     0.52887   0.71506   0.09499   0.00000  Uiso   1.00
N213   N     0.75000   0.62623   0.16667   0.00000  Uiso   1.00
N214   N     0.75000   0.87376   0.16667   0.00000  Uiso   1.00
O215   O     0.68453   0.78974   0.16667   0.00000  Uiso   1.00
O216   O     0.81547   0.71026   0.16666   0.00000  Uiso   1.00
O217   O     0.81547   0.78974   0.16666   0.00000  Uiso   1.00
O218   O     0.68453   0.71026   0.16667   0.00000  Uiso   1.00
O219   O     0.75000   0.78973   0.09511   0.00000  Uiso   1.00
O220   O     0.75000   0.71027   0.23822   0.00000  Uiso   1.00
O221   O     0.75000   0.78973   0.23822   0.00000  Uiso   1.00
O222   O     0.75000   0.71027   0.09511   0.00000  Uiso   1.00
Zn223  Zn    0.75000   0.80307   0.16667   0.00000  Uiso   1.00
Zn224  Zn    0.75000   0.69693   0.16667   0.00000  Uiso   1.00
C225   C     0.16402   0.25000   0.50000   0.00000  Uiso   1.00
C226   C     0.22298   0.44757   0.53364   0.00000  Uiso   1.00
C227   C     0.25000   0.25000   0.40617   0.00000  Uiso   1.00
C228   C     0.25000   0.25000   0.59383   0.00000  Uiso   1.00
C229   C     0.25000   0.02664   0.50000   0.00000  Uiso   1.00
C230   C     0.25000   0.47336   0.50000   0.00000  Uiso   1.00
C231   C     0.25000   0.25000   0.35512   0.00000  Uiso   1.00
C232   C     0.25000   0.25000   0.64488   0.00000  Uiso   1.00
C233   C     0.04698   0.26965   0.54050   0.00000  Uiso   1.00
C234   C     0.45301   0.23038   0.54052   0.00000  Uiso   1.00
C235   C     0.45302   0.26963   0.45949   0.00000  Uiso   1.00
C236   C     0.33598   0.25000   0.50000   0.00000  Uiso   1.00
C237   C     0.04699   0.23035   0.45950   0.00000  Uiso   1.00
C238   C     0.09324   0.26993   0.54064   0.00000  Uiso   1.00
C239   C     0.40675   0.23009   0.54065   0.00000  Uiso   1.00
C240   C     0.40676   0.26991   0.45935   0.00000  Uiso   1.00
C241   C     0.09325   0.23007   0.45937   0.00000  Uiso   1.00
C242   C     0.11625   0.25000   0.50000   0.00000  Uiso   1.00
C243   C     0.38375   0.25000   0.50000   0.00000  Uiso   1.00
C244   C     0.02408   0.25000   0.50000   0.00000  Uiso   1.00
C245   C     0.47592   0.25000   0.50000   0.00000  Uiso   1.00
C246   C     0.22411   0.10220   0.46659   0.00000  Uiso   1.00
C247   C     0.27646   0.39780   0.46715   0.00000  Uiso   1.00
C248   C     0.27589   0.10220   0.53341   0.00000  Uiso   1.00
C249   C     0.22354   0.39780   0.53284   0.00000  Uiso   1.00
C250   C     0.22358   0.05243   0.46578   0.00000  Uiso   1.00
C251   C     0.27702   0.44757   0.46636   0.00000  Uiso   1.00
C252   C     0.27642   0.05243   0.53422   0.00000  Uiso   1.00
Cl253  Cl    0.12126   0.29411   0.59278   0.00000  Uiso   1.00
Cl254  Cl    0.37872   0.20594   0.59280   0.00000  Uiso   1.00
Cl255  Cl    0.37874   0.29406   0.40719   0.00000  Uiso   1.00
Cl256  Cl    0.12128   0.20589   0.40723   0.00000  Uiso   1.00
Cl257  Cl    0.18935   0.02356   0.42181   0.00000  Uiso   1.00
Cl258  Cl    0.31203   0.47644   0.42316   0.00000  Uiso   1.00
Cl259  Cl    0.31065   0.02356   0.57819   0.00000  Uiso   1.00
Cl260  Cl    0.18797   0.47644   0.57684   0.00000  Uiso   1.00
H261   H     0.20371   0.12181   0.44038   0.00000  Uiso   1.00
H262   H     0.29732   0.37819   0.44139   0.00000  Uiso   1.00
H263   H     0.29629   0.12181   0.55961   0.00000  Uiso   1.00
H264   H     0.20268   0.37818   0.55861   0.00000  Uiso   1.00
H265   H     0.02885   0.28494   0.57168   0.00000  Uiso   1.00
H266   H     0.47113   0.21511   0.57170   0.00000  Uiso   1.00
H267   H     0.47115   0.28490   0.42830   0.00000  Uiso   1.00
H268   H     0.02887   0.21506   0.42833   0.00000  Uiso   1.00
N269   N     0.25000   0.12623   0.50000   0.00000  Uiso   1.00
N270   N     0.25000   0.37376   0.50000   0.00000  Uiso   1.00
O271   O     0.18453   0.28974   0.50000   0.00000  Uiso   1.00
O272   O     0.31547   0.21026   0.50000   0.00000  Uiso   1.00
O273   O     0.31547   0.28974   0.50000   0.00000  Uiso   1.00
O274   O     0.18453   0.21026   0.50000   0.00000  Uiso   1.00
O275   O     0.25000   0.28973   0.42845   0.00000  Uiso   1.00
O276   O     0.25000   0.21027   0.57155   0.00000  Uiso   1.00
O277   O     0.25000   0.28973   0.57155   0.00000  Uiso   1.00
O278   O     0.25000   0.21027   0.42845   0.00000  Uiso   1.00
Zn279  Zn    0.25000   0.30307   0.50000   0.00000  Uiso   1.00
Zn280  Zn    0.25000   0.19693   0.50000   0.00000  Uiso   1.00
C281   C     0.66402   0.25000   0.50000   0.00000  Uiso   1.00
C282   C     0.72298   0.44757   0.53364   0.00000  Uiso   1.00
C283   C     0.75000   0.25000   0.40617   0.00000  Uiso   1.00
C284   C     0.75000   0.25000   0.59383   0.00000  Uiso   1.00
C285   C     0.75000   0.02664   0.50000   0.00000  Uiso   1.00
C286   C     0.75000   0.47336   0.50000   0.00000  Uiso   1.00
C287   C     0.75000   0.25000   0.35512   0.00000  Uiso   1.00
C288   C     0.75000   0.25000   0.64488   0.00000  Uiso   1.00
C289   C     0.54698   0.26965   0.54050   0.00000  Uiso   1.00
C290   C     0.95301   0.23038   0.54052   0.00000  Uiso   1.00
C291   C     0.95302   0.26963   0.45949   0.00000  Uiso   1.00
C292   C     0.83598   0.25000   0.50000   0.00000  Uiso   1.00
C293   C     0.54699   0.23035   0.45950   0.00000  Uiso   1.00
C294   C     0.59324   0.26993   0.54064   0.00000  Uiso   1.00
C295   C     0.90675   0.23009   0.54065   0.00000  Uiso   1.00
C296   C     0.90676   0.26991   0.45935   0.00000  Uiso   1.00
C297   C     0.59325   0.23007   0.45937   0.00000  Uiso   1.00
C298   C     0.61625   0.25000   0.50000   0.00000  Uiso   1.00
C299   C     0.88375   0.25000   0.50000   0.00000  Uiso   1.00
C300   C     0.52408   0.25000   0.50000   0.00000  Uiso   1.00
C301   C     0.97592   0.25000   0.50000   0.00000  Uiso   1.00
C302   C     0.72411   0.10220   0.46659   0.00000  Uiso   1.00
C303   C     0.77646   0.39780   0.46715   0.00000  Uiso   1.00
C304   C     0.77589   0.10220   0.53341   0.00000  Uiso   1.00
C305   C     0.72354   0.39780   0.53284   0.00000  Uiso   1.00
C306   C     0.72358   0.05243   0.46578   0.00000  Uiso   1.00
C307   C     0.77702   0.44757   0.46636   0.00000  Uiso   1.00
C308   C     0.77642   0.05243   0.53422   0.00000  Uiso   1.00
Cl309  Cl    0.62126   0.29411   0.59278   0.00000  Uiso   1.00
Cl310  Cl    0.87872   0.20594   0.59280   0.00000  Uiso   1.00
Cl311  Cl    0.87874   0.29406   0.40719   0.00000  Uiso   1.00
Cl312  Cl    0.62128   0.20589   0.40723   0.00000  Uiso   1.00
Cl313  Cl    0.68935   0.02356   0.42181   0.00000  Uiso   1.00
Cl314  Cl    0.81203   0.47644   0.42316   0.00000  Uiso   1.00
Cl315  Cl    0.81065   0.02356   0.57819   0.00000  Uiso   1.00
Cl316  Cl    0.68797   0.47644   0.57684   0.00000  Uiso   1.00
H317   H     0.70371   0.12181   0.44038   0.00000  Uiso   1.00
H318   H     0.79732   0.37819   0.44139   0.00000  Uiso   1.00
H319   H     0.79629   0.12181   0.55961   0.00000  Uiso   1.00
H320   H     0.70268   0.37818   0.55861   0.00000  Uiso   1.00
H321   H     0.52885   0.28494   0.57168   0.00000  Uiso   1.00
H322   H     0.97113   0.21511   0.57170   0.00000  Uiso   1.00
H323   H     0.97115   0.28490   0.42830   0.00000  Uiso   1.00
H324   H     0.52887   0.21506   0.42833   0.00000  Uiso   1.00
N325   N     0.75000   0.12623   0.50000   0.00000  Uiso   1.00
N326   N     0.75000   0.37376   0.50000   0.00000  Uiso   1.00
O327   O     0.68453   0.28974   0.50000   0.00000  Uiso   1.00
O328   O     0.81547   0.21026   0.50000   0.00000  Uiso   1.00
O329   O     0.81547   0.28974   0.50000   0.00000  Uiso   1.00
O330   O     0.68453   0.21026   0.50000   0.00000  Uiso   1.00
O331   O     0.75000   0.28973   0.42845   0.00000  Uiso   1.00
O332   O     0.75000   0.21027   0.57155   0.00000  Uiso   1.00
O333   O     0.75000   0.28973   0.57155   0.00000  Uiso   1.00
O334   O     0.75000   0.21027   0.42845   0.00000  Uiso   1.00
Zn335  Zn    0.75000   0.30307   0.50000   0.00000  Uiso   1.00
Zn336  Zn    0.75000   0.19693   0.50000   0.00000  Uiso   1.00
C337   C     0.16402   0.75000   0.50000   0.00000  Uiso   1.00
C338   C     0.22298   0.94757   0.53364   0.00000  Uiso   1.00
C339   C     0.25000   0.75000   0.40617   0.00000  Uiso   1.00
C340   C     0.25000   0.75000   0.59383   0.00000  Uiso   1.00
C341   C     0.25000   0.52664   0.50000   0.00000  Uiso   1.00
C342   C     0.25000   0.97336   0.50000   0.00000  Uiso   1.00
C343   C     0.25000   0.75000   0.35512   0.00000  Uiso   1.00
C344   C     0.25000   0.75000   0.64488   0.00000  Uiso   1.00
C345   C     0.04698   0.76965   0.54050   0.00000  Uiso   1.00
C346   C     0.45301   0.73038   0.54052   0.00000  Uiso   1.00
C347   C     0.45302   0.76963   0.45949   0.00000  Uiso   1.00
C348   C     0.33598   0.75000   0.50000   0.00000  Uiso   1.00
C349   C     0.04699   0.73035   0.45950   0.00000  Uiso   1.00
C350   C     0.09324   0.76993   0.54064   0.00000  Uiso   1.00
C351   C     0.40675   0.73009   0.54065   0.00000  Uiso   1.00
C352   C     0.40676   0.76991   0.45935   0.00000  Uiso   1.00
C353   C     0.09325   0.73007   0.45937   0.00000  Uiso   1.00
C354   C     0.11625   0.75000   0.50000   0.00000  Uiso   1.00
C355   C     0.38375   0.75000   0.50000   0.00000  Uiso   1.00
C356   C     0.02408   0.75000   0.50000   0.00000  Uiso   1.00
C357   C     0.47592   0.75000   0.50000   0.00000  Uiso   1.00
C358   C     0.22411   0.60220   0.46659   0.00000  Uiso   1.00
C359   C     0.27646   0.89780   0.46715   0.00000  Uiso   1.00
C360   C     0.27589   0.60220   0.53341   0.00000  Uiso   1.00
C361   C     0.22354   0.89780   0.53284   0.00000  Uiso   1.00
C362   C     0.22358   0.55243   0.46578   0.00000  Uiso   1.00
C363   C     0.27702   0.94757   0.46636   0.00000  Uiso   1.00
C364   C     0.27642   0.55243   0.53422   0.00000  Uiso   1.00
Cl365  Cl    0.12126   0.79411   0.59278   0.00000  Uiso   1.00
Cl366  Cl    0.37872   0.70594   0.59280   0.00000  Uiso   1.00
Cl367  Cl    0.37874   0.79406   0.40719   0.00000  Uiso   1.00
Cl368  Cl    0.12128   0.70589   0.40723   0.00000  Uiso   1.00
Cl369  Cl    0.18935   0.52356   0.42181   0.00000  Uiso   1.00
Cl370  Cl    0.31203   0.97644   0.42316   0.00000  Uiso   1.00
Cl371  Cl    0.31065   0.52356   0.57819   0.00000  Uiso   1.00
Cl372  Cl    0.18797   0.97644   0.57684   0.00000  Uiso   1.00
H373   H     0.20371   0.62181   0.44038   0.00000  Uiso   1.00
H374   H     0.29732   0.87819   0.44139   0.00000  Uiso   1.00
H375   H     0.29629   0.62181   0.55961   0.00000  Uiso   1.00
H376   H     0.20268   0.87818   0.55861   0.00000  Uiso   1.00
H377   H     0.02885   0.78494   0.57168   0.00000  Uiso   1.00
H378   H     0.47113   0.71511   0.57170   0.00000  Uiso   1.00
H379   H     0.47115   0.78490   0.42830   0.00000  Uiso   1.00
H380   H     0.02887   0.71506   0.42833   0.00000  Uiso   1.00
N381   N     0.25000   0.62623   0.50000   0.00000  Uiso   1.00
N382   N     0.25000   0.87376   0.50000   0.00000  Uiso   1.00
O383   O     0.18453   0.78974   0.50000   0.00000  Uiso   1.00
O384   O     0.31547   0.71026   0.50000   0.00000  Uiso   1.00
O385   O     0.31547   0.78974   0.50000   0.00000  Uiso   1.00
O386   O     0.18453   0.71026   0.50000   0.00000  Uiso   1.00
O387   O     0.25000   0.78973   0.42845   0.00000  Uiso   1.00
O388   O     0.25000   0.71027   0.57155   0.00000  Uiso   1.00
O389   O     0.25000   0.78973   0.57155   0.00000  Uiso   1.00
O390   O     0.25000   0.71027   0.42845   0.00000  Uiso   1.00
Zn391  Zn    0.25000   0.80307   0.50000   0.00000  Uiso   1.00
Zn392  Zn    0.25000   0.69693   0.50000   0.00000  Uiso   1.00
C393   C     0.66402   0.75000   0.50000   0.00000  Uiso   1.00
C394   C     0.72298   0.94757   0.53364   0.00000  Uiso   1.00
C395   C     0.75000   0.75000   0.40617   0.00000  Uiso   1.00
C396   C     0.75000   0.75000   0.59383   0.00000  Uiso   1.00
C397   C     0.75000   0.52664   0.50000   0.00000  Uiso   1.00
C398   C     0.75000   0.97336   0.50000   0.00000  Uiso   1.00
C399   C     0.75000   0.75000   0.35512   0.00000  Uiso   1.00
C400   C     0.75000   0.75000   0.64488   0.00000  Uiso   1.00
C401   C     0.54698   0.76965   0.54050   0.00000  Uiso   1.00
C402   C     0.95301   0.73038   0.54052   0.00000  Uiso   1.00
C403   C     0.95302   0.76963   0.45949   0.00000  Uiso   1.00
C404   C     0.83598   0.75000   0.50000   0.00000  Uiso   1.00
C405   C     0.54699   0.73035   0.45950   0.00000  Uiso   1.00
C406   C     0.59324   0.76993   0.54064   0.00000  Uiso   1.00
C407   C     0.90675   0.73009   0.54065   0.00000  Uiso   1.00
C408   C     0.90676   0.76991   0.45935   0.00000  Uiso   1.00
C409   C     0.59325   0.73007   0.45937   0.00000  Uiso   1.00
C410   C     0.61625   0.75000   0.50000   0.00000  Uiso   1.00
C411   C     0.88375   0.75000   0.50000   0.00000  Uiso   1.00
C412   C     0.52408   0.75000   0.50000   0.00000  Uiso   1.00
C413   C     0.97592   0.75000   0.50000   0.00000  Uiso   1.00
C414   C     0.72411   0.60220   0.46659   0.00000  Uiso   1.00
C415   C     0.77646   0.89780   0.46715   0.00000  Uiso   1.00
C416   C     0.77589   0.60220   0.53341   0.00000  Uiso   1.00
C417   C     0.72354   0.89780   0.53284   0.00000  Uiso   1.00
C418   C     0.72358   0.55243   0.46578   0.00000  Uiso   1.00
C419   C     0.77702   0.94757   0.46636   0.00000  Uiso   1.00
C420   C     0.77642   0.55243   0.53422   0.00000  Uiso   1.00
Cl421  Cl    0.62126   0.79411   0.59278   0.00000  Uiso   1.00
Cl422  Cl    0.87872   0.70594   0.59280   0.00000  Uiso   1.00
Cl423  Cl    0.87874   0.79406   0.40719   0.00000  Uiso   1.00
Cl424  Cl    0.62128   0.70589   0.40723   0.00000  Uiso   1.00
Cl425  Cl    0.68935   0.52356   0.42181   0.00000  Uiso   1.00
Cl426  Cl    0.81203   0.97644   0.42316   0.00000  Uiso   1.00
Cl427  Cl    0.81065   0.52356   0.57819   0.00000  Uiso   1.00
Cl428  Cl    0.68797   0.97644   0.57684   0.00000  Uiso   1.00
H429   H     0.70371   0.62181   0.44038   0.00000  Uiso   1.00
H430   H     0.79732   0.87819   0.44139   0.00000  Uiso   1.00
H431   H     0.79629   0.62181   0.55961   0.00000  Uiso   1.00
H432   H     0.70268   0.87818   0.55861   0.00000  Uiso   1.00
H433   H     0.52885   0.78494   0.57168   0.00000  Uiso   1.00
H434   H     0.97113   0.71511   0.57170   0.00000  Uiso   1.00
H435   H     0.97115   0.78490   0.42830   0.00000  Uiso   1.00
H436   H     0.52887   0.71506   0.42833   0.00000  Uiso   1.00
N437   N     0.75000   0.62623   0.50000   0.00000  Uiso   1.00
N438   N     0.75000   0.87376   0.50000   0.00000  Uiso   1.00
O439   O     0.68453   0.78974   0.50000   0.00000  Uiso   1.00
O440   O     0.81547   0.71026   0.50000   0.00000  Uiso   1.00
O441   O     0.81547   0.78974   0.50000   0.00000  Uiso   1.00
O442   O     0.68453   0.71026   0.50000   0.00000  Uiso   1.00
O443   O     0.75000   0.78973   0.42845   0.00000  Uiso   1.00
O444   O     0.75000   0.71027   0.57155   0.00000  Uiso   1.00
O445   O     0.75000   0.78973   0.57155   0.00000  Uiso   1.00
O446   O     0.75000   0.71027   0.42845   0.00000  Uiso   1.00
Zn447  Zn    0.75000   0.80307   0.50000   0.00000  Uiso   1.00
Zn448  Zn    0.75000   0.69693   0.50000   0.00000  Uiso   1.00
C449   C     0.16402   0.25000   0.83334   0.00000  Uiso   1.00
C450   C     0.22298   0.44757   0.86697   0.00000  Uiso   1.00
C451   C     0.25000   0.25000   0.73950   0.00000  Uiso   1.00
C452   C     0.25000   0.25000   0.92717   0.00000  Uiso   1.00
C453   C     0.25000   0.02664   0.83333   0.00000  Uiso   1.00
C454   C     0.25000   0.47336   0.83333   0.00000  Uiso   1.00
C455   C     0.25000   0.25000   0.68845   0.00000  Uiso   1.00
C456   C     0.25000   0.25000   0.97822   0.00000  Uiso   1.00
C457   C     0.04698   0.26965   0.87384   0.00000  Uiso   1.00
C458   C     0.45301   0.23038   0.87385   0.00000  Uiso   1.00
C459   C     0.45302   0.26963   0.79282   0.00000  Uiso   1.00
C460   C     0.33598   0.25000   0.83333   0.00000  Uiso   1.00
C461   C     0.04699   0.23035   0.79284   0.00000  Uiso   1.00
C462   C     0.09324   0.26993   0.87397   0.00000  Uiso   1.00
C463   C     0.40675   0.23009   0.87398   0.00000  Uiso   1.00
C464   C     0.40676   0.26991   0.79268   0.00000  Uiso   1.00
C465   C     0.09325   0.23007   0.79270   0.00000  Uiso   1.00
C466   C     0.11625   0.25000   0.83334   0.00000  Uiso   1.00
C467   C     0.38375   0.25000   0.83333   0.00000  Uiso   1.00
C468   C     0.02408   0.25000   0.83334   0.00000  Uiso   1.00
C469   C     0.47592   0.25000   0.83334   0.00000  Uiso   1.00
C470   C     0.22411   0.10220   0.79993   0.00000  Uiso   1.00
C471   C     0.27646   0.39780   0.80049   0.00000  Uiso   1.00
C472   C     0.27589   0.10220   0.86674   0.00000  Uiso   1.00
C473   C     0.22354   0.39780   0.86618   0.00000  Uiso   1.00
C474   C     0.22358   0.05243   0.79911   0.00000  Uiso   1.00
C475   C     0.27702   0.44757   0.79970   0.00000  Uiso   1.00
C476   C     0.27642   0.05243   0.86755   0.00000  Uiso   1.00
Cl477  Cl    0.12126   0.29411   0.92611   0.00000  Uiso   1.00
Cl478  Cl    0.37872   0.20594   0.92613   0.00000  Uiso   1.00
Cl479  Cl    0.37874   0.29406   0.74053   0.00000  Uiso   1.00
Cl480  Cl    0.12128   0.20589   0.74056   0.00000  Uiso   1.00
Cl481  Cl    0.18935   0.02356   0.75514   0.00000  Uiso   1.00
Cl482  Cl    0.31203   0.47644   0.75649   0.00000  Uiso   1.00
Cl483  Cl    0.31065   0.02356   0.91152   0.00000  Uiso   1.00
Cl484  Cl    0.18797   0.47644   0.91017   0.00000  Uiso   1.00
H485   H     0.20371   0.12181   0.77372   0.00000  Uiso   1.00
H486   H     0.29732   0.37819   0.77472   0.00000  Uiso   1.00
H487   H     0.29629   0.12181   0.89295   0.00000  Uiso   1.00
H488   H     0.20268   0.37818   0.89195   0.00000  Uiso   1.00
H489   H     0.02885   0.28494   0.90501   0.00000  Uiso   1.00
H490   H     0.47113   0.21511   0.90503   0.00000  Uiso   1.00
H491   H     0.47115   0.28490   0.76164   0.00000  Uiso   1.00
H492   H     0.02887   0.21506   0.76166   0.00000  Uiso   1.00
N493   N     0.25000   0.12623   0.83333   0.00000  Uiso   1.00
N494   N     0.25000   0.37376   0.83333   0.00000  Uiso   1.00
O495   O     0.18453   0.28974   0.83334   0.00000  Uiso   1.00
O496   O     0.31547   0.21026   0.83333   0.00000  Uiso   1.00
O497   O     0.31547   0.28974   0.83333   0.00000  Uiso   1.00
O498   O     0.18453   0.21026   0.83334   0.00000  Uiso   1.00
O499   O     0.25000   0.28973   0.76178   0.00000  Uiso   1.00
O500   O     0.25000   0.21027   0.90489   0.00000  Uiso   1.00
O501   O     0.25000   0.28973   0.90489   0.00000  Uiso   1.00
O502   O     0.25000   0.21027   0.76178   0.00000  Uiso   1.00
Zn503  Zn    0.25000   0.30307   0.83333   0.00000  Uiso   1.00
Zn504  Zn    0.25000   0.19693   0.83333   0.00000  Uiso   1.00
C505   C     0.66402   0.25000   0.83334   0.00000  Uiso   1.00
C506   C     0.72298   0.44757   0.86697   0.00000  Uiso   1.00
C507   C     0.75000   0.25000   0.73950   0.00000  Uiso   1.00
C508   C     0.75000   0.25000   0.92717   0.00000  Uiso   1.00
C509   C     0.75000   0.02664   0.83333   0.00000  Uiso   1.00
C510   C     0.75000   0.47336   0.83333   0.00000  Uiso   1.00
C511   C     0.75000   0.25000   0.68845   0.00000  Uiso   1.00
C512   C     0.75000   0.25000   0.97822   0.00000  Uiso   1.00
C513   C     0.54698   0.26965   0.87384   0.00000  Uiso   1.00
C514   C     0.95301   0.23038   0.87385   0.00000  Uiso   1.00
C515   C     0.95302   0.26963   0.79282   0.00000  Uiso   1.00
C516   C     0.83598   0.25000   0.83333   0.00000  Uiso   1.00
C517   C     0.54699   0.23035   0.79284   0.00000  Uiso   1.00
C518   C     0.59324   0.26993   0.87397   0.00000  Uiso   1.00
C519   C     0.90675   0.23009   0.87398   0.00000  Uiso   1.00
C520   C     0.90676   0.26991   0.79268   0.00000  Uiso   1.00
C521   C     0.59325   0.23007   0.79270   0.00000  Uiso   1.00
C522   C     0.61625   0.25000   0.83334   0.00000  Uiso   1.00
C523   C     0.88375   0.25000   0.83333   0.00000  Uiso   1.00
C524   C     0.52408   0.25000   0.83334   0.00000  Uiso   1.00
C525   C     0.97592   0.25000   0.83334   0.00000  Uiso   1.00
C526   C     0.72411   0.10220   0.79993   0.00000  Uiso   1.00
C527   C     0.77646   0.39780   0.80049   0.00000  Uiso   1.00
C528   C     0.77589   0.10220   0.86674   0.00000  Uiso   1.00
C529   C     0.72354   0.39780   0.86618   0.00000  Uiso   1.00
C530   C     0.72358   0.05243   0.79911   0.00000  Uiso   1.00
C531   C     0.77702   0.44757   0.79970   0.00000  Uiso   1.00
C532   C     0.77642   0.05243   0.86755   0.00000  Uiso   1.00
Cl533  Cl    0.62126   0.29411   0.92611   0.00000  Uiso   1.00
Cl534  Cl    0.87872   0.20594   0.92613   0.00000  Uiso   1.00
Cl535  Cl    0.87874   0.29406   0.74053   0.00000  Uiso   1.00
Cl536  Cl    0.62128   0.20589   0.74056   0.00000  Uiso   1.00
Cl537  Cl    0.68935   0.02356   0.75514   0.00000  Uiso   1.00
Cl538  Cl    0.81203   0.47644   0.75649   0.00000  Uiso   1.00
Cl539  Cl    0.81065   0.02356   0.91152   0.00000  Uiso   1.00
Cl540  Cl    0.68797   0.47644   0.91017   0.00000  Uiso   1.00
H541   H     0.70371   0.12181   0.77372   0.00000  Uiso   1.00
H542   H     0.79732   0.37819   0.77472   0.00000  Uiso   1.00
H543   H     0.79629   0.12181   0.89295   0.00000  Uiso   1.00
H544   H     0.70268   0.37818   0.89195   0.00000  Uiso   1.00
H545   H     0.52885   0.28494   0.90501   0.00000  Uiso   1.00
H546   H     0.97113   0.21511   0.90503   0.00000  Uiso   1.00
H547   H     0.97115   0.28490   0.76164   0.00000  Uiso   1.00
H548   H     0.52887   0.21506   0.76166   0.00000  Uiso   1.00
N549   N     0.75000   0.12623   0.83333   0.00000  Uiso   1.00
N550   N     0.75000   0.37376   0.83333   0.00000  Uiso   1.00
O551   O     0.68453   0.28974   0.83334   0.00000  Uiso   1.00
O552   O     0.81547   0.21026   0.83333   0.00000  Uiso   1.00
O553   O     0.81547   0.28974   0.83333   0.00000  Uiso   1.00
O554   O     0.68453   0.21026   0.83334   0.00000  Uiso   1.00
O555   O     0.75000   0.28973   0.76178   0.00000  Uiso   1.00
O556   O     0.75000   0.21027   0.90489   0.00000  Uiso   1.00
O557   O     0.75000   0.28973   0.90489   0.00000  Uiso   1.00
O558   O     0.75000   0.21027   0.76178   0.00000  Uiso   1.00
Zn559  Zn    0.75000   0.30307   0.83333   0.00000  Uiso   1.00
Zn560  Zn    0.75000   0.19693   0.83333   0.00000  Uiso   1.00
C561   C     0.16402   0.75000   0.83334   0.00000  Uiso   1.00
C562   C     0.22298   0.94757   0.86697   0.00000  Uiso   1.00
C563   C     0.25000   0.75000   0.73950   0.00000  Uiso   1.00
C564   C     0.25000   0.75000   0.92717   0.00000  Uiso   1.00
C565   C     0.25000   0.52664   0.83333   0.00000  Uiso   1.00
C566   C     0.25000   0.97336   0.83333   0.00000  Uiso   1.00
C567   C     0.25000   0.75000   0.68845   0.00000  Uiso   1.00
C568   C     0.25000   0.75000   0.97822   0.00000  Uiso   1.00
C569   C     0.04698   0.76965   0.87384   0.00000  Uiso   1.00
C570   C     0.45301   0.73038   0.87385   0.00000  Uiso   1.00
C571   C     0.45302   0.76963   0.79282   0.00000  Uiso   1.00
C572   C     0.33598   0.75000   0.83333   0.00000  Uiso   1.00
C573   C     0.04699   0.73035   0.79284   0.00000  Uiso   1.00
C574   C     0.09324   0.76993   0.87397   0.00000  Uiso   1.00
C575   C     0.40675   0.73009   0.87398   0.00000  Uiso   1.00
C576   C     0.40676   0.76991   0.79268   0.00000  Uiso   1.00
C577   C     0.09325   0.73007   0.79270   0.00000  Uiso   1.00
C578   C     0.11625   0.75000   0.83334   0.00000  Uiso   1.00
C579   C     0.38375   0.75000   0.83333   0.00000  Uiso   1.00
C580   C     0.02408   0.75000   0.83334   0.00000  Uiso   1.00
C581   C     0.47592   0.75000   0.83334   0.00000  Uiso   1.00
C582   C     0.22411   0.60220   0.79993   0.00000  Uiso   1.00
C583   C     0.27646   0.89780   0.80049   0.00000  Uiso   1.00
C584   C     0.27589   0.60220   0.86674   0.00000  Uiso   1.00
C585   C     0.22354   0.89780   0.86618   0.00000  Uiso   1.00
C586   C     0.22358   0.55243   0.79911   0.00000  Uiso   1.00
C587   C     0.27702   0.94757   0.79970   0.00000  Uiso   1.00
C588   C     0.27642   0.55243   0.86755   0.00000  Uiso   1.00
Cl589  Cl    0.12126   0.79411   0.92611   0.00000  Uiso   1.00
Cl590  Cl    0.37872   0.70594   0.92613   0.00000  Uiso   1.00
Cl591  Cl    0.37874   0.79406   0.74053   0.00000  Uiso   1.00
Cl592  Cl    0.12128   0.70589   0.74056   0.00000  Uiso   1.00
Cl593  Cl    0.18935   0.52356   0.75514   0.00000  Uiso   1.00
Cl594  Cl    0.31203   0.97644   0.75649   0.00000  Uiso   1.00
Cl595  Cl    0.31065   0.52356   0.91152   0.00000  Uiso   1.00
Cl596  Cl    0.18797   0.97644   0.91017   0.00000  Uiso   1.00
H597   H     0.20371   0.62181   0.77372   0.00000  Uiso   1.00
H598   H     0.29732   0.87819   0.77472   0.00000  Uiso   1.00
H599   H     0.29629   0.62181   0.89295   0.00000  Uiso   1.00
H600   H     0.20268   0.87818   0.89195   0.00000  Uiso   1.00
H601   H     0.02885   0.78494   0.90501   0.00000  Uiso   1.00
H602   H     0.47113   0.71511   0.90503   0.00000  Uiso   1.00
H603   H     0.47115   0.78490   0.76164   0.00000  Uiso   1.00
H604   H     0.02887   0.71506   0.76166   0.00000  Uiso   1.00
N605   N     0.25000   0.62623   0.83333   0.00000  Uiso   1.00
N606   N     0.25000   0.87376   0.83333   0.00000  Uiso   1.00
O607   O     0.18453   0.78974   0.83334   0.00000  Uiso   1.00
O608   O     0.31547   0.71026   0.83333   0.00000  Uiso   1.00
O609   O     0.31547   0.78974   0.83333   0.00000  Uiso   1.00
O610   O     0.18453   0.71026   0.83334   0.00000  Uiso   1.00
O611   O     0.25000   0.78973   0.76178   0.00000  Uiso   1.00
O612   O     0.25000   0.71027   0.90489   0.00000  Uiso   1.00
O613   O     0.25000   0.78973   0.90489   0.00000  Uiso   1.00
O614   O     0.25000   0.71027   0.76178   0.00000  Uiso   1.00
Zn615  Zn    0.25000   0.80307   0.83333   0.00000  Uiso   1.00
Zn616  Zn    0.25000   0.69693   0.83333   0.00000  Uiso   1.00
C617   C     0.66402   0.75000   0.83334   0.00000  Uiso   1.00
C618   C     0.72298   0.94757   0.86697   0.00000  Uiso   1.00
C619   C     0.75000   0.75000   0.73950   0.00000  Uiso   1.00
C620   C     0.75000   0.75000   0.92717   0.00000  Uiso   1.00
C621   C     0.75000   0.52664   0.83333   0.00000  Uiso   1.00
C622   C     0.75000   0.97336   0.83333   0.00000  Uiso   1.00
C623   C     0.75000   0.75000   0.68845   0.00000  Uiso   1.00
C624   C     0.75000   0.75000   0.97822   0.00000  Uiso   1.00
C625   C     0.54698   0.76965   0.87384   0.00000  Uiso   1.00
C626   C     0.95301   0.73038   0.87385   0.00000  Uiso   1.00
C627   C     0.95302   0.76963   0.79282   0.00000  Uiso   1.00
C628   C     0.83598   0.75000   0.83333   0.00000  Uiso   1.00
C629   C     0.54699   0.73035   0.79284   0.00000  Uiso   1.00
C630   C     0.59324   0.76993   0.87397   0.00000  Uiso   1.00
C631   C     0.90675   0.73009   0.87398   0.00000  Uiso   1.00
C632   C     0.90676   0.76991   0.79268   0.00000  Uiso   1.00
C633   C     0.59325   0.73007   0.79270   0.00000  Uiso   1.00
C634   C     0.61625   0.75000   0.83334   0.00000  Uiso   1.00
C635   C     0.88375   0.75000   0.83333   0.00000  Uiso   1.00
C636   C     0.52408   0.75000   0.83334   0.00000  Uiso   1.00
C637   C     0.97592   0.75000   0.83334   0.00000  Uiso   1.00
C638   C     0.72411   0.60220   0.79993   0.00000  Uiso   1.00
C639   C     0.77646   0.89780   0.80049   0.00000  Uiso   1.00
C640   C     0.77589   0.60220   0.86674   0.00000  Uiso   1.00
C641   C     0.72354   0.89780   0.86618   0.00000  Uiso   1.00
C642   C     0.72358   0.55243   0.79911   0.00000  Uiso   1.00
C643   C     0.77702   0.94757   0.79970   0.00000  Uiso   1.00
C644   C     0.77642   0.55243   0.86755   0.00000  Uiso   1.00
Cl645  Cl    0.62126   0.79411   0.92611   0.00000  Uiso   1.00
Cl646  Cl    0.87872   0.70594   0.92613   0.00000  Uiso   1.00
Cl647  Cl    0.87874   0.79406   0.74053   0.00000  Uiso   1.00
Cl648  Cl    0.62128   0.70589   0.74056   0.00000  Uiso   1.00
Cl649  Cl    0.68935   0.52356   0.75514   0.00000  Uiso   1.00
Cl650  Cl    0.81203   0.97644   0.75649   0.00000  Uiso   1.00
Cl651  Cl    0.81065   0.52356   0.91152   0.00000  Uiso   1.00
Cl652  Cl    0.68797   0.97644   0.91017   0.00000  Uiso   1.00
H653   H     0.70371   0.62181   0.77372   0.00000  Uiso   1.00
H654   H     0.79732   0.87819   0.77472   0.00000  Uiso   1.00
H655   H     0.79629   0.62181   0.89295   0.00000  Uiso   1.00
H656   H     0.70268   0.87818   0.89195   0.00000  Uiso   1.00
H657   H     0.52885   0.78494   0.90501   0.00000  Uiso   1.00
H658   H     0.97113   0.71511   0.90503   0.00000  Uiso   1.00
H659   H     0.97115   0.78490   0.76164   0.00000  Uiso   1.00
H660   H     0.52887   0.71506   0.76166   0.00000  Uiso   1.00
N661   N     0.75000   0.62623   0.83333   0.00000  Uiso   1.00
N662   N     0.75000   0.87376   0.83333   0.00000  Uiso   1.00
O663   O     0.68453   0.78974   0.83334   0.00000  Uiso   1.00
O664   O     0.81547   0.71026   0.83333   0.00000  Uiso   1.00
O665   O     0.81547   0.78974   0.83333   0.00000  Uiso   1.00
O666   O     0.68453   0.71026   0.83334   0.00000  Uiso   1.00
O667   O     0.75000   0.78973   0.76178   0.00000  Uiso   1.00
O668   O     0.75000   0.71027   0.90489   0.00000  Uiso   1.00
O669   O     0.75000   0.78973   0.90489   0.00000  Uiso   1.00
O670   O     0.75000   0.71027   0.76178   0.00000  Uiso   1.00
Zn671  Zn    0.75000   0.80307   0.83333   0.00000  Uiso   1.00
Zn672  Zn    0.75000   0.69693   0.83333   0.00000  Uiso   1.00
loop_
_geom_bond_atom_site_label_1
_geom_bond_atom_site_label_2
_geom_bond_distance
_geom_bond_site_symmetry_2
_ccdc_geom_bond_type
C1     O50     1.281   .     A
C1     C18     1.428   .     S
C1     O47     1.281   .     A
C2     C6      1.412   .     A
C2     C25     1.410   .     A
C2     Cl36    1.760   .     S
C3     O54     1.273   .     A
C3     O51     1.273   .     A
C3     C7      1.364   .     S
C4     O53     1.273   .     A
C4     C8      1.364   .     S
C4     O52     1.273   .     A
C5     C26     1.412   .     A
C5     C28     1.412   .     A
C5     C118    1.509   1_545 S
C6     C27     1.412   .     A
C6     C117    1.509   .     S
C7     C456    1.164   1_554 S
C8     C231    1.164   .     S
C9     C14     1.382   .     A
C9     H41     1.084   .     S
C9     C20     1.396   .     A
C10    H42     1.084   .     S
C10    C15     1.382   .     A
C10    C21     1.396   .     A
C11    H43     1.084   .     S
C11    C16     1.382   .     A
C11    C21     1.396   .     A
C12    C19     1.428   .     S
C12    O48     1.281   .     A
C12    O49     1.281   .     A
C13    C20     1.396   .     A
C13    C17     1.382   .     A
C13    H44     1.084   .     S
C14    C18     1.404   .     A
C14    Cl29    1.764   .     S
C15    C19     1.404   .     A
C15    Cl30    1.764   .     S
C16    Cl31    1.764   .     S
C16    C19     1.404   .     A
C17    C18     1.404   .     A
C17    Cl32    1.764   .     S
C20    C77     1.439   1_455 S
C21    C76     1.439   .     S
C22    C26     1.410   .     A
C22    N45     1.363   .     A
C22    H37     1.082   .     S
C23    C27     1.410   .     A
C23    H38     1.082   .     S
C23    N46     1.363   .     A
C24    H39     1.082   .     S
C24    N45     1.363   .     A
C24    C28     1.410   .     A
C25    H40     1.082   .     S
C25    N46     1.363   .     A
C26    Cl33    1.760   .     S
C27    Cl34    1.760   .     S
C28    Cl35    1.760   .     S
N45    Zn56    2.002   .     S
N46    Zn55    2.002   .     S
O47    Zn55    1.993   .     S
O48    Zn56    1.993   .     S
O49    Zn55    1.993   .     S
O50    Zn56    1.993   .     S
O51    Zn55    1.949   .     S
O52    Zn56    1.949   .     S
O53    Zn55    1.949   .     S
O54    Zn56    1.949   .     S
C57    O106    1.281   .     A
C57    C74     1.428   .     S
C57    O103    1.281   .     A
C58    C62     1.412   .     A
C58    C81     1.410   .     A
C58    Cl92    1.760   .     S
C59    O110    1.273   .     A
C59    O107    1.273   .     A
C59    C63     1.364   .     S
C60    O109    1.273   .     A
C60    C64     1.364   .     S
C60    O108    1.273   .     A
C61    C82     1.412   .     A
C61    C84     1.412   .     A
C61    C174    1.509   1_545 S
C62    C83     1.412   .     A
C62    C173    1.509   .     S
C63    C512    1.164   1_554 S
C64    C287    1.164   .     S
C65    C70     1.382   .     A
C65    H97     1.084   .     S
C65    C76     1.396   .     A
C66    H98     1.084   .     S
C66    C71     1.382   .     A
C66    C77     1.396   .     A
C67    H99     1.084   .     S
C67    C72     1.382   .     A
C67    C77     1.396   .     A
C68    C75     1.428   .     S
C68    O104    1.281   .     A
C68    O105    1.281   .     A
C69    C76     1.396   .     A
C69    C73     1.382   .     A
C69    H100    1.084   .     S
C70    C74     1.404   .     A
C70    Cl85    1.764   .     S
C71    C75     1.404   .     A
C71    Cl86    1.764   .     S
C72    Cl87    1.764   .     S
C72    C75     1.404   .     A
C73    C74     1.404   .     A
C73    Cl88    1.764   .     S
C77    C20     1.439   1_655 S
C78    C82     1.410   .     A
C78    N101    1.363   .     A
C78    H93     1.082   .     S
C79    C83     1.410   .     A
C79    H94     1.082   .     S
C79    N102    1.363   .     A
C80    H95     1.082   .     S
C80    N101    1.363   .     A
C80    C84     1.410   .     A
C81    H96     1.082   .     S
C81    N102    1.363   .     A
C82    Cl89    1.760   .     S
C83    Cl90    1.760   .     S
C84    Cl91    1.760   .     S
N101   Zn112   2.002   .     S
N102   Zn111   2.002   .     S
O103   Zn111   1.993   .     S
O104   Zn112   1.993   .     S
O105   Zn111   1.993   .     S
O106   Zn112   1.993   .     S
O107   Zn111   1.949   .     S
O108   Zn112   1.949   .     S
O109   Zn111   1.949   .     S
O110   Zn112   1.949   .     S
C113   O162    1.281   .     A
C113   C130    1.428   .     S
C113   O159    1.281   .     A
C114   C118    1.412   .     A
C114   C137    1.410   .     A
C114   Cl148   1.760   .     S
C115   O166    1.273   .     A
C115   O163    1.273   .     A
C115   C119    1.364   .     S
C116   O165    1.273   .     A
C116   C120    1.364   .     S
C116   O164    1.273   .     A
C117   C138    1.412   .     A
C117   C140    1.412   .     A
C118   C139    1.412   .     A
C118   C5      1.509   1_565 S
C119   C568    1.164   1_554 S
C120   C343    1.164   .     S
C121   C126    1.382   .     A
C121   H153    1.084   .     S
C121   C132    1.396   .     A
C122   H154    1.084   .     S
C122   C127    1.382   .     A
C122   C133    1.396   .     A
C123   H155    1.084   .     S
C123   C128    1.382   .     A
C123   C133    1.396   .     A
C124   C131    1.428   .     S
C124   O160    1.281   .     A
C124   O161    1.281   .     A
C125   C132    1.396   .     A
C125   C129    1.382   .     A
C125   H156    1.084   .     S
C126   C130    1.404   .     A
C126   Cl141   1.764   .     S
C127   C131    1.404   .     A
C127   Cl142   1.764   .     S
C128   Cl143   1.764   .     S
C128   C131    1.404   .     A
C129   C130    1.404   .     A
C129   Cl144   1.764   .     S
C132   C189    1.439   1_455 S
C133   C188    1.439   .     S
C134   C138    1.410   .     A
C134   N157    1.363   .     A
C134   H149    1.082   .     S
C135   C139    1.410   .     A
C135   H150    1.082   .     S
C135   N158    1.363   .     A
C136   H151    1.082   .     S
C136   N157    1.363   .     A
C136   C140    1.410   .     A
C137   H152    1.082   .     S
C137   N158    1.363   .     A
C138   Cl145   1.760   .     S
C139   Cl146   1.760   .     S
C140   Cl147   1.760   .     S
N157   Zn168   2.002   .     S
N158   Zn167   2.002   .     S
O159   Zn167   1.993   .     S
O160   Zn168   1.993   .     S
O161   Zn167   1.993   .     S
O162   Zn168   1.993   .     S
O163   Zn167   1.949   .     S
O164   Zn168   1.949   .     S
O165   Zn167   1.949   .     S
O166   Zn168   1.949   .     S
C169   O218    1.281   .     A
C169   C186    1.428   .     S
C169   O215    1.281   .     A
C170   C174    1.412   .     A
C170   C193    1.410   .     A
C170   Cl204   1.760   .     S
C171   O222    1.273   .     A
C171   O219    1.273   .     A
C171   C175    1.364   .     S
C172   O221    1.273   .     A
C172   C176    1.364   .     S
C172   O220    1.273   .     A
C173   C194    1.412   .     A
C173   C196    1.412   .     A
C174   C195    1.412   .     A
C174   C61     1.509   1_565 S
C175   C624    1.164   1_554 S
C176   C399    1.164   .     S
C177   C182    1.382   .     A
C177   H209    1.084   .     S
C177   C188    1.396   .     A
C178   H210    1.084   .     S
C178   C183    1.382   .     A
C178   C189    1.396   .     A
C179   H211    1.084   .     S
C179   C184    1.382   .     A
C179   C189    1.396   .     A
C180   C187    1.428   .     S
C180   O216    1.281   .     A
C180   O217    1.281   .     A
C181   C188    1.396   .     A
C181   C185    1.382   .     A
C181   H212    1.084   .     S
C182   C186    1.404   .     A
C182   Cl197   1.764   .     S
C183   C187    1.404   .     A
C183   Cl198   1.764   .     S
C184   Cl199   1.764   .     S
C184   C187    1.404   .     A
C185   C186    1.404   .     A
C185   Cl200   1.764   .     S
C189   C132    1.439   1_655 S
C190   C194    1.410   .     A
C190   N213    1.363   .     A
C190   H205    1.082   .     S
C191   C195    1.410   .     A
C191   H206    1.082   .     S
C191   N214    1.363   .     A
C192   H207    1.082   .     S
C192   N213    1.363   .     A
C192   C196    1.410   .     A
C193   H208    1.082   .     S
C193   N214    1.363   .     A
C194   Cl201   1.760   .     S
C195   Cl202   1.760   .     S
C196   Cl203   1.760   .     S
N213   Zn224   2.002   .     S
N214   Zn223   2.002   .     S
O215   Zn223   1.993   .     S
O216   Zn224   1.993   .     S
O217   Zn223   1.993   .     S
O218   Zn224   1.993   .     S
O219   Zn223   1.949   .     S
O220   Zn224   1.949   .     S
O221   Zn223   1.949   .     S
O222   Zn224   1.949   .     S
C225   O274    1.281   .     A
C225   C242    1.428   .     S
C225   O271    1.281   .     A
C226   C230    1.412   .     A
C226   C249    1.410   .     A
C226   Cl260   1.760   .     S
C227   O278    1.273   .     A
C227   O275    1.273   .     A
C227   C231    1.364   .     S
C228   O277    1.273   .     A
C228   C232    1.364   .     S
C228   O276    1.273   .     A
C229   C250    1.412   .     A
C229   C252    1.412   .     A
C229   C342    1.509   1_545 S
C230   C251    1.412   .     A
C230   C341    1.509   .     S
C232   C455    1.164   .     S
C233   C238    1.382   .     A
C233   H265    1.084   .     S
C233   C244    1.396   .     A
C234   H266    1.084   .     S
C234   C239    1.382   .     A
C234   C245    1.396   .     A
C235   H267    1.084   .     S
C235   C240    1.382   .     A
C235   C245    1.396   .     A
C236   C243    1.428   .     S
C236   O272    1.281   .     A
C236   O273    1.281   .     A
C237   C244    1.396   .     A
C237   C241    1.382   .     A
C237   H268    1.084   .     S
C238   C242    1.404   .     A
C238   Cl253   1.764   .     S
C239   C243    1.404   .     A
C239   Cl254   1.764   .     S
C240   Cl255   1.764   .     S
C240   C243    1.404   .     A
C241   C242    1.404   .     A
C241   Cl256   1.764   .     S
C244   C301    1.439   1_455 S
C245   C300    1.439   .     S
C246   C250    1.410   .     A
C246   N269    1.363   .     A
C246   H261    1.082   .     S
C247   C251    1.410   .     A
C247   H262    1.082   .     S
C247   N270    1.363   .     A
C248   H263    1.082   .     S
C248   N269    1.363   .     A
C248   C252    1.410   .     A
C249   H264    1.082   .     S
C249   N270    1.363   .     A
C250   Cl257   1.760   .     S
C251   Cl258   1.760   .     S
C252   Cl259   1.760   .     S
N269   Zn280   2.002   .     S
N270   Zn279   2.002   .     S
O271   Zn279   1.993   .     S
O272   Zn280   1.993   .     S
O273   Zn279   1.993   .     S
O274   Zn280   1.993   .     S
O275   Zn279   1.949   .     S
O276   Zn280   1.949   .     S
O277   Zn279   1.949   .     S
O278   Zn280   1.949   .     S
C281   O330    1.281   .     A
C281   C298    1.428   .     S
C281   O327    1.281   .     A
C282   C286    1.412   .     A
C282   C305    1.410   .     A
C282   Cl316   1.760   .     S
C283   O334    1.273   .     A
C283   O331    1.273   .     A
C283   C287    1.364   .     S
C284   O333    1.273   .     A
C284   C288    1.364   .     S
C284   O332    1.273   .     A
C285   C306    1.412   .     A
C285   C308    1.412   .     A
C285   C398    1.509   1_545 S
C286   C307    1.412   .     A
C286   C397    1.509   .     S
C288   C511    1.164   .     S
C289   C294    1.382   .     A
C289   H321    1.084   .     S
C289   C300    1.396   .     A
C290   H322    1.084   .     S
C290   C295    1.382   .     A
C290   C301    1.396   .     A
C291   H323    1.084   .     S
C291   C296    1.382   .     A
C291   C301    1.396   .     A
C292   C299    1.428   .     S
C292   O328    1.281   .     A
C292   O329    1.281   .     A
C293   C300    1.396   .     A
C293   C297    1.382   .     A
C293   H324    1.084   .     S
C294   C298    1.404   .     A
C294   Cl309   1.764   .     S
C295   C299    1.404   .     A
C295   Cl310   1.764   .     S
C296   Cl311   1.764   .     S
C296   C299    1.404   .     A
C297   C298    1.404   .     A
C297   Cl312   1.764   .     S
C301   C244    1.439   1_655 S
C302   C306    1.410   .     A
C302   N325    1.363   .     A
C302   H317    1.082   .     S
C303   C307    1.410   .     A
C303   H318    1.082   .     S
C303   N326    1.363   .     A
C304   H319    1.082   .     S
C304   N325    1.363   .     A
C304   C308    1.410   .     A
C305   H320    1.082   .     S
C305   N326    1.363   .     A
C306   Cl313   1.760   .     S
C307   Cl314   1.760   .     S
C308   Cl315   1.760   .     S
N325   Zn336   2.002   .     S
N326   Zn335   2.002   .     S
O327   Zn335   1.993   .     S
O328   Zn336   1.993   .     S
O329   Zn335   1.993   .     S
O330   Zn336   1.993   .     S
O331   Zn335   1.949   .     S
O332   Zn336   1.949   .     S
O333   Zn335   1.949   .     S
O334   Zn336   1.949   .     S
C337   O386    1.281   .     A
C337   C354    1.428   .     S
C337   O383    1.281   .     A
C338   C342    1.412   .     A
C338   C361    1.410   .     A
C338   Cl372   1.760   .     S
C339   O390    1.273   .     A
C339   O387    1.273   .     A
C339   C343    1.364   .     S
C340   O389    1.273   .     A
C340   C344    1.364   .     S
C340   O388    1.273   .     A
C341   C362    1.412   .     A
C341   C364    1.412   .     A
C342   C363    1.412   .     A
C342   C229    1.509   1_565 S
C344   C567    1.164   .     S
C345   C350    1.382   .     A
C345   H377    1.084   .     S
C345   C356    1.396   .     A
C346   H378    1.084   .     S
C346   C351    1.382   .     A
C346   C357    1.396   .     A
C347   H379    1.084   .     S
C347   C352    1.382   .     A
C347   C357    1.396   .     A
C348   C355    1.428   .     S
C348   O384    1.281   .     A
C348   O385    1.281   .     A
C349   C356    1.396   .     A
C349   C353    1.382   .     A
C349   H380    1.084   .     S
C350   C354    1.404   .     A
C350   Cl365   1.764   .     S
C351   C355    1.404   .     A
C351   Cl366   1.764   .     S
C352   Cl367   1.764   .     S
C352   C355    1.404   .     A
C353   C354    1.404   .     A
C353   Cl368   1.764   .     S
C356   C413    1.439   1_455 S
C357   C412    1.439   .     S
C358   C362    1.410   .     A
C358   N381    1.363   .     A
C358   H373    1.082   .     S
C359   C363    1.410   .     A
C359   H374    1.082   .     S
C359   N382    1.363   .     A
C360   H375    1.082   .     S
C360   N381    1.363   .     A
C360   C364    1.410   .     A
C361   H376    1.082   .     S
C361   N382    1.363   .     A
C362   Cl369   1.760   .     S
C363   Cl370   1.760   .     S
C364   Cl371   1.760   .     S
N381   Zn392   2.002   .     S
N382   Zn391   2.002   .     S
O383   Zn391   1.993   .     S
O384   Zn392   1.993   .     S
O385   Zn391   1.993   .     S
O386   Zn392   1.993   .     S
O387   Zn391   1.949   .     S
O388   Zn392   1.949   .     S
O389   Zn391   1.949   .     S
O390   Zn392   1.949   .     S
C393   O442    1.281   .     A
C393   C410    1.428   .     S
C393   O439    1.281   .     A
C394   C398    1.412   .     A
C394   C417    1.410   .     A
C394   Cl428   1.760   .     S
C395   O446    1.273   .     A
C395   O443    1.273   .     A
C395   C399    1.364   .     S
C396   O445    1.273   .     A
C396   C400    1.364   .     S
C396   O444    1.273   .     A
C397   C418    1.412   .     A
C397   C420    1.412   .     A
C398   C419    1.412   .     A
C398   C285    1.509   1_565 S
C400   C623    1.164   .     S
C401   C406    1.382   .     A
C401   H433    1.084   .     S
C401   C412    1.396   .     A
C402   H434    1.084   .     S
C402   C407    1.382   .     A
C402   C413    1.396   .     A
C403   H435    1.084   .     S
C403   C408    1.382   .     A
C403   C413    1.396   .     A
C404   C411    1.428   .     S
C404   O440    1.281   .     A
C404   O441    1.281   .     A
C405   C412    1.396   .     A
C405   C409    1.382   .     A
C405   H436    1.084   .     S
C406   C410    1.404   .     A
C406   Cl421   1.764   .     S
C407   C411    1.404   .     A
C407   Cl422   1.764   .     S
C408   Cl423   1.764   .     S
C408   C411    1.404   .     A
C409   C410    1.404   .     A
C409   Cl424   1.764   .     S
C413   C356    1.439   1_655 S
C414   C418    1.410   .     A
C414   N437    1.363   .     A
C414   H429    1.082   .     S
C415   C419    1.410   .     A
C415   H430    1.082   .     S
C415   N438    1.363   .     A
C416   H431    1.082   .     S
C416   N437    1.363   .     A
C416   C420    1.410   .     A
C417   H432    1.082   .     S
C417   N438    1.363   .     A
C418   Cl425   1.760   .     S
C419   Cl426   1.760   .     S
C420   Cl427   1.760   .     S
N437   Zn448   2.002   .     S
N438   Zn447   2.002   .     S
O439   Zn447   1.993   .     S
O440   Zn448   1.993   .     S
O441   Zn447   1.993   .     S
O442   Zn448   1.993   .     S
O443   Zn447   1.949   .     S
O444   Zn448   1.949   .     S
O445   Zn447   1.949   .     S
O446   Zn448   1.949   .     S
C449   O498    1.281   .     A
C449   C466    1.428   .     S
C449   O495    1.281   .     A
C450   C454    1.412   .     A
C450   C473    1.410   .     A
C450   Cl484   1.760   .     S
C451   O502    1.273   .     A
C451   O499    1.273   .     A
C451   C455    1.364   .     S
C452   O501    1.273   .     A
C452   C456    1.364   .     S
C452   O500    1.273   .     A
C453   C474    1.412   .     A
C453   C476    1.412   .     A
C453   C566    1.509   1_545 S
C454   C475    1.412   .     A
C454   C565    1.509   .     S
C456   C7      1.164   1_556 S
C457   C462    1.382   .     A
C457   H489    1.084   .     S
C457   C468    1.396   .     A
C458   H490    1.084   .     S
C458   C463    1.382   .     A
C458   C469    1.396   .     A
C459   H491    1.084   .     S
C459   C464    1.382   .     A
C459   C469    1.396   .     A
C460   C467    1.428   .     S
C460   O496    1.281   .     A
C460   O497    1.281   .     A
C461   C468    1.396   .     A
C461   C465    1.382   .     A
C461   H492    1.084   .     S
C462   C466    1.404   .     A
C462   Cl477   1.764   .     S
C463   C467    1.404   .     A
C463   Cl478   1.764   .     S
C464   Cl479   1.764   .     S
C464   C467    1.404   .     A
C465   C466    1.404   .     A
C465   Cl480   1.764   .     S
C468   C525    1.439   1_455 S
C469   C524    1.439   .     S
C470   C474    1.410   .     A
C470   N493    1.363   .     A
C470   H485    1.082   .     S
C471   C475    1.410   .     A
C471   H486    1.082   .     S
C471   N494    1.363   .     A
C472   H487    1.082   .     S
C472   N493    1.363   .     A
C472   C476    1.410   .     A
C473   H488    1.082   .     S
C473   N494    1.363   .     A
C474   Cl481   1.760   .     S
C475   Cl482   1.760   .     S
C476   Cl483   1.760   .     S
N493   Zn504   2.002   .     S
N494   Zn503   2.002   .     S
O495   Zn503   1.993   .     S
O496   Zn504   1.993   .     S
O497   Zn503   1.993   .     S
O498   Zn504   1.993   .     S
O499   Zn503   1.949   .     S
O500   Zn504   1.949   .     S
O501   Zn503   1.949   .     S
O502   Zn504   1.949   .     S
C505   O554    1.281   .     A
C505   C522    1.428   .     S
C505   O551    1.281   .     A
C506   C510    1.412   .     A
C506   C529    1.410   .     A
C506   Cl540   1.760   .     S
C507   O558    1.273   .     A
C507   O555    1.273   .     A
C507   C511    1.364   .     S
C508   O557    1.273   .     A
C508   C512    1.364   .     S
C508   O556    1.273   .     A
C509   C530    1.412   .     A
C509   C532    1.412   .     A
C509   C622    1.509   1_545 S
C510   C531    1.412   .     A
C510   C621    1.509   .     S
C512   C63     1.164   1_556 S
C513   C518    1.382   .     A
C513   H545    1.084   .     S
C513   C524    1.396   .     A
C514   H546    1.084   .     S
C514   C519    1.382   .     A
C514   C525    1.396   .     A
C515   H547    1.084   .     S
C515   C520    1.382   .     A
C515   C525    1.396   .     A
C516   C523    1.428   .     S
C516   O552    1.281   .     A
C516   O553    1.281   .     A
C517   C524    1.396   .     A
C517   C521    1.382   .     A
C517   H548    1.084   .     S
C518   C522    1.404   .     A
C518   Cl533   1.764   .     S
C519   C523    1.404   .     A
C519   Cl534   1.764   .     S
C520   Cl535   1.764   .     S
C520   C523    1.404   .     A
C521   C522    1.404   .     A
C521   Cl536   1.764   .     S
C525   C468    1.439   1_655 S
C526   C530    1.410   .     A
C526   N549    1.363   .     A
C526   H541    1.082   .     S
C527   C531    1.410   .     A
C527   H542    1.082   .     S
C527   N550    1.363   .     A
C528   H543    1.082   .     S
C528   N549    1.363   .     A
C528   C532    1.410   .     A
C529   H544    1.082   .     S
C529   N550    1.363   .     A
C530   Cl537   1.760   .     S
C531   Cl538   1.760   .     S
C532   Cl539   1.760   .     S
N549   Zn560   2.002   .     S
N550   Zn559   2.002   .     S
O551   Zn559   1.993   .     S
O552   Zn560   1.993   .     S
O553   Zn559   1.993   .     S
O554   Zn560   1.993   .     S
O555   Zn559   1.949   .     S
O556   Zn560   1.949   .     S
O557   Zn559   1.949   .     S
O558   Zn560   1.949   .     S
C561   O610    1.281   .     A
C561   C578    1.428   .     S
C561   O607    1.281   .     A
C562   C566    1.412   .     A
C562   C585    1.410   .     A
C562   Cl596   1.760   .     S
C563   O614    1.273   .     A
C563   O611    1.273   .     A
C563   C567    1.364   .     S
C564   O613    1.273   .     A
C564   C568    1.364   .     S
C564   O612    1.273   .     A
C565   C586    1.412   .     A
C565   C588    1.412   .     A
C566   C587    1.412   .     A
C566   C453    1.509   1_565 S
C568   C119    1.164   1_556 S
C569   C574    1.382   .     A
C569   H601    1.084   .     S
C569   C580    1.396   .     A
C570   H602    1.084   .     S
C570   C575    1.382   .     A
C570   C581    1.396   .     A
C571   H603    1.084   .     S
C571   C576    1.382   .     A
C571   C581    1.396   .     A
C572   C579    1.428   .     S
C572   O608    1.281   .     A
C572   O609    1.281   .     A
C573   C580    1.396   .     A
C573   C577    1.382   .     A
C573   H604    1.084   .     S
C574   C578    1.404   .     A
C574   Cl589   1.764   .     S
C575   C579    1.404   .     A
C575   Cl590   1.764   .     S
C576   Cl591   1.764   .     S
C576   C579    1.404   .     A
C577   C578    1.404   .     A
C577   Cl592   1.764   .     S
C580   C637    1.439   1_455 S
C581   C636    1.439   .     S
C582   C586    1.410   .     A
C582   N605    1.363   .     A
C582   H597    1.082   .     S
C583   C587    1.410   .     A
C583   H598    1.082   .     S
C583   N606    1.363   .     A
C584   H599    1.082   .     S
C584   N605    1.363   .     A
C584   C588    1.410   .     A
C585   H600    1.082   .     S
C585   N606    1.363   .     A
C586   Cl593   1.760   .     S
C587   Cl594   1.760   .     S
C588   Cl595   1.760   .     S
N605   Zn616   2.002   .     S
N606   Zn615   2.002   .     S
O607   Zn615   1.993   .     S
O608   Zn616   1.993   .     S
O609   Zn615   1.993   .     S
O610   Zn616   1.993   .     S
O611   Zn615   1.949   .     S
O612   Zn616   1.949   .     S
O613   Zn615   1.949   .     S
O614   Zn616   1.949   .     S
C617   O666    1.281   .     A
C617   C634    1.428   .     S
C617   O663    1.281   .     A
C618   C622    1.412   .     A
C618   C641    1.410   .     A
C618   Cl652   1.760   .     S
C619   O670    1.273   .     A
C619   O667    1.273   .     A
C619   C623    1.364   .     S
C620   O669    1.273   .     A
C620   C624    1.364   .     S
C620   O668    1.273   .     A
C621   C642    1.412   .     A
C621   C644    1.412   .     A
C622   C643    1.412   .     A
C622   C509    1.509   1_565 S
C624   C175    1.164   1_556 S
C625   C630    1.382   .     A
C625   H657    1.084   .     S
C625   C636    1.396   .     A
C626   H658    1.084   .     S
C626   C631    1.382   .     A
C626   C637    1.396   .     A
C627   H659    1.084   .     S
C627   C632    1.382   .     A
C627   C637    1.396   .     A
C628   C635    1.428   .     S
C628   O664    1.281   .     A
C628   O665    1.281   .     A
C629   C636    1.396   .     A
C629   C633    1.382   .     A
C629   H660    1.084   .     S
C630   C634    1.404   .     A
C630   Cl645   1.764   .     S
C631   C635    1.404   .     A
C631   Cl646   1.764   .     S
C632   Cl647   1.764   .     S
C632   C635    1.404   .     A
C633   C634    1.404   .     A
C633   Cl648   1.764   .     S
C637   C580    1.439   1_655 S
C638   C642    1.410   .     A
C638   N661    1.363   .     A
C638   H653    1.082   .     S
C639   C643    1.410   .     A
C639   H654    1.082   .     S
C639   N662    1.363   .     A
C640   H655    1.082   .     S
C640   N661    1.363   .     A
C640   C644    1.410   .     A
C641   H656    1.082   .     S
C641   N662    1.363   .     A
C642   Cl649   1.760   .     S
C643   Cl650   1.760   .     S
C644   Cl651   1.760   .     S
N661   Zn672   2.002   .     S
N662   Zn671   2.002   .     S
O663   Zn671   1.993   .     S
O664   Zn672   1.993   .     S
O665   Zn671   1.993   .     S
O666   Zn672   1.993   .     S
O667   Zn671   1.949   .     S
O668   Zn672   1.949   .     S
O669   Zn671   1.949   .     S
O670   Zn672   1.949   .     S
