data_str_m2_o1_o2_pcu_sym.62
_audit_creation_date              2020-01-03
_audit_creation_method            'Materials Studio'
_symmetry_space_group_name_H-M    'P1'
_symmetry_Int_Tables_number       1
_symmetry_cell_setting            triclinic
loop_
_symmetry_equiv_pos_as_xyz
  x,y,z
_cell_length_a                    32.5242
_cell_length_b                    28.7725
_cell_length_c                    30.3683
_cell_angle_alpha                 90.0178
_cell_angle_beta                  92.8124
_cell_angle_gamma                 90.0032
loop_
_atom_site_label
_atom_site_type_symbol
_atom_site_fract_x
_atom_site_fract_y
_atom_site_fract_z
_atom_site_U_iso_or_equiv
_atom_site_adp_type
_atom_site_occupancy
C1     C     0.08746   0.16685   0.25076   0.00000  Uiso   1.00
C2     C     0.31197   0.20998   0.24955   0.00000  Uiso   1.00
C3     C     0.31215   0.12584   0.24795   0.00000  Uiso   1.00
C4     C     0.02135   0.20998   0.25009   0.00000  Uiso   1.00
C5     C     0.18879   0.20509   0.04910   0.00000  Uiso   1.00
C6     C     0.18923   0.13663   0.45508   0.00000  Uiso   1.00
C7     C     0.14442   0.20482   0.45092   0.00000  Uiso   1.00
C8     C     0.14477   0.13625   0.04484   0.00000  Uiso   1.00
C9     C     0.19078   0.20182   0.09519   0.00000  Uiso   1.00
C10    C     0.18966   0.13567   0.40918   0.00000  Uiso   1.00
C11    C     0.14239   0.20154   0.40482   0.00000  Uiso   1.00
C12    C     0.24588   0.16685   0.24923   0.00000  Uiso   1.00
C13    C     0.14429   0.13525   0.09073   0.00000  Uiso   1.00
C14    C     0.16763   0.16756   0.11645   0.00000  Uiso   1.00
C15    C     0.16587   0.16760   0.38353   0.00000  Uiso   1.00
C16    C     0.16642   0.17163   0.02404   0.00000  Uiso   1.00
C17    C     0.16719   0.17167   0.47592   0.00000  Uiso   1.00
C18    C     0.29051   0.16763   0.24854   0.00000  Uiso   1.00
C19    C     0.04282   0.16764   0.25146   0.00000  Uiso   1.00
C20    C     0.06976   0.03164   0.20359   0.00000  Uiso   1.00
C21    C     0.20015   0.29652   0.35437   0.00000  Uiso   1.00
C22    C     0.26348   0.03161   0.29694   0.00000  Uiso   1.00
C23    C     0.16694   0.16676   0.16496   0.00000  Uiso   1.00
C24    C     0.13266   0.29655   0.14564   0.00000  Uiso   1.00
C25    C     0.24578   0.23303   0.01666   0.00000  Uiso   1.00
C26    C     0.24760   0.11276   0.49377   0.00000  Uiso   1.00
C27    C     0.08712   0.23190   0.48341   0.00000  Uiso   1.00
C28    C     0.08671   0.11154   0.00608   0.00000  Uiso   1.00
C29    C     0.16644   0.16678   0.33503   0.00000  Uiso   1.00
C30    C     0.13897   0.02470   0.22346   0.00000  Uiso   1.00
C31    C     0.19098   0.30826   0.27993   0.00000  Uiso   1.00
C32    C     0.19435   0.02473   0.27657   0.00000  Uiso   1.00
C33    C     0.14233   0.30823   0.22009   0.00000  Uiso   1.00
C34    C     0.02119   0.12586   0.25243   0.00000  Uiso   1.00
Cl35   Cl    0.22498   0.23933   0.12517   0.00000  Uiso   1.00
Cl36   Cl    0.22282   0.09551   0.38560   0.00000  Uiso   1.00
Cl37   Cl    0.10781   0.23862   0.37487   0.00000  Uiso   1.00
Cl38   Cl    0.11165   0.09446   0.11419   0.00000  Uiso   1.00
Cu39   Cu    0.16667   0.21355   0.25000   0.00000  Uiso   1.00
Cu40   Cu    0.16667   0.11978   0.25000   0.00000  Uiso   1.00
H41    H     0.03694   0.09322   0.25663   0.00000  Uiso   1.00
H42    H     0.21816   0.32655   0.36757   0.00000  Uiso   1.00
H43    H     0.28589   0.05851   0.30840   0.00000  Uiso   1.00
H44    H     0.26915   0.02240   0.26212   0.00000  Uiso   1.00
H45    H     0.27035   0.00147   0.31865   0.00000  Uiso   1.00
H46    H     0.12695   0.26698   0.12272   0.00000  Uiso   1.00
H47    H     0.16593   0.30563   0.14515   0.00000  Uiso   1.00
H48    H     0.11405   0.32610   0.13242   0.00000  Uiso   1.00
H49    H     0.24478   0.21252   0.48570   0.00000  Uiso   1.00
H50    H     0.26447   0.21486   0.04311   0.00000  Uiso   1.00
H51    H     0.26171   0.26616   0.00986   0.00000  Uiso   1.00
H52    H     0.29591   0.24296   0.24957   0.00000  Uiso   1.00
H53    H     0.24699   0.13385   0.02428   0.00000  Uiso   1.00
H54    H     0.26481   0.13119   0.46816   0.00000  Uiso   1.00
H55    H     0.26487   0.08048   0.00223   0.00000  Uiso   1.00
H56    H     0.06863   0.21351   0.45693   0.00000  Uiso   1.00
H57    H     0.08836   0.21135   0.01432   0.00000  Uiso   1.00
H58    H     0.07083   0.26479   0.49027   0.00000  Uiso   1.00
H59    H     0.08708   0.13271   0.47562   0.00000  Uiso   1.00
H60    H     0.06927   0.12962   0.03172   0.00000  Uiso   1.00
H61    H     0.06984   0.07901   0.49754   0.00000  Uiso   1.00
H62    H     0.29642   0.09316   0.24405   0.00000  Uiso   1.00
H63    H     0.03741   0.24295   0.24977   0.00000  Uiso   1.00
H64    H     0.04732   0.05851   0.19213   0.00000  Uiso   1.00
H65    H     0.06432   0.02270   0.23852   0.00000  Uiso   1.00
H66    H     0.06272   0.00133   0.18215   0.00000  Uiso   1.00
H67    H     0.20628   0.26717   0.37741   0.00000  Uiso   1.00
H68    H     0.16672   0.30482   0.35464   0.00000  Uiso   1.00
N69    N     0.16667   0.28402   0.25000   0.00000  Uiso   1.00
N70    N     0.16667   0.04931   0.25000   0.00000  Uiso   1.00
O71    O     0.10655   0.20625   0.24999   0.00000  Uiso   1.00
O72    O     0.21299   0.28351   0.31224   0.00000  Uiso   1.00
O73    O     0.22338   0.04929   0.30196   0.00000  Uiso   1.00
O74    O     0.12021   0.28342   0.18788   0.00000  Uiso   1.00
O75    O     0.20560   0.24344   0.02904   0.00000  Uiso   1.00
O76    O     0.20725   0.10041   0.47918   0.00000  Uiso   1.00
O77    O     0.12718   0.24291   0.47103   0.00000  Uiso   1.00
O78    O     0.12720   0.09979   0.02068   0.00000  Uiso   1.00
O79    O     0.22679   0.12709   0.25000   0.00000  Uiso   1.00
O80    O     0.22679   0.20625   0.25000   0.00000  Uiso   1.00
O81    O     0.10655   0.12709   0.24999   0.00000  Uiso   1.00
O82    O     0.16666   0.20626   0.18573   0.00000  Uiso   1.00
O83    O     0.16667   0.12707   0.31427   0.00000  Uiso   1.00
O84    O     0.16667   0.20626   0.31427   0.00000  Uiso   1.00
O85    O     0.16666   0.12707   0.18573   0.00000  Uiso   1.00
O86    O     0.10984   0.04921   0.19817   0.00000  Uiso   1.00
C87    C     0.42079   0.16685   0.25076   0.00000  Uiso   1.00
C88    C     0.64531   0.20998   0.24955   0.00000  Uiso   1.00
C89    C     0.64548   0.12584   0.24795   0.00000  Uiso   1.00
C90    C     0.35468   0.20998   0.25009   0.00000  Uiso   1.00
C91    C     0.52212   0.20509   0.04910   0.00000  Uiso   1.00
C92    C     0.52257   0.13663   0.45508   0.00000  Uiso   1.00
C93    C     0.47775   0.20482   0.45092   0.00000  Uiso   1.00
C94    C     0.47810   0.13625   0.04484   0.00000  Uiso   1.00
C95    C     0.52412   0.20182   0.09519   0.00000  Uiso   1.00
C96    C     0.52299   0.13567   0.40918   0.00000  Uiso   1.00
C97    C     0.47573   0.20154   0.40482   0.00000  Uiso   1.00
C98    C     0.57921   0.16685   0.24923   0.00000  Uiso   1.00
C99    C     0.47762   0.13525   0.09073   0.00000  Uiso   1.00
C100   C     0.50096   0.16756   0.11645   0.00000  Uiso   1.00
C101   C     0.49920   0.16760   0.38353   0.00000  Uiso   1.00
C102   C     0.49975   0.17163   0.02404   0.00000  Uiso   1.00
C103   C     0.50052   0.17167   0.47592   0.00000  Uiso   1.00
C104   C     0.62385   0.16763   0.24854   0.00000  Uiso   1.00
C105   C     0.37615   0.16764   0.25146   0.00000  Uiso   1.00
C106   C     0.40310   0.03164   0.20359   0.00000  Uiso   1.00
C107   C     0.53348   0.29652   0.35437   0.00000  Uiso   1.00
C108   C     0.59681   0.03161   0.29694   0.00000  Uiso   1.00
C109   C     0.50027   0.16676   0.16496   0.00000  Uiso   1.00
C110   C     0.46599   0.29655   0.14564   0.00000  Uiso   1.00
C111   C     0.57912   0.23303   0.01666   0.00000  Uiso   1.00
C112   C     0.58093   0.11276   0.49377   0.00000  Uiso   1.00
C113   C     0.42046   0.23190   0.48341   0.00000  Uiso   1.00
C114   C     0.42004   0.11154   0.00608   0.00000  Uiso   1.00
C115   C     0.49977   0.16678   0.33503   0.00000  Uiso   1.00
C116   C     0.47230   0.02470   0.22346   0.00000  Uiso   1.00
C117   C     0.52431   0.30826   0.27993   0.00000  Uiso   1.00
C118   C     0.52768   0.02473   0.27657   0.00000  Uiso   1.00
C119   C     0.47566   0.30823   0.22009   0.00000  Uiso   1.00
C120   C     0.35453   0.12586   0.25243   0.00000  Uiso   1.00
Cl121  Cl    0.55831   0.23933   0.12517   0.00000  Uiso   1.00
Cl122  Cl    0.55615   0.09551   0.38560   0.00000  Uiso   1.00
Cl123  Cl    0.44115   0.23862   0.37487   0.00000  Uiso   1.00
Cl124  Cl    0.44499   0.09446   0.11419   0.00000  Uiso   1.00
Cu125  Cu    0.50000   0.21355   0.25000   0.00000  Uiso   1.00
Cu126  Cu    0.50000   0.11978   0.25000   0.00000  Uiso   1.00
H127   H     0.37027   0.09322   0.25663   0.00000  Uiso   1.00
H128   H     0.55149   0.32655   0.36757   0.00000  Uiso   1.00
H129   H     0.61923   0.05851   0.30840   0.00000  Uiso   1.00
H130   H     0.60248   0.02240   0.26212   0.00000  Uiso   1.00
H131   H     0.60368   0.00147   0.31865   0.00000  Uiso   1.00
H132   H     0.46029   0.26698   0.12272   0.00000  Uiso   1.00
H133   H     0.49926   0.30563   0.14515   0.00000  Uiso   1.00
H134   H     0.44738   0.32610   0.13242   0.00000  Uiso   1.00
H135   H     0.57811   0.21252   0.48570   0.00000  Uiso   1.00
H136   H     0.59780   0.21486   0.04311   0.00000  Uiso   1.00
H137   H     0.59505   0.26616   0.00986   0.00000  Uiso   1.00
H138   H     0.62924   0.24296   0.24957   0.00000  Uiso   1.00
H139   H     0.58032   0.13385   0.02428   0.00000  Uiso   1.00
H140   H     0.59814   0.13119   0.46816   0.00000  Uiso   1.00
H141   H     0.59820   0.08048   0.00223   0.00000  Uiso   1.00
H142   H     0.40196   0.21351   0.45693   0.00000  Uiso   1.00
H143   H     0.42169   0.21135   0.01432   0.00000  Uiso   1.00
H144   H     0.40417   0.26479   0.49027   0.00000  Uiso   1.00
H145   H     0.42041   0.13271   0.47562   0.00000  Uiso   1.00
H146   H     0.40260   0.12962   0.03172   0.00000  Uiso   1.00
H147   H     0.40317   0.07901   0.49754   0.00000  Uiso   1.00
H148   H     0.62975   0.09316   0.24405   0.00000  Uiso   1.00
H149   H     0.37074   0.24295   0.24977   0.00000  Uiso   1.00
H150   H     0.38066   0.05851   0.19213   0.00000  Uiso   1.00
H151   H     0.39765   0.02270   0.23852   0.00000  Uiso   1.00
H152   H     0.39606   0.00133   0.18215   0.00000  Uiso   1.00
H153   H     0.53961   0.26717   0.37741   0.00000  Uiso   1.00
H154   H     0.50005   0.30482   0.35464   0.00000  Uiso   1.00
N155   N     0.50000   0.28402   0.25000   0.00000  Uiso   1.00
N156   N     0.50000   0.04931   0.25000   0.00000  Uiso   1.00
O157   O     0.43988   0.20625   0.24999   0.00000  Uiso   1.00
O158   O     0.54632   0.28351   0.31224   0.00000  Uiso   1.00
O159   O     0.55671   0.04929   0.30196   0.00000  Uiso   1.00
O160   O     0.45354   0.28342   0.18788   0.00000  Uiso   1.00
O161   O     0.53894   0.24344   0.02904   0.00000  Uiso   1.00
O162   O     0.54058   0.10041   0.47918   0.00000  Uiso   1.00
O163   O     0.46052   0.24291   0.47103   0.00000  Uiso   1.00
O164   O     0.46053   0.09979   0.02068   0.00000  Uiso   1.00
O165   O     0.56012   0.12709   0.25000   0.00000  Uiso   1.00
O166   O     0.56012   0.20625   0.25000   0.00000  Uiso   1.00
O167   O     0.43988   0.12709   0.24999   0.00000  Uiso   1.00
O168   O     0.50000   0.20626   0.18573   0.00000  Uiso   1.00
O169   O     0.50000   0.12707   0.31427   0.00000  Uiso   1.00
O170   O     0.50000   0.20626   0.31427   0.00000  Uiso   1.00
O171   O     0.50000   0.12707   0.18573   0.00000  Uiso   1.00
O172   O     0.44317   0.04921   0.19817   0.00000  Uiso   1.00
C173   C     0.75412   0.16685   0.25076   0.00000  Uiso   1.00
C174   C     0.97864   0.20998   0.24955   0.00000  Uiso   1.00
C175   C     0.97882   0.12584   0.24795   0.00000  Uiso   1.00
C176   C     0.68802   0.20998   0.25009   0.00000  Uiso   1.00
C177   C     0.85545   0.20509   0.04910   0.00000  Uiso   1.00
C178   C     0.85590   0.13663   0.45508   0.00000  Uiso   1.00
C179   C     0.81108   0.20482   0.45092   0.00000  Uiso   1.00
C180   C     0.81143   0.13625   0.04484   0.00000  Uiso   1.00
C181   C     0.85745   0.20182   0.09519   0.00000  Uiso   1.00
C182   C     0.85633   0.13567   0.40918   0.00000  Uiso   1.00
C183   C     0.80906   0.20154   0.40482   0.00000  Uiso   1.00
C184   C     0.91254   0.16685   0.24923   0.00000  Uiso   1.00
C185   C     0.81095   0.13525   0.09073   0.00000  Uiso   1.00
C186   C     0.83429   0.16756   0.11645   0.00000  Uiso   1.00
C187   C     0.83253   0.16760   0.38353   0.00000  Uiso   1.00
C188   C     0.83309   0.17163   0.02404   0.00000  Uiso   1.00
C189   C     0.83386   0.17167   0.47592   0.00000  Uiso   1.00
C190   C     0.95718   0.16763   0.24854   0.00000  Uiso   1.00
C191   C     0.70949   0.16764   0.25146   0.00000  Uiso   1.00
C192   C     0.73643   0.03164   0.20359   0.00000  Uiso   1.00
C193   C     0.86682   0.29652   0.35437   0.00000  Uiso   1.00
C194   C     0.93015   0.03161   0.29694   0.00000  Uiso   1.00
C195   C     0.83360   0.16676   0.16496   0.00000  Uiso   1.00
C196   C     0.79933   0.29655   0.14564   0.00000  Uiso   1.00
C197   C     0.91245   0.23303   0.01666   0.00000  Uiso   1.00
C198   C     0.91427   0.11276   0.49377   0.00000  Uiso   1.00
C199   C     0.75379   0.23190   0.48341   0.00000  Uiso   1.00
C200   C     0.75337   0.11154   0.00608   0.00000  Uiso   1.00
C201   C     0.83311   0.16678   0.33503   0.00000  Uiso   1.00
C202   C     0.80563   0.02470   0.22346   0.00000  Uiso   1.00
C203   C     0.85765   0.30826   0.27993   0.00000  Uiso   1.00
C204   C     0.86101   0.02473   0.27657   0.00000  Uiso   1.00
C205   C     0.80899   0.30823   0.22009   0.00000  Uiso   1.00
C206   C     0.68786   0.12586   0.25243   0.00000  Uiso   1.00
Cl207  Cl    0.89164   0.23933   0.12517   0.00000  Uiso   1.00
Cl208  Cl    0.88948   0.09551   0.38560   0.00000  Uiso   1.00
Cl209  Cl    0.77448   0.23862   0.37487   0.00000  Uiso   1.00
Cl210  Cl    0.77832   0.09446   0.11419   0.00000  Uiso   1.00
Cu211  Cu    0.83333   0.21355   0.25000   0.00000  Uiso   1.00
Cu212  Cu    0.83333   0.11978   0.25000   0.00000  Uiso   1.00
H213   H     0.70360   0.09322   0.25663   0.00000  Uiso   1.00
H214   H     0.88482   0.32655   0.36757   0.00000  Uiso   1.00
H215   H     0.95256   0.05851   0.30840   0.00000  Uiso   1.00
H216   H     0.93581   0.02240   0.26212   0.00000  Uiso   1.00
H217   H     0.93702   0.00147   0.31865   0.00000  Uiso   1.00
H218   H     0.79362   0.26698   0.12272   0.00000  Uiso   1.00
H219   H     0.83260   0.30563   0.14515   0.00000  Uiso   1.00
H220   H     0.78071   0.32610   0.13242   0.00000  Uiso   1.00
H221   H     0.91145   0.21252   0.48570   0.00000  Uiso   1.00
H222   H     0.93114   0.21486   0.04311   0.00000  Uiso   1.00
H223   H     0.92838   0.26616   0.00986   0.00000  Uiso   1.00
H224   H     0.96257   0.24296   0.24957   0.00000  Uiso   1.00
H225   H     0.91366   0.13385   0.02428   0.00000  Uiso   1.00
H226   H     0.93147   0.13119   0.46816   0.00000  Uiso   1.00
H227   H     0.93153   0.08048   0.00223   0.00000  Uiso   1.00
H228   H     0.73529   0.21351   0.45693   0.00000  Uiso   1.00
H229   H     0.75503   0.21135   0.01432   0.00000  Uiso   1.00
H230   H     0.73750   0.26479   0.49027   0.00000  Uiso   1.00
H231   H     0.75374   0.13271   0.47562   0.00000  Uiso   1.00
H232   H     0.73593   0.12962   0.03172   0.00000  Uiso   1.00
H233   H     0.73651   0.07901   0.49754   0.00000  Uiso   1.00
H234   H     0.96308   0.09316   0.24405   0.00000  Uiso   1.00
H235   H     0.70408   0.24295   0.24977   0.00000  Uiso   1.00
H236   H     0.71399   0.05851   0.19213   0.00000  Uiso   1.00
H237   H     0.73099   0.02270   0.23852   0.00000  Uiso   1.00
H238   H     0.72939   0.00133   0.18215   0.00000  Uiso   1.00
H239   H     0.87295   0.26717   0.37741   0.00000  Uiso   1.00
H240   H     0.83339   0.30482   0.35464   0.00000  Uiso   1.00
N241   N     0.83333   0.28402   0.25000   0.00000  Uiso   1.00
N242   N     0.83333   0.04931   0.25000   0.00000  Uiso   1.00
O243   O     0.77321   0.20625   0.24999   0.00000  Uiso   1.00
O244   O     0.87965   0.28351   0.31224   0.00000  Uiso   1.00
O245   O     0.89005   0.04929   0.30196   0.00000  Uiso   1.00
O246   O     0.78687   0.28342   0.18788   0.00000  Uiso   1.00
O247   O     0.87227   0.24344   0.02904   0.00000  Uiso   1.00
O248   O     0.87391   0.10041   0.47918   0.00000  Uiso   1.00
O249   O     0.79385   0.24291   0.47103   0.00000  Uiso   1.00
O250   O     0.79387   0.09979   0.02068   0.00000  Uiso   1.00
O251   O     0.89345   0.12709   0.25000   0.00000  Uiso   1.00
O252   O     0.89345   0.20625   0.25000   0.00000  Uiso   1.00
O253   O     0.77321   0.12709   0.24999   0.00000  Uiso   1.00
O254   O     0.83333   0.20626   0.18573   0.00000  Uiso   1.00
O255   O     0.83334   0.12707   0.31427   0.00000  Uiso   1.00
O256   O     0.83334   0.20626   0.31427   0.00000  Uiso   1.00
O257   O     0.83333   0.12707   0.18573   0.00000  Uiso   1.00
O258   O     0.77651   0.04921   0.19817   0.00000  Uiso   1.00
C259   C     0.08746   0.50018   0.25076   0.00000  Uiso   1.00
C260   C     0.31197   0.54331   0.24955   0.00000  Uiso   1.00
C261   C     0.31215   0.45918   0.24795   0.00000  Uiso   1.00
C262   C     0.02135   0.54331   0.25009   0.00000  Uiso   1.00
C263   C     0.18879   0.53843   0.04910   0.00000  Uiso   1.00
C264   C     0.18923   0.46997   0.45508   0.00000  Uiso   1.00
C265   C     0.14442   0.53816   0.45092   0.00000  Uiso   1.00
C266   C     0.14477   0.46958   0.04484   0.00000  Uiso   1.00
C267   C     0.19078   0.53515   0.09519   0.00000  Uiso   1.00
C268   C     0.18966   0.46900   0.40918   0.00000  Uiso   1.00
C269   C     0.14239   0.53488   0.40482   0.00000  Uiso   1.00
C270   C     0.24588   0.50018   0.24923   0.00000  Uiso   1.00
C271   C     0.14429   0.46858   0.09073   0.00000  Uiso   1.00
C272   C     0.16763   0.50089   0.11645   0.00000  Uiso   1.00
C273   C     0.16587   0.50094   0.38353   0.00000  Uiso   1.00
C274   C     0.16642   0.50497   0.02404   0.00000  Uiso   1.00
C275   C     0.16719   0.50501   0.47592   0.00000  Uiso   1.00
C276   C     0.29051   0.50096   0.24854   0.00000  Uiso   1.00
C277   C     0.04282   0.50097   0.25146   0.00000  Uiso   1.00
C278   C     0.06976   0.36498   0.20359   0.00000  Uiso   1.00
C279   C     0.20015   0.62986   0.35437   0.00000  Uiso   1.00
C280   C     0.26348   0.36494   0.29694   0.00000  Uiso   1.00
C281   C     0.16694   0.50009   0.16496   0.00000  Uiso   1.00
C282   C     0.13266   0.62989   0.14564   0.00000  Uiso   1.00
C283   C     0.24578   0.56637   0.01666   0.00000  Uiso   1.00
C284   C     0.24760   0.44610   0.49377   0.00000  Uiso   1.00
C285   C     0.08712   0.56524   0.48341   0.00000  Uiso   1.00
C286   C     0.08671   0.44487   0.00608   0.00000  Uiso   1.00
C287   C     0.16644   0.50011   0.33503   0.00000  Uiso   1.00
C288   C     0.13897   0.35803   0.22346   0.00000  Uiso   1.00
C289   C     0.19098   0.64160   0.27993   0.00000  Uiso   1.00
C290   C     0.19435   0.35806   0.27657   0.00000  Uiso   1.00
C291   C     0.14233   0.64156   0.22009   0.00000  Uiso   1.00
C292   C     0.02119   0.45920   0.25243   0.00000  Uiso   1.00
Cl293  Cl    0.22498   0.57266   0.12517   0.00000  Uiso   1.00
Cl294  Cl    0.22282   0.42884   0.38560   0.00000  Uiso   1.00
Cl295  Cl    0.10781   0.57195   0.37487   0.00000  Uiso   1.00
Cl296  Cl    0.11165   0.42779   0.11419   0.00000  Uiso   1.00
Cu297  Cu    0.16667   0.54689   0.25000   0.00000  Uiso   1.00
Cu298  Cu    0.16667   0.45311   0.25000   0.00000  Uiso   1.00
H299   H     0.03694   0.42656   0.25663   0.00000  Uiso   1.00
H300   H     0.21816   0.65989   0.36757   0.00000  Uiso   1.00
H301   H     0.28589   0.39185   0.30840   0.00000  Uiso   1.00
H302   H     0.26915   0.35573   0.26212   0.00000  Uiso   1.00
H303   H     0.27035   0.33480   0.31865   0.00000  Uiso   1.00
H304   H     0.12695   0.60031   0.12272   0.00000  Uiso   1.00
H305   H     0.16593   0.63896   0.14515   0.00000  Uiso   1.00
H306   H     0.11405   0.65943   0.13242   0.00000  Uiso   1.00
H307   H     0.24478   0.54586   0.48570   0.00000  Uiso   1.00
H308   H     0.26447   0.54819   0.04311   0.00000  Uiso   1.00
H309   H     0.26171   0.59949   0.00986   0.00000  Uiso   1.00
H310   H     0.29591   0.57629   0.24957   0.00000  Uiso   1.00
H311   H     0.24699   0.46719   0.02428   0.00000  Uiso   1.00
H312   H     0.26481   0.46452   0.46816   0.00000  Uiso   1.00
H313   H     0.26487   0.41382   0.00223   0.00000  Uiso   1.00
H314   H     0.06863   0.54685   0.45693   0.00000  Uiso   1.00
H315   H     0.08836   0.54468   0.01432   0.00000  Uiso   1.00
H316   H     0.07083   0.59812   0.49027   0.00000  Uiso   1.00
H317   H     0.08708   0.46604   0.47562   0.00000  Uiso   1.00
H318   H     0.06927   0.46295   0.03172   0.00000  Uiso   1.00
H319   H     0.06984   0.41234   0.49754   0.00000  Uiso   1.00
H320   H     0.29642   0.42650   0.24405   0.00000  Uiso   1.00
H321   H     0.03741   0.57629   0.24977   0.00000  Uiso   1.00
H322   H     0.04732   0.39184   0.19213   0.00000  Uiso   1.00
H323   H     0.06432   0.35604   0.23852   0.00000  Uiso   1.00
H324   H     0.06272   0.33466   0.18215   0.00000  Uiso   1.00
H325   H     0.20628   0.60050   0.37741   0.00000  Uiso   1.00
H326   H     0.16672   0.63815   0.35464   0.00000  Uiso   1.00
N327   N     0.16667   0.61736   0.25000   0.00000  Uiso   1.00
N328   N     0.16667   0.38264   0.25000   0.00000  Uiso   1.00
O329   O     0.10655   0.53958   0.24999   0.00000  Uiso   1.00
O330   O     0.21299   0.61684   0.31224   0.00000  Uiso   1.00
O331   O     0.22338   0.38263   0.30196   0.00000  Uiso   1.00
O332   O     0.12021   0.61675   0.18788   0.00000  Uiso   1.00
O333   O     0.20560   0.57678   0.02904   0.00000  Uiso   1.00
O334   O     0.20725   0.43375   0.47918   0.00000  Uiso   1.00
O335   O     0.12718   0.57624   0.47103   0.00000  Uiso   1.00
O336   O     0.12720   0.43312   0.02068   0.00000  Uiso   1.00
O337   O     0.22679   0.46042   0.25000   0.00000  Uiso   1.00
O338   O     0.22679   0.53958   0.25000   0.00000  Uiso   1.00
O339   O     0.10655   0.46042   0.24999   0.00000  Uiso   1.00
O340   O     0.16666   0.53959   0.18573   0.00000  Uiso   1.00
O341   O     0.16667   0.46041   0.31427   0.00000  Uiso   1.00
O342   O     0.16667   0.53959   0.31427   0.00000  Uiso   1.00
O343   O     0.16666   0.46041   0.18573   0.00000  Uiso   1.00
O344   O     0.10984   0.38254   0.19817   0.00000  Uiso   1.00
C345   C     0.42079   0.50018   0.25076   0.00000  Uiso   1.00
C346   C     0.64531   0.54331   0.24955   0.00000  Uiso   1.00
C347   C     0.64548   0.45918   0.24795   0.00000  Uiso   1.00
C348   C     0.35468   0.54331   0.25009   0.00000  Uiso   1.00
C349   C     0.52212   0.53843   0.04910   0.00000  Uiso   1.00
C350   C     0.52257   0.46997   0.45508   0.00000  Uiso   1.00
C351   C     0.47775   0.53816   0.45092   0.00000  Uiso   1.00
C352   C     0.47810   0.46958   0.04484   0.00000  Uiso   1.00
C353   C     0.52412   0.53515   0.09519   0.00000  Uiso   1.00
C354   C     0.52299   0.46900   0.40918   0.00000  Uiso   1.00
C355   C     0.47573   0.53488   0.40482   0.00000  Uiso   1.00
C356   C     0.57921   0.50018   0.24923   0.00000  Uiso   1.00
C357   C     0.47762   0.46858   0.09073   0.00000  Uiso   1.00
C358   C     0.50096   0.50089   0.11645   0.00000  Uiso   1.00
C359   C     0.49920   0.50094   0.38353   0.00000  Uiso   1.00
C360   C     0.49975   0.50497   0.02404   0.00000  Uiso   1.00
C361   C     0.50052   0.50501   0.47592   0.00000  Uiso   1.00
C362   C     0.62385   0.50096   0.24854   0.00000  Uiso   1.00
C363   C     0.37615   0.50097   0.25146   0.00000  Uiso   1.00
C364   C     0.40310   0.36498   0.20359   0.00000  Uiso   1.00
C365   C     0.53348   0.62986   0.35437   0.00000  Uiso   1.00
C366   C     0.59681   0.36494   0.29694   0.00000  Uiso   1.00
C367   C     0.50027   0.50009   0.16496   0.00000  Uiso   1.00
C368   C     0.46599   0.62989   0.14564   0.00000  Uiso   1.00
C369   C     0.57912   0.56637   0.01666   0.00000  Uiso   1.00
C370   C     0.58093   0.44610   0.49377   0.00000  Uiso   1.00
C371   C     0.42046   0.56524   0.48341   0.00000  Uiso   1.00
C372   C     0.42004   0.44487   0.00608   0.00000  Uiso   1.00
C373   C     0.49977   0.50011   0.33503   0.00000  Uiso   1.00
C374   C     0.47230   0.35803   0.22346   0.00000  Uiso   1.00
C375   C     0.52431   0.64160   0.27993   0.00000  Uiso   1.00
C376   C     0.52768   0.35806   0.27657   0.00000  Uiso   1.00
C377   C     0.47566   0.64156   0.22009   0.00000  Uiso   1.00
C378   C     0.35453   0.45920   0.25243   0.00000  Uiso   1.00
Cl379  Cl    0.55831   0.57266   0.12517   0.00000  Uiso   1.00
Cl380  Cl    0.55615   0.42884   0.38560   0.00000  Uiso   1.00
Cl381  Cl    0.44115   0.57195   0.37487   0.00000  Uiso   1.00
Cl382  Cl    0.44499   0.42779   0.11419   0.00000  Uiso   1.00
Cu383  Cu    0.50000   0.54689   0.25000   0.00000  Uiso   1.00
Cu384  Cu    0.50000   0.45311   0.25000   0.00000  Uiso   1.00
H385   H     0.37027   0.42656   0.25663   0.00000  Uiso   1.00
H386   H     0.55149   0.65989   0.36757   0.00000  Uiso   1.00
H387   H     0.61923   0.39185   0.30840   0.00000  Uiso   1.00
H388   H     0.60248   0.35573   0.26212   0.00000  Uiso   1.00
H389   H     0.60368   0.33480   0.31865   0.00000  Uiso   1.00
H390   H     0.46029   0.60031   0.12272   0.00000  Uiso   1.00
H391   H     0.49926   0.63896   0.14515   0.00000  Uiso   1.00
H392   H     0.44738   0.65943   0.13242   0.00000  Uiso   1.00
H393   H     0.57811   0.54586   0.48570   0.00000  Uiso   1.00
H394   H     0.59780   0.54819   0.04311   0.00000  Uiso   1.00
H395   H     0.59505   0.59949   0.00986   0.00000  Uiso   1.00
H396   H     0.62924   0.57629   0.24957   0.00000  Uiso   1.00
H397   H     0.58032   0.46719   0.02428   0.00000  Uiso   1.00
H398   H     0.59814   0.46452   0.46816   0.00000  Uiso   1.00
H399   H     0.59820   0.41382   0.00223   0.00000  Uiso   1.00
H400   H     0.40196   0.54685   0.45693   0.00000  Uiso   1.00
H401   H     0.42169   0.54468   0.01432   0.00000  Uiso   1.00
H402   H     0.40417   0.59812   0.49027   0.00000  Uiso   1.00
H403   H     0.42041   0.46604   0.47562   0.00000  Uiso   1.00
H404   H     0.40260   0.46295   0.03172   0.00000  Uiso   1.00
H405   H     0.40317   0.41234   0.49754   0.00000  Uiso   1.00
H406   H     0.62975   0.42650   0.24405   0.00000  Uiso   1.00
H407   H     0.37074   0.57629   0.24977   0.00000  Uiso   1.00
H408   H     0.38066   0.39184   0.19213   0.00000  Uiso   1.00
H409   H     0.39765   0.35604   0.23852   0.00000  Uiso   1.00
H410   H     0.39606   0.33466   0.18215   0.00000  Uiso   1.00
H411   H     0.53961   0.60050   0.37741   0.00000  Uiso   1.00
H412   H     0.50005   0.63815   0.35464   0.00000  Uiso   1.00
N413   N     0.50000   0.61736   0.25000   0.00000  Uiso   1.00
N414   N     0.50000   0.38264   0.25000   0.00000  Uiso   1.00
O415   O     0.43988   0.53958   0.24999   0.00000  Uiso   1.00
O416   O     0.54632   0.61684   0.31224   0.00000  Uiso   1.00
O417   O     0.55671   0.38263   0.30196   0.00000  Uiso   1.00
O418   O     0.45354   0.61675   0.18788   0.00000  Uiso   1.00
O419   O     0.53894   0.57678   0.02904   0.00000  Uiso   1.00
O420   O     0.54058   0.43375   0.47918   0.00000  Uiso   1.00
O421   O     0.46052   0.57624   0.47103   0.00000  Uiso   1.00
O422   O     0.46053   0.43312   0.02068   0.00000  Uiso   1.00
O423   O     0.56012   0.46042   0.25000   0.00000  Uiso   1.00
O424   O     0.56012   0.53958   0.25000   0.00000  Uiso   1.00
O425   O     0.43988   0.46042   0.24999   0.00000  Uiso   1.00
O426   O     0.50000   0.53959   0.18573   0.00000  Uiso   1.00
O427   O     0.50000   0.46041   0.31427   0.00000  Uiso   1.00
O428   O     0.50000   0.53959   0.31427   0.00000  Uiso   1.00
O429   O     0.50000   0.46041   0.18573   0.00000  Uiso   1.00
O430   O     0.44317   0.38254   0.19817   0.00000  Uiso   1.00
C431   C     0.75412   0.50018   0.25076   0.00000  Uiso   1.00
C432   C     0.97864   0.54331   0.24955   0.00000  Uiso   1.00
C433   C     0.97882   0.45918   0.24795   0.00000  Uiso   1.00
C434   C     0.68802   0.54331   0.25009   0.00000  Uiso   1.00
C435   C     0.85545   0.53843   0.04910   0.00000  Uiso   1.00
C436   C     0.85590   0.46997   0.45508   0.00000  Uiso   1.00
C437   C     0.81108   0.53816   0.45092   0.00000  Uiso   1.00
C438   C     0.81143   0.46958   0.04484   0.00000  Uiso   1.00
C439   C     0.85745   0.53515   0.09519   0.00000  Uiso   1.00
C440   C     0.85633   0.46900   0.40918   0.00000  Uiso   1.00
C441   C     0.80906   0.53488   0.40482   0.00000  Uiso   1.00
C442   C     0.91254   0.50018   0.24923   0.00000  Uiso   1.00
C443   C     0.81095   0.46858   0.09073   0.00000  Uiso   1.00
C444   C     0.83429   0.50089   0.11645   0.00000  Uiso   1.00
C445   C     0.83253   0.50094   0.38353   0.00000  Uiso   1.00
C446   C     0.83309   0.50497   0.02404   0.00000  Uiso   1.00
C447   C     0.83386   0.50501   0.47592   0.00000  Uiso   1.00
C448   C     0.95718   0.50096   0.24854   0.00000  Uiso   1.00
C449   C     0.70949   0.50097   0.25146   0.00000  Uiso   1.00
C450   C     0.73643   0.36498   0.20359   0.00000  Uiso   1.00
C451   C     0.86682   0.62986   0.35437   0.00000  Uiso   1.00
C452   C     0.93015   0.36494   0.29694   0.00000  Uiso   1.00
C453   C     0.83360   0.50009   0.16496   0.00000  Uiso   1.00
C454   C     0.79933   0.62989   0.14564   0.00000  Uiso   1.00
C455   C     0.91245   0.56637   0.01666   0.00000  Uiso   1.00
C456   C     0.91427   0.44610   0.49377   0.00000  Uiso   1.00
C457   C     0.75379   0.56524   0.48341   0.00000  Uiso   1.00
C458   C     0.75337   0.44487   0.00608   0.00000  Uiso   1.00
C459   C     0.83311   0.50011   0.33503   0.00000  Uiso   1.00
C460   C     0.80563   0.35803   0.22346   0.00000  Uiso   1.00
C461   C     0.85765   0.64160   0.27993   0.00000  Uiso   1.00
C462   C     0.86101   0.35806   0.27657   0.00000  Uiso   1.00
C463   C     0.80899   0.64156   0.22009   0.00000  Uiso   1.00
C464   C     0.68786   0.45920   0.25243   0.00000  Uiso   1.00
Cl465  Cl    0.89164   0.57266   0.12517   0.00000  Uiso   1.00
Cl466  Cl    0.88948   0.42884   0.38560   0.00000  Uiso   1.00
Cl467  Cl    0.77448   0.57195   0.37487   0.00000  Uiso   1.00
Cl468  Cl    0.77832   0.42779   0.11419   0.00000  Uiso   1.00
Cu469  Cu    0.83333   0.54689   0.25000   0.00000  Uiso   1.00
Cu470  Cu    0.83333   0.45311   0.25000   0.00000  Uiso   1.00
H471   H     0.70360   0.42656   0.25663   0.00000  Uiso   1.00
H472   H     0.88482   0.65989   0.36757   0.00000  Uiso   1.00
H473   H     0.95256   0.39185   0.30840   0.00000  Uiso   1.00
H474   H     0.93581   0.35573   0.26212   0.00000  Uiso   1.00
H475   H     0.93702   0.33480   0.31865   0.00000  Uiso   1.00
H476   H     0.79362   0.60031   0.12272   0.00000  Uiso   1.00
H477   H     0.83260   0.63896   0.14515   0.00000  Uiso   1.00
H478   H     0.78071   0.65943   0.13242   0.00000  Uiso   1.00
H479   H     0.91145   0.54586   0.48570   0.00000  Uiso   1.00
H480   H     0.93114   0.54819   0.04311   0.00000  Uiso   1.00
H481   H     0.92838   0.59949   0.00986   0.00000  Uiso   1.00
H482   H     0.96257   0.57629   0.24957   0.00000  Uiso   1.00
H483   H     0.91366   0.46719   0.02428   0.00000  Uiso   1.00
H484   H     0.93147   0.46452   0.46816   0.00000  Uiso   1.00
H485   H     0.93153   0.41382   0.00223   0.00000  Uiso   1.00
H486   H     0.73529   0.54685   0.45693   0.00000  Uiso   1.00
H487   H     0.75503   0.54468   0.01432   0.00000  Uiso   1.00
H488   H     0.73750   0.59812   0.49027   0.00000  Uiso   1.00
H489   H     0.75374   0.46604   0.47562   0.00000  Uiso   1.00
H490   H     0.73593   0.46295   0.03172   0.00000  Uiso   1.00
H491   H     0.73651   0.41234   0.49754   0.00000  Uiso   1.00
H492   H     0.96308   0.42650   0.24405   0.00000  Uiso   1.00
H493   H     0.70408   0.57629   0.24977   0.00000  Uiso   1.00
H494   H     0.71399   0.39184   0.19213   0.00000  Uiso   1.00
H495   H     0.73099   0.35604   0.23852   0.00000  Uiso   1.00
H496   H     0.72939   0.33466   0.18215   0.00000  Uiso   1.00
H497   H     0.87295   0.60050   0.37741   0.00000  Uiso   1.00
H498   H     0.83339   0.63815   0.35464   0.00000  Uiso   1.00
N499   N     0.83333   0.61736   0.25000   0.00000  Uiso   1.00
N500   N     0.83333   0.38264   0.25000   0.00000  Uiso   1.00
O501   O     0.77321   0.53958   0.24999   0.00000  Uiso   1.00
O502   O     0.87965   0.61684   0.31224   0.00000  Uiso   1.00
O503   O     0.89005   0.38263   0.30196   0.00000  Uiso   1.00
O504   O     0.78687   0.61675   0.18788   0.00000  Uiso   1.00
O505   O     0.87227   0.57678   0.02904   0.00000  Uiso   1.00
O506   O     0.87391   0.43375   0.47918   0.00000  Uiso   1.00
O507   O     0.79385   0.57624   0.47103   0.00000  Uiso   1.00
O508   O     0.79387   0.43312   0.02068   0.00000  Uiso   1.00
O509   O     0.89345   0.46042   0.25000   0.00000  Uiso   1.00
O510   O     0.89345   0.53958   0.25000   0.00000  Uiso   1.00
O511   O     0.77321   0.46042   0.24999   0.00000  Uiso   1.00
O512   O     0.83333   0.53959   0.18573   0.00000  Uiso   1.00
O513   O     0.83334   0.46041   0.31427   0.00000  Uiso   1.00
O514   O     0.83334   0.53959   0.31427   0.00000  Uiso   1.00
O515   O     0.83333   0.46041   0.18573   0.00000  Uiso   1.00
O516   O     0.77651   0.38254   0.19817   0.00000  Uiso   1.00
C517   C     0.08746   0.83352   0.25076   0.00000  Uiso   1.00
C518   C     0.31197   0.87664   0.24955   0.00000  Uiso   1.00
C519   C     0.31215   0.79251   0.24795   0.00000  Uiso   1.00
C520   C     0.02135   0.87664   0.25009   0.00000  Uiso   1.00
C521   C     0.18879   0.87176   0.04910   0.00000  Uiso   1.00
C522   C     0.18923   0.80330   0.45508   0.00000  Uiso   1.00
C523   C     0.14442   0.87149   0.45092   0.00000  Uiso   1.00
C524   C     0.14477   0.80291   0.04484   0.00000  Uiso   1.00
C525   C     0.19078   0.86848   0.09519   0.00000  Uiso   1.00
C526   C     0.18966   0.80234   0.40918   0.00000  Uiso   1.00
C527   C     0.14239   0.86821   0.40482   0.00000  Uiso   1.00
C528   C     0.24588   0.83351   0.24923   0.00000  Uiso   1.00
C529   C     0.14429   0.80191   0.09073   0.00000  Uiso   1.00
C530   C     0.16763   0.83423   0.11645   0.00000  Uiso   1.00
C531   C     0.16587   0.83427   0.38353   0.00000  Uiso   1.00
C532   C     0.16642   0.83830   0.02404   0.00000  Uiso   1.00
C533   C     0.16719   0.83834   0.47592   0.00000  Uiso   1.00
C534   C     0.29051   0.83429   0.24854   0.00000  Uiso   1.00
C535   C     0.04282   0.83430   0.25146   0.00000  Uiso   1.00
C536   C     0.06976   0.69831   0.20359   0.00000  Uiso   1.00
C537   C     0.20015   0.96319   0.35437   0.00000  Uiso   1.00
C538   C     0.26348   0.69828   0.29694   0.00000  Uiso   1.00
C539   C     0.16694   0.83343   0.16496   0.00000  Uiso   1.00
C540   C     0.13266   0.96322   0.14564   0.00000  Uiso   1.00
C541   C     0.24578   0.89970   0.01666   0.00000  Uiso   1.00
C542   C     0.24760   0.77943   0.49377   0.00000  Uiso   1.00
C543   C     0.08712   0.89857   0.48341   0.00000  Uiso   1.00
C544   C     0.08671   0.77820   0.00608   0.00000  Uiso   1.00
C545   C     0.16644   0.83344   0.33503   0.00000  Uiso   1.00
C546   C     0.13897   0.69137   0.22346   0.00000  Uiso   1.00
C547   C     0.19098   0.97493   0.27993   0.00000  Uiso   1.00
C548   C     0.19435   0.69140   0.27657   0.00000  Uiso   1.00
C549   C     0.14233   0.97490   0.22009   0.00000  Uiso   1.00
C550   C     0.02119   0.79253   0.25243   0.00000  Uiso   1.00
Cl551  Cl    0.22498   0.90600   0.12517   0.00000  Uiso   1.00
Cl552  Cl    0.22282   0.76218   0.38560   0.00000  Uiso   1.00
Cl553  Cl    0.10781   0.90528   0.37487   0.00000  Uiso   1.00
Cl554  Cl    0.11165   0.76113   0.11419   0.00000  Uiso   1.00
Cu555  Cu    0.16667   0.88022   0.25000   0.00000  Uiso   1.00
Cu556  Cu    0.16667   0.78645   0.25000   0.00000  Uiso   1.00
H557   H     0.03694   0.75989   0.25663   0.00000  Uiso   1.00
H558   H     0.21816   0.99322   0.36757   0.00000  Uiso   1.00
H559   H     0.28589   0.72518   0.30840   0.00000  Uiso   1.00
H560   H     0.26915   0.68907   0.26212   0.00000  Uiso   1.00
H561   H     0.27035   0.66813   0.31865   0.00000  Uiso   1.00
H562   H     0.12695   0.93364   0.12272   0.00000  Uiso   1.00
H563   H     0.16593   0.97229   0.14515   0.00000  Uiso   1.00
H564   H     0.11405   0.99276   0.13242   0.00000  Uiso   1.00
H565   H     0.24478   0.87919   0.48570   0.00000  Uiso   1.00
H566   H     0.26447   0.88152   0.04311   0.00000  Uiso   1.00
H567   H     0.26171   0.93282   0.00986   0.00000  Uiso   1.00
H568   H     0.29591   0.90962   0.24957   0.00000  Uiso   1.00
H569   H     0.24699   0.80052   0.02428   0.00000  Uiso   1.00
H570   H     0.26481   0.79785   0.46816   0.00000  Uiso   1.00
H571   H     0.26487   0.74715   0.00223   0.00000  Uiso   1.00
H572   H     0.06863   0.88018   0.45693   0.00000  Uiso   1.00
H573   H     0.08836   0.87801   0.01432   0.00000  Uiso   1.00
H574   H     0.07083   0.93145   0.49027   0.00000  Uiso   1.00
H575   H     0.08708   0.79937   0.47562   0.00000  Uiso   1.00
H576   H     0.06927   0.79629   0.03172   0.00000  Uiso   1.00
H577   H     0.06984   0.74568   0.49754   0.00000  Uiso   1.00
H578   H     0.29642   0.75983   0.24405   0.00000  Uiso   1.00
H579   H     0.03741   0.90962   0.24977   0.00000  Uiso   1.00
H580   H     0.04732   0.72517   0.19213   0.00000  Uiso   1.00
H581   H     0.06432   0.68937   0.23852   0.00000  Uiso   1.00
H582   H     0.06272   0.66799   0.18215   0.00000  Uiso   1.00
H583   H     0.20628   0.93383   0.37741   0.00000  Uiso   1.00
H584   H     0.16672   0.97149   0.35464   0.00000  Uiso   1.00
N585   N     0.16667   0.95069   0.25000   0.00000  Uiso   1.00
N586   N     0.16667   0.71598   0.25000   0.00000  Uiso   1.00
O587   O     0.10655   0.87291   0.24999   0.00000  Uiso   1.00
O588   O     0.21299   0.95018   0.31224   0.00000  Uiso   1.00
O589   O     0.22338   0.71596   0.30196   0.00000  Uiso   1.00
O590   O     0.12021   0.95009   0.18788   0.00000  Uiso   1.00
O591   O     0.20560   0.91011   0.02904   0.00000  Uiso   1.00
O592   O     0.20725   0.76708   0.47918   0.00000  Uiso   1.00
O593   O     0.12718   0.90957   0.47103   0.00000  Uiso   1.00
O594   O     0.12720   0.76645   0.02068   0.00000  Uiso   1.00
O595   O     0.22679   0.79375   0.25000   0.00000  Uiso   1.00
O596   O     0.22679   0.87291   0.25000   0.00000  Uiso   1.00
O597   O     0.10655   0.79375   0.24999   0.00000  Uiso   1.00
O598   O     0.16666   0.87293   0.18573   0.00000  Uiso   1.00
O599   O     0.16667   0.79374   0.31427   0.00000  Uiso   1.00
O600   O     0.16667   0.87293   0.31427   0.00000  Uiso   1.00
O601   O     0.16666   0.79374   0.18573   0.00000  Uiso   1.00
O602   O     0.10984   0.71587   0.19817   0.00000  Uiso   1.00
C603   C     0.42079   0.83352   0.25076   0.00000  Uiso   1.00
C604   C     0.64531   0.87664   0.24955   0.00000  Uiso   1.00
C605   C     0.64548   0.79251   0.24795   0.00000  Uiso   1.00
C606   C     0.35468   0.87664   0.25009   0.00000  Uiso   1.00
C607   C     0.52212   0.87176   0.04910   0.00000  Uiso   1.00
C608   C     0.52257   0.80330   0.45508   0.00000  Uiso   1.00
C609   C     0.47775   0.87149   0.45092   0.00000  Uiso   1.00
C610   C     0.47810   0.80291   0.04484   0.00000  Uiso   1.00
C611   C     0.52412   0.86848   0.09519   0.00000  Uiso   1.00
C612   C     0.52299   0.80234   0.40918   0.00000  Uiso   1.00
C613   C     0.47573   0.86821   0.40482   0.00000  Uiso   1.00
C614   C     0.57921   0.83351   0.24923   0.00000  Uiso   1.00
C615   C     0.47762   0.80191   0.09073   0.00000  Uiso   1.00
C616   C     0.50096   0.83423   0.11645   0.00000  Uiso   1.00
C617   C     0.49920   0.83427   0.38353   0.00000  Uiso   1.00
C618   C     0.49975   0.83830   0.02404   0.00000  Uiso   1.00
C619   C     0.50052   0.83834   0.47592   0.00000  Uiso   1.00
C620   C     0.62385   0.83429   0.24854   0.00000  Uiso   1.00
C621   C     0.37615   0.83430   0.25146   0.00000  Uiso   1.00
C622   C     0.40310   0.69831   0.20359   0.00000  Uiso   1.00
C623   C     0.53348   0.96319   0.35437   0.00000  Uiso   1.00
C624   C     0.59681   0.69828   0.29694   0.00000  Uiso   1.00
C625   C     0.50027   0.83343   0.16496   0.00000  Uiso   1.00
C626   C     0.46599   0.96322   0.14564   0.00000  Uiso   1.00
C627   C     0.57912   0.89970   0.01666   0.00000  Uiso   1.00
C628   C     0.58093   0.77943   0.49377   0.00000  Uiso   1.00
C629   C     0.42046   0.89857   0.48341   0.00000  Uiso   1.00
C630   C     0.42004   0.77820   0.00608   0.00000  Uiso   1.00
C631   C     0.49977   0.83344   0.33503   0.00000  Uiso   1.00
C632   C     0.47230   0.69137   0.22346   0.00000  Uiso   1.00
C633   C     0.52431   0.97493   0.27993   0.00000  Uiso   1.00
C634   C     0.52768   0.69140   0.27657   0.00000  Uiso   1.00
C635   C     0.47566   0.97490   0.22009   0.00000  Uiso   1.00
C636   C     0.35453   0.79253   0.25243   0.00000  Uiso   1.00
Cl637  Cl    0.55831   0.90600   0.12517   0.00000  Uiso   1.00
Cl638  Cl    0.55615   0.76218   0.38560   0.00000  Uiso   1.00
Cl639  Cl    0.44115   0.90528   0.37487   0.00000  Uiso   1.00
Cl640  Cl    0.44499   0.76113   0.11419   0.00000  Uiso   1.00
Cu641  Cu    0.50000   0.88022   0.25000   0.00000  Uiso   1.00
Cu642  Cu    0.50000   0.78645   0.25000   0.00000  Uiso   1.00
H643   H     0.37027   0.75989   0.25663   0.00000  Uiso   1.00
H644   H     0.55149   0.99322   0.36757   0.00000  Uiso   1.00
H645   H     0.61923   0.72518   0.30840   0.00000  Uiso   1.00
H646   H     0.60248   0.68907   0.26212   0.00000  Uiso   1.00
H647   H     0.60368   0.66813   0.31865   0.00000  Uiso   1.00
H648   H     0.46029   0.93364   0.12272   0.00000  Uiso   1.00
H649   H     0.49926   0.97229   0.14515   0.00000  Uiso   1.00
H650   H     0.44738   0.99276   0.13242   0.00000  Uiso   1.00
H651   H     0.57811   0.87919   0.48570   0.00000  Uiso   1.00
H652   H     0.59780   0.88152   0.04311   0.00000  Uiso   1.00
H653   H     0.59505   0.93282   0.00986   0.00000  Uiso   1.00
H654   H     0.62924   0.90962   0.24957   0.00000  Uiso   1.00
H655   H     0.58032   0.80052   0.02428   0.00000  Uiso   1.00
H656   H     0.59814   0.79785   0.46816   0.00000  Uiso   1.00
H657   H     0.59820   0.74715   0.00223   0.00000  Uiso   1.00
H658   H     0.40196   0.88018   0.45693   0.00000  Uiso   1.00
H659   H     0.42169   0.87801   0.01432   0.00000  Uiso   1.00
H660   H     0.40417   0.93145   0.49027   0.00000  Uiso   1.00
H661   H     0.42041   0.79937   0.47562   0.00000  Uiso   1.00
H662   H     0.40260   0.79629   0.03172   0.00000  Uiso   1.00
H663   H     0.40317   0.74568   0.49754   0.00000  Uiso   1.00
H664   H     0.62975   0.75983   0.24405   0.00000  Uiso   1.00
H665   H     0.37074   0.90962   0.24977   0.00000  Uiso   1.00
H666   H     0.38066   0.72517   0.19213   0.00000  Uiso   1.00
H667   H     0.39765   0.68937   0.23852   0.00000  Uiso   1.00
H668   H     0.39606   0.66799   0.18215   0.00000  Uiso   1.00
H669   H     0.53961   0.93383   0.37741   0.00000  Uiso   1.00
H670   H     0.50005   0.97149   0.35464   0.00000  Uiso   1.00
N671   N     0.50000   0.95069   0.25000   0.00000  Uiso   1.00
N672   N     0.50000   0.71598   0.25000   0.00000  Uiso   1.00
O673   O     0.43988   0.87291   0.24999   0.00000  Uiso   1.00
O674   O     0.54632   0.95018   0.31224   0.00000  Uiso   1.00
O675   O     0.55671   0.71596   0.30196   0.00000  Uiso   1.00
O676   O     0.45354   0.95009   0.18788   0.00000  Uiso   1.00
O677   O     0.53894   0.91011   0.02904   0.00000  Uiso   1.00
O678   O     0.54058   0.76708   0.47918   0.00000  Uiso   1.00
O679   O     0.46052   0.90957   0.47103   0.00000  Uiso   1.00
O680   O     0.46053   0.76645   0.02068   0.00000  Uiso   1.00
O681   O     0.56012   0.79375   0.25000   0.00000  Uiso   1.00
O682   O     0.56012   0.87291   0.25000   0.00000  Uiso   1.00
O683   O     0.43988   0.79375   0.24999   0.00000  Uiso   1.00
O684   O     0.50000   0.87293   0.18573   0.00000  Uiso   1.00
O685   O     0.50000   0.79374   0.31427   0.00000  Uiso   1.00
O686   O     0.50000   0.87293   0.31427   0.00000  Uiso   1.00
O687   O     0.50000   0.79374   0.18573   0.00000  Uiso   1.00
O688   O     0.44317   0.71587   0.19817   0.00000  Uiso   1.00
C689   C     0.75412   0.83352   0.25076   0.00000  Uiso   1.00
C690   C     0.97864   0.87664   0.24955   0.00000  Uiso   1.00
C691   C     0.97882   0.79251   0.24795   0.00000  Uiso   1.00
C692   C     0.68802   0.87664   0.25009   0.00000  Uiso   1.00
C693   C     0.85545   0.87176   0.04910   0.00000  Uiso   1.00
C694   C     0.85590   0.80330   0.45508   0.00000  Uiso   1.00
C695   C     0.81108   0.87149   0.45092   0.00000  Uiso   1.00
C696   C     0.81143   0.80291   0.04484   0.00000  Uiso   1.00
C697   C     0.85745   0.86848   0.09519   0.00000  Uiso   1.00
C698   C     0.85633   0.80234   0.40918   0.00000  Uiso   1.00
C699   C     0.80906   0.86821   0.40482   0.00000  Uiso   1.00
C700   C     0.91254   0.83351   0.24923   0.00000  Uiso   1.00
C701   C     0.81095   0.80191   0.09073   0.00000  Uiso   1.00
C702   C     0.83429   0.83423   0.11645   0.00000  Uiso   1.00
C703   C     0.83253   0.83427   0.38353   0.00000  Uiso   1.00
C704   C     0.83309   0.83830   0.02404   0.00000  Uiso   1.00
C705   C     0.83386   0.83834   0.47592   0.00000  Uiso   1.00
C706   C     0.95718   0.83429   0.24854   0.00000  Uiso   1.00
C707   C     0.70949   0.83430   0.25146   0.00000  Uiso   1.00
C708   C     0.73643   0.69831   0.20359   0.00000  Uiso   1.00
C709   C     0.86682   0.96319   0.35437   0.00000  Uiso   1.00
C710   C     0.93015   0.69828   0.29694   0.00000  Uiso   1.00
C711   C     0.83360   0.83343   0.16496   0.00000  Uiso   1.00
C712   C     0.79933   0.96322   0.14564   0.00000  Uiso   1.00
C713   C     0.91245   0.89970   0.01666   0.00000  Uiso   1.00
C714   C     0.91427   0.77943   0.49377   0.00000  Uiso   1.00
C715   C     0.75379   0.89857   0.48341   0.00000  Uiso   1.00
C716   C     0.75337   0.77820   0.00608   0.00000  Uiso   1.00
C717   C     0.83311   0.83344   0.33503   0.00000  Uiso   1.00
C718   C     0.80563   0.69137   0.22346   0.00000  Uiso   1.00
C719   C     0.85765   0.97493   0.27993   0.00000  Uiso   1.00
C720   C     0.86101   0.69140   0.27657   0.00000  Uiso   1.00
C721   C     0.80899   0.97490   0.22009   0.00000  Uiso   1.00
C722   C     0.68786   0.79253   0.25243   0.00000  Uiso   1.00
Cl723  Cl    0.89164   0.90600   0.12517   0.00000  Uiso   1.00
Cl724  Cl    0.88948   0.76218   0.38560   0.00000  Uiso   1.00
Cl725  Cl    0.77448   0.90528   0.37487   0.00000  Uiso   1.00
Cl726  Cl    0.77832   0.76113   0.11419   0.00000  Uiso   1.00
Cu727  Cu    0.83333   0.88022   0.25000   0.00000  Uiso   1.00
Cu728  Cu    0.83333   0.78645   0.25000   0.00000  Uiso   1.00
H729   H     0.70360   0.75989   0.25663   0.00000  Uiso   1.00
H730   H     0.88482   0.99322   0.36757   0.00000  Uiso   1.00
H731   H     0.95256   0.72518   0.30840   0.00000  Uiso   1.00
H732   H     0.93581   0.68907   0.26212   0.00000  Uiso   1.00
H733   H     0.93702   0.66813   0.31865   0.00000  Uiso   1.00
H734   H     0.79362   0.93364   0.12272   0.00000  Uiso   1.00
H735   H     0.83260   0.97229   0.14515   0.00000  Uiso   1.00
H736   H     0.78071   0.99276   0.13242   0.00000  Uiso   1.00
H737   H     0.91145   0.87919   0.48570   0.00000  Uiso   1.00
H738   H     0.93114   0.88152   0.04311   0.00000  Uiso   1.00
H739   H     0.92838   0.93282   0.00986   0.00000  Uiso   1.00
H740   H     0.96257   0.90962   0.24957   0.00000  Uiso   1.00
H741   H     0.91366   0.80052   0.02428   0.00000  Uiso   1.00
H742   H     0.93147   0.79785   0.46816   0.00000  Uiso   1.00
H743   H     0.93153   0.74715   0.00223   0.00000  Uiso   1.00
H744   H     0.73529   0.88018   0.45693   0.00000  Uiso   1.00
H745   H     0.75503   0.87801   0.01432   0.00000  Uiso   1.00
H746   H     0.73750   0.93145   0.49027   0.00000  Uiso   1.00
H747   H     0.75374   0.79937   0.47562   0.00000  Uiso   1.00
H748   H     0.73593   0.79629   0.03172   0.00000  Uiso   1.00
H749   H     0.73651   0.74568   0.49754   0.00000  Uiso   1.00
H750   H     0.96308   0.75983   0.24405   0.00000  Uiso   1.00
H751   H     0.70408   0.90962   0.24977   0.00000  Uiso   1.00
H752   H     0.71399   0.72517   0.19213   0.00000  Uiso   1.00
H753   H     0.73099   0.68937   0.23852   0.00000  Uiso   1.00
H754   H     0.72939   0.66799   0.18215   0.00000  Uiso   1.00
H755   H     0.87295   0.93383   0.37741   0.00000  Uiso   1.00
H756   H     0.83339   0.97149   0.35464   0.00000  Uiso   1.00
N757   N     0.83333   0.95069   0.25000   0.00000  Uiso   1.00
N758   N     0.83333   0.71598   0.25000   0.00000  Uiso   1.00
O759   O     0.77321   0.87291   0.24999   0.00000  Uiso   1.00
O760   O     0.87965   0.95018   0.31224   0.00000  Uiso   1.00
O761   O     0.89005   0.71596   0.30196   0.00000  Uiso   1.00
O762   O     0.78687   0.95009   0.18788   0.00000  Uiso   1.00
O763   O     0.87227   0.91011   0.02904   0.00000  Uiso   1.00
O764   O     0.87391   0.76708   0.47918   0.00000  Uiso   1.00
O765   O     0.79385   0.90957   0.47103   0.00000  Uiso   1.00
O766   O     0.79387   0.76645   0.02068   0.00000  Uiso   1.00
O767   O     0.89345   0.79375   0.25000   0.00000  Uiso   1.00
O768   O     0.89345   0.87291   0.25000   0.00000  Uiso   1.00
O769   O     0.77321   0.79375   0.24999   0.00000  Uiso   1.00
O770   O     0.83333   0.87293   0.18573   0.00000  Uiso   1.00
O771   O     0.83334   0.79374   0.31427   0.00000  Uiso   1.00
O772   O     0.83334   0.87293   0.31427   0.00000  Uiso   1.00
O773   O     0.83333   0.79374   0.18573   0.00000  Uiso   1.00
O774   O     0.77651   0.71587   0.19817   0.00000  Uiso   1.00
C775   C     0.08746   0.16685   0.75076   0.00000  Uiso   1.00
C776   C     0.31197   0.20998   0.74955   0.00000  Uiso   1.00
C777   C     0.31215   0.12584   0.74795   0.00000  Uiso   1.00
C778   C     0.02135   0.20998   0.75009   0.00000  Uiso   1.00
C779   C     0.18879   0.20509   0.54910   0.00000  Uiso   1.00
C780   C     0.18923   0.13663   0.95508   0.00000  Uiso   1.00
C781   C     0.14442   0.20482   0.95092   0.00000  Uiso   1.00
C782   C     0.14477   0.13625   0.54484   0.00000  Uiso   1.00
C783   C     0.19078   0.20182   0.59519   0.00000  Uiso   1.00
C784   C     0.18966   0.13567   0.90918   0.00000  Uiso   1.00
C785   C     0.14239   0.20154   0.90482   0.00000  Uiso   1.00
C786   C     0.24588   0.16685   0.74923   0.00000  Uiso   1.00
C787   C     0.14429   0.13525   0.59073   0.00000  Uiso   1.00
C788   C     0.16763   0.16756   0.61645   0.00000  Uiso   1.00
C789   C     0.16587   0.16760   0.88353   0.00000  Uiso   1.00
C790   C     0.16642   0.17163   0.52404   0.00000  Uiso   1.00
C791   C     0.16719   0.17167   0.97592   0.00000  Uiso   1.00
C792   C     0.29051   0.16763   0.74854   0.00000  Uiso   1.00
C793   C     0.04282   0.16764   0.75146   0.00000  Uiso   1.00
C794   C     0.06976   0.03164   0.70359   0.00000  Uiso   1.00
C795   C     0.20015   0.29652   0.85437   0.00000  Uiso   1.00
C796   C     0.26348   0.03161   0.79694   0.00000  Uiso   1.00
C797   C     0.16694   0.16676   0.66496   0.00000  Uiso   1.00
C798   C     0.13266   0.29655   0.64564   0.00000  Uiso   1.00
C799   C     0.24578   0.23303   0.51666   0.00000  Uiso   1.00
C800   C     0.24760   0.11276   0.99377   0.00000  Uiso   1.00
C801   C     0.08712   0.23190   0.98341   0.00000  Uiso   1.00
C802   C     0.08671   0.11154   0.50608   0.00000  Uiso   1.00
C803   C     0.16644   0.16678   0.83503   0.00000  Uiso   1.00
C804   C     0.13897   0.02470   0.72346   0.00000  Uiso   1.00
C805   C     0.19098   0.30826   0.77993   0.00000  Uiso   1.00
C806   C     0.19435   0.02473   0.77657   0.00000  Uiso   1.00
C807   C     0.14233   0.30823   0.72009   0.00000  Uiso   1.00
C808   C     0.02119   0.12586   0.75243   0.00000  Uiso   1.00
Cl809  Cl    0.22498   0.23933   0.62517   0.00000  Uiso   1.00
Cl810  Cl    0.22282   0.09551   0.88560   0.00000  Uiso   1.00
Cl811  Cl    0.10781   0.23862   0.87487   0.00000  Uiso   1.00
Cl812  Cl    0.11165   0.09446   0.61419   0.00000  Uiso   1.00
Cu813  Cu    0.16667   0.21355   0.75000   0.00000  Uiso   1.00
Cu814  Cu    0.16667   0.11978   0.75000   0.00000  Uiso   1.00
H815   H     0.03694   0.09322   0.75663   0.00000  Uiso   1.00
H816   H     0.21816   0.32655   0.86757   0.00000  Uiso   1.00
H817   H     0.28589   0.05851   0.80840   0.00000  Uiso   1.00
H818   H     0.26915   0.02240   0.76212   0.00000  Uiso   1.00
H819   H     0.27035   0.00147   0.81865   0.00000  Uiso   1.00
H820   H     0.12695   0.26698   0.62272   0.00000  Uiso   1.00
H821   H     0.16593   0.30563   0.64515   0.00000  Uiso   1.00
H822   H     0.11405   0.32610   0.63242   0.00000  Uiso   1.00
H823   H     0.24478   0.21252   0.98570   0.00000  Uiso   1.00
H824   H     0.26447   0.21486   0.54311   0.00000  Uiso   1.00
H825   H     0.26171   0.26616   0.50986   0.00000  Uiso   1.00
H826   H     0.29591   0.24296   0.74957   0.00000  Uiso   1.00
H827   H     0.24699   0.13385   0.52428   0.00000  Uiso   1.00
H828   H     0.26481   0.13119   0.96816   0.00000  Uiso   1.00
H829   H     0.26487   0.08048   0.50223   0.00000  Uiso   1.00
H830   H     0.06863   0.21351   0.95693   0.00000  Uiso   1.00
H831   H     0.08836   0.21135   0.51432   0.00000  Uiso   1.00
H832   H     0.07083   0.26479   0.99027   0.00000  Uiso   1.00
H833   H     0.08708   0.13271   0.97562   0.00000  Uiso   1.00
H834   H     0.06927   0.12962   0.53172   0.00000  Uiso   1.00
H835   H     0.06984   0.07901   0.99754   0.00000  Uiso   1.00
H836   H     0.29642   0.09316   0.74405   0.00000  Uiso   1.00
H837   H     0.03741   0.24295   0.74977   0.00000  Uiso   1.00
H838   H     0.04732   0.05851   0.69213   0.00000  Uiso   1.00
H839   H     0.06432   0.02270   0.73852   0.00000  Uiso   1.00
H840   H     0.06272   0.00133   0.68215   0.00000  Uiso   1.00
H841   H     0.20628   0.26717   0.87741   0.00000  Uiso   1.00
H842   H     0.16672   0.30482   0.85464   0.00000  Uiso   1.00
N843   N     0.16667   0.28402   0.75000   0.00000  Uiso   1.00
N844   N     0.16667   0.04931   0.75000   0.00000  Uiso   1.00
O845   O     0.10655   0.20625   0.74999   0.00000  Uiso   1.00
O846   O     0.21299   0.28351   0.81224   0.00000  Uiso   1.00
O847   O     0.22338   0.04929   0.80196   0.00000  Uiso   1.00
O848   O     0.12021   0.28342   0.68788   0.00000  Uiso   1.00
O849   O     0.20560   0.24344   0.52904   0.00000  Uiso   1.00
O850   O     0.20725   0.10041   0.97918   0.00000  Uiso   1.00
O851   O     0.12718   0.24291   0.97103   0.00000  Uiso   1.00
O852   O     0.12720   0.09979   0.52068   0.00000  Uiso   1.00
O853   O     0.22679   0.12709   0.75000   0.00000  Uiso   1.00
O854   O     0.22679   0.20625   0.75000   0.00000  Uiso   1.00
O855   O     0.10655   0.12709   0.74999   0.00000  Uiso   1.00
O856   O     0.16666   0.20626   0.68573   0.00000  Uiso   1.00
O857   O     0.16667   0.12707   0.81427   0.00000  Uiso   1.00
O858   O     0.16667   0.20626   0.81427   0.00000  Uiso   1.00
O859   O     0.16666   0.12707   0.68573   0.00000  Uiso   1.00
O860   O     0.10984   0.04921   0.69817   0.00000  Uiso   1.00
C861   C     0.42079   0.16685   0.75076   0.00000  Uiso   1.00
C862   C     0.64531   0.20998   0.74955   0.00000  Uiso   1.00
C863   C     0.64548   0.12584   0.74795   0.00000  Uiso   1.00
C864   C     0.35468   0.20998   0.75009   0.00000  Uiso   1.00
C865   C     0.52212   0.20509   0.54910   0.00000  Uiso   1.00
C866   C     0.52257   0.13663   0.95508   0.00000  Uiso   1.00
C867   C     0.47775   0.20482   0.95092   0.00000  Uiso   1.00
C868   C     0.47810   0.13625   0.54484   0.00000  Uiso   1.00
C869   C     0.52412   0.20182   0.59519   0.00000  Uiso   1.00
C870   C     0.52299   0.13567   0.90918   0.00000  Uiso   1.00
C871   C     0.47573   0.20154   0.90482   0.00000  Uiso   1.00
C872   C     0.57921   0.16685   0.74923   0.00000  Uiso   1.00
C873   C     0.47762   0.13525   0.59073   0.00000  Uiso   1.00
C874   C     0.50096   0.16756   0.61645   0.00000  Uiso   1.00
C875   C     0.49920   0.16760   0.88353   0.00000  Uiso   1.00
C876   C     0.49975   0.17163   0.52404   0.00000  Uiso   1.00
C877   C     0.50052   0.17167   0.97592   0.00000  Uiso   1.00
C878   C     0.62385   0.16763   0.74854   0.00000  Uiso   1.00
C879   C     0.37615   0.16764   0.75146   0.00000  Uiso   1.00
C880   C     0.40310   0.03164   0.70359   0.00000  Uiso   1.00
C881   C     0.53348   0.29652   0.85437   0.00000  Uiso   1.00
C882   C     0.59681   0.03161   0.79694   0.00000  Uiso   1.00
C883   C     0.50027   0.16676   0.66496   0.00000  Uiso   1.00
C884   C     0.46599   0.29655   0.64564   0.00000  Uiso   1.00
C885   C     0.57912   0.23303   0.51666   0.00000  Uiso   1.00
C886   C     0.58093   0.11276   0.99377   0.00000  Uiso   1.00
C887   C     0.42046   0.23190   0.98341   0.00000  Uiso   1.00
C888   C     0.42004   0.11154   0.50608   0.00000  Uiso   1.00
C889   C     0.49977   0.16678   0.83503   0.00000  Uiso   1.00
C890   C     0.47230   0.02470   0.72346   0.00000  Uiso   1.00
C891   C     0.52431   0.30826   0.77993   0.00000  Uiso   1.00
C892   C     0.52768   0.02473   0.77657   0.00000  Uiso   1.00
C893   C     0.47566   0.30823   0.72009   0.00000  Uiso   1.00
C894   C     0.35453   0.12586   0.75243   0.00000  Uiso   1.00
Cl895  Cl    0.55831   0.23933   0.62517   0.00000  Uiso   1.00
Cl896  Cl    0.55615   0.09551   0.88560   0.00000  Uiso   1.00
Cl897  Cl    0.44115   0.23862   0.87487   0.00000  Uiso   1.00
Cl898  Cl    0.44499   0.09446   0.61419   0.00000  Uiso   1.00
Cu899  Cu    0.50000   0.21355   0.75000   0.00000  Uiso   1.00
Cu900  Cu    0.50000   0.11978   0.75000   0.00000  Uiso   1.00
H901   H     0.37027   0.09322   0.75663   0.00000  Uiso   1.00
H902   H     0.55149   0.32655   0.86757   0.00000  Uiso   1.00
H903   H     0.61923   0.05851   0.80840   0.00000  Uiso   1.00
H904   H     0.60248   0.02240   0.76212   0.00000  Uiso   1.00
H905   H     0.60368   0.00147   0.81865   0.00000  Uiso   1.00
H906   H     0.46029   0.26698   0.62272   0.00000  Uiso   1.00
H907   H     0.49926   0.30563   0.64515   0.00000  Uiso   1.00
H908   H     0.44738   0.32610   0.63242   0.00000  Uiso   1.00
H909   H     0.57811   0.21252   0.98570   0.00000  Uiso   1.00
H910   H     0.59780   0.21486   0.54311   0.00000  Uiso   1.00
H911   H     0.59505   0.26616   0.50986   0.00000  Uiso   1.00
H912   H     0.62924   0.24296   0.74957   0.00000  Uiso   1.00
H913   H     0.58032   0.13385   0.52428   0.00000  Uiso   1.00
H914   H     0.59814   0.13119   0.96816   0.00000  Uiso   1.00
H915   H     0.59820   0.08048   0.50223   0.00000  Uiso   1.00
H916   H     0.40196   0.21351   0.95693   0.00000  Uiso   1.00
H917   H     0.42169   0.21135   0.51432   0.00000  Uiso   1.00
H918   H     0.40417   0.26479   0.99027   0.00000  Uiso   1.00
H919   H     0.42041   0.13271   0.97562   0.00000  Uiso   1.00
H920   H     0.40260   0.12962   0.53172   0.00000  Uiso   1.00
H921   H     0.40317   0.07901   0.99754   0.00000  Uiso   1.00
H922   H     0.62975   0.09316   0.74405   0.00000  Uiso   1.00
H923   H     0.37074   0.24295   0.74977   0.00000  Uiso   1.00
H924   H     0.38066   0.05851   0.69213   0.00000  Uiso   1.00
H925   H     0.39765   0.02270   0.73852   0.00000  Uiso   1.00
H926   H     0.39606   0.00133   0.68215   0.00000  Uiso   1.00
H927   H     0.53961   0.26717   0.87741   0.00000  Uiso   1.00
H928   H     0.50005   0.30482   0.85464   0.00000  Uiso   1.00
N929   N     0.50000   0.28402   0.75000   0.00000  Uiso   1.00
N930   N     0.50000   0.04931   0.75000   0.00000  Uiso   1.00
O931   O     0.43988   0.20625   0.74999   0.00000  Uiso   1.00
O932   O     0.54632   0.28351   0.81224   0.00000  Uiso   1.00
O933   O     0.55671   0.04929   0.80196   0.00000  Uiso   1.00
O934   O     0.45354   0.28342   0.68788   0.00000  Uiso   1.00
O935   O     0.53894   0.24344   0.52904   0.00000  Uiso   1.00
O936   O     0.54058   0.10041   0.97918   0.00000  Uiso   1.00
O937   O     0.46052   0.24291   0.97103   0.00000  Uiso   1.00
O938   O     0.46053   0.09979   0.52068   0.00000  Uiso   1.00
O939   O     0.56012   0.12709   0.75000   0.00000  Uiso   1.00
O940   O     0.56012   0.20625   0.75000   0.00000  Uiso   1.00
O941   O     0.43988   0.12709   0.74999   0.00000  Uiso   1.00
O942   O     0.50000   0.20626   0.68573   0.00000  Uiso   1.00
O943   O     0.50000   0.12707   0.81427   0.00000  Uiso   1.00
O944   O     0.50000   0.20626   0.81427   0.00000  Uiso   1.00
O945   O     0.50000   0.12707   0.68573   0.00000  Uiso   1.00
O946   O     0.44317   0.04921   0.69817   0.00000  Uiso   1.00
C947   C     0.75412   0.16685   0.75076   0.00000  Uiso   1.00
C948   C     0.97864   0.20998   0.74955   0.00000  Uiso   1.00
C949   C     0.97882   0.12584   0.74795   0.00000  Uiso   1.00
C950   C     0.68802   0.20998   0.75009   0.00000  Uiso   1.00
C951   C     0.85545   0.20509   0.54910   0.00000  Uiso   1.00
C952   C     0.85590   0.13663   0.95508   0.00000  Uiso   1.00
C953   C     0.81108   0.20482   0.95092   0.00000  Uiso   1.00
C954   C     0.81143   0.13625   0.54484   0.00000  Uiso   1.00
C955   C     0.85745   0.20182   0.59519   0.00000  Uiso   1.00
C956   C     0.85633   0.13567   0.90918   0.00000  Uiso   1.00
C957   C     0.80906   0.20154   0.90482   0.00000  Uiso   1.00
C958   C     0.91254   0.16685   0.74923   0.00000  Uiso   1.00
C959   C     0.81095   0.13525   0.59073   0.00000  Uiso   1.00
C960   C     0.83429   0.16756   0.61645   0.00000  Uiso   1.00
C961   C     0.83253   0.16760   0.88353   0.00000  Uiso   1.00
C962   C     0.83309   0.17163   0.52404   0.00000  Uiso   1.00
C963   C     0.83386   0.17167   0.97592   0.00000  Uiso   1.00
C964   C     0.95718   0.16763   0.74854   0.00000  Uiso   1.00
C965   C     0.70949   0.16764   0.75146   0.00000  Uiso   1.00
C966   C     0.73643   0.03164   0.70359   0.00000  Uiso   1.00
C967   C     0.86682   0.29652   0.85437   0.00000  Uiso   1.00
C968   C     0.93015   0.03161   0.79694   0.00000  Uiso   1.00
C969   C     0.83360   0.16676   0.66496   0.00000  Uiso   1.00
C970   C     0.79933   0.29655   0.64564   0.00000  Uiso   1.00
C971   C     0.91245   0.23303   0.51666   0.00000  Uiso   1.00
C972   C     0.91427   0.11276   0.99377   0.00000  Uiso   1.00
C973   C     0.75379   0.23190   0.98341   0.00000  Uiso   1.00
C974   C     0.75337   0.11154   0.50608   0.00000  Uiso   1.00
C975   C     0.83311   0.16678   0.83503   0.00000  Uiso   1.00
C976   C     0.80563   0.02470   0.72346   0.00000  Uiso   1.00
C977   C     0.85765   0.30826   0.77993   0.00000  Uiso   1.00
C978   C     0.86101   0.02473   0.77657   0.00000  Uiso   1.00
C979   C     0.80899   0.30823   0.72009   0.00000  Uiso   1.00
C980   C     0.68786   0.12586   0.75243   0.00000  Uiso   1.00
Cl981  Cl    0.89164   0.23933   0.62517   0.00000  Uiso   1.00
Cl982  Cl    0.88948   0.09551   0.88560   0.00000  Uiso   1.00
Cl983  Cl    0.77448   0.23862   0.87487   0.00000  Uiso   1.00
Cl984  Cl    0.77832   0.09446   0.61419   0.00000  Uiso   1.00
Cu985  Cu    0.83333   0.21355   0.75000   0.00000  Uiso   1.00
Cu986  Cu    0.83333   0.11978   0.75000   0.00000  Uiso   1.00
H987   H     0.70360   0.09322   0.75663   0.00000  Uiso   1.00
H988   H     0.88482   0.32655   0.86757   0.00000  Uiso   1.00
H989   H     0.95256   0.05851   0.80840   0.00000  Uiso   1.00
H990   H     0.93581   0.02240   0.76212   0.00000  Uiso   1.00
H991   H     0.93702   0.00147   0.81865   0.00000  Uiso   1.00
H992   H     0.79362   0.26698   0.62272   0.00000  Uiso   1.00
H993   H     0.83260   0.30563   0.64515   0.00000  Uiso   1.00
H994   H     0.78071   0.32610   0.63242   0.00000  Uiso   1.00
H995   H     0.91145   0.21252   0.98570   0.00000  Uiso   1.00
H996   H     0.93114   0.21486   0.54311   0.00000  Uiso   1.00
H997   H     0.92838   0.26616   0.50986   0.00000  Uiso   1.00
H998   H     0.96257   0.24296   0.74957   0.00000  Uiso   1.00
H999   H     0.91366   0.13385   0.52428   0.00000  Uiso   1.00
H1000  H     0.93147   0.13119   0.96816   0.00000  Uiso   1.00
H1001  H     0.93153   0.08048   0.50223   0.00000  Uiso   1.00
H1002  H     0.73529   0.21351   0.95693   0.00000  Uiso   1.00
H1003  H     0.75503   0.21135   0.51432   0.00000  Uiso   1.00
H1004  H     0.73750   0.26479   0.99027   0.00000  Uiso   1.00
H1005  H     0.75374   0.13271   0.97562   0.00000  Uiso   1.00
H1006  H     0.73593   0.12962   0.53172   0.00000  Uiso   1.00
H1007  H     0.73651   0.07901   0.99754   0.00000  Uiso   1.00
H1008  H     0.96308   0.09316   0.74405   0.00000  Uiso   1.00
H1009  H     0.70408   0.24295   0.74977   0.00000  Uiso   1.00
H1010  H     0.71399   0.05851   0.69213   0.00000  Uiso   1.00
H1011  H     0.73099   0.02270   0.73852   0.00000  Uiso   1.00
H1012  H     0.72939   0.00133   0.68215   0.00000  Uiso   1.00
H1013  H     0.87295   0.26717   0.87741   0.00000  Uiso   1.00
H1014  H     0.83339   0.30482   0.85464   0.00000  Uiso   1.00
N1015  N     0.83333   0.28402   0.75000   0.00000  Uiso   1.00
N1016  N     0.83333   0.04931   0.75000   0.00000  Uiso   1.00
O1017  O     0.77321   0.20625   0.74999   0.00000  Uiso   1.00
O1018  O     0.87965   0.28351   0.81224   0.00000  Uiso   1.00
O1019  O     0.89005   0.04929   0.80196   0.00000  Uiso   1.00
O1020  O     0.78687   0.28342   0.68788   0.00000  Uiso   1.00
O1021  O     0.87227   0.24344   0.52904   0.00000  Uiso   1.00
O1022  O     0.87391   0.10041   0.97918   0.00000  Uiso   1.00
O1023  O     0.79385   0.24291   0.97103   0.00000  Uiso   1.00
O1024  O     0.79387   0.09979   0.52068   0.00000  Uiso   1.00
O1025  O     0.89345   0.12709   0.75000   0.00000  Uiso   1.00
O1026  O     0.89345   0.20625   0.75000   0.00000  Uiso   1.00
O1027  O     0.77321   0.12709   0.74999   0.00000  Uiso   1.00
O1028  O     0.83333   0.20626   0.68573   0.00000  Uiso   1.00
O1029  O     0.83334   0.12707   0.81427   0.00000  Uiso   1.00
O1030  O     0.83334   0.20626   0.81427   0.00000  Uiso   1.00
O1031  O     0.83333   0.12707   0.68573   0.00000  Uiso   1.00
O1032  O     0.77651   0.04921   0.69817   0.00000  Uiso   1.00
C1033  C     0.08746   0.50018   0.75076   0.00000  Uiso   1.00
C1034  C     0.31197   0.54331   0.74955   0.00000  Uiso   1.00
C1035  C     0.31215   0.45918   0.74795   0.00000  Uiso   1.00
C1036  C     0.02135   0.54331   0.75009   0.00000  Uiso   1.00
C1037  C     0.18879   0.53843   0.54910   0.00000  Uiso   1.00
C1038  C     0.18923   0.46997   0.95508   0.00000  Uiso   1.00
C1039  C     0.14442   0.53816   0.95092   0.00000  Uiso   1.00
C1040  C     0.14477   0.46958   0.54484   0.00000  Uiso   1.00
C1041  C     0.19078   0.53515   0.59519   0.00000  Uiso   1.00
C1042  C     0.18966   0.46900   0.90918   0.00000  Uiso   1.00
C1043  C     0.14239   0.53488   0.90482   0.00000  Uiso   1.00
C1044  C     0.24588   0.50018   0.74923   0.00000  Uiso   1.00
C1045  C     0.14429   0.46858   0.59073   0.00000  Uiso   1.00
C1046  C     0.16763   0.50089   0.61645   0.00000  Uiso   1.00
C1047  C     0.16587   0.50094   0.88353   0.00000  Uiso   1.00
C1048  C     0.16642   0.50497   0.52404   0.00000  Uiso   1.00
C1049  C     0.16719   0.50501   0.97592   0.00000  Uiso   1.00
C1050  C     0.29051   0.50096   0.74854   0.00000  Uiso   1.00
C1051  C     0.04282   0.50097   0.75146   0.00000  Uiso   1.00
C1052  C     0.06976   0.36498   0.70359   0.00000  Uiso   1.00
C1053  C     0.20015   0.62986   0.85437   0.00000  Uiso   1.00
C1054  C     0.26348   0.36494   0.79694   0.00000  Uiso   1.00
C1055  C     0.16694   0.50009   0.66496   0.00000  Uiso   1.00
C1056  C     0.13266   0.62989   0.64564   0.00000  Uiso   1.00
C1057  C     0.24578   0.56637   0.51666   0.00000  Uiso   1.00
C1058  C     0.24760   0.44610   0.99377   0.00000  Uiso   1.00
C1059  C     0.08712   0.56524   0.98341   0.00000  Uiso   1.00
C1060  C     0.08671   0.44487   0.50608   0.00000  Uiso   1.00
C1061  C     0.16644   0.50011   0.83503   0.00000  Uiso   1.00
C1062  C     0.13897   0.35803   0.72346   0.00000  Uiso   1.00
C1063  C     0.19098   0.64160   0.77993   0.00000  Uiso   1.00
C1064  C     0.19435   0.35806   0.77657   0.00000  Uiso   1.00
C1065  C     0.14233   0.64156   0.72009   0.00000  Uiso   1.00
C1066  C     0.02119   0.45920   0.75243   0.00000  Uiso   1.00
Cl1067 Cl    0.22498   0.57266   0.62517   0.00000  Uiso   1.00
Cl1068 Cl    0.22282   0.42884   0.88560   0.00000  Uiso   1.00
Cl1069 Cl    0.10781   0.57195   0.87487   0.00000  Uiso   1.00
Cl1070 Cl    0.11165   0.42779   0.61419   0.00000  Uiso   1.00
Cu1071 Cu    0.16667   0.54689   0.75000   0.00000  Uiso   1.00
Cu1072 Cu    0.16667   0.45311   0.75000   0.00000  Uiso   1.00
H1073  H     0.03694   0.42656   0.75663   0.00000  Uiso   1.00
H1074  H     0.21816   0.65989   0.86757   0.00000  Uiso   1.00
H1075  H     0.28589   0.39185   0.80840   0.00000  Uiso   1.00
H1076  H     0.26915   0.35573   0.76212   0.00000  Uiso   1.00
H1077  H     0.27035   0.33480   0.81865   0.00000  Uiso   1.00
H1078  H     0.12695   0.60031   0.62272   0.00000  Uiso   1.00
H1079  H     0.16593   0.63896   0.64515   0.00000  Uiso   1.00
H1080  H     0.11405   0.65943   0.63242   0.00000  Uiso   1.00
H1081  H     0.24478   0.54586   0.98570   0.00000  Uiso   1.00
H1082  H     0.26447   0.54819   0.54311   0.00000  Uiso   1.00
H1083  H     0.26171   0.59949   0.50986   0.00000  Uiso   1.00
H1084  H     0.29591   0.57629   0.74957   0.00000  Uiso   1.00
H1085  H     0.24699   0.46719   0.52428   0.00000  Uiso   1.00
H1086  H     0.26481   0.46452   0.96816   0.00000  Uiso   1.00
H1087  H     0.26487   0.41382   0.50223   0.00000  Uiso   1.00
H1088  H     0.06863   0.54685   0.95693   0.00000  Uiso   1.00
H1089  H     0.08836   0.54468   0.51432   0.00000  Uiso   1.00
H1090  H     0.07083   0.59812   0.99027   0.00000  Uiso   1.00
H1091  H     0.08708   0.46604   0.97562   0.00000  Uiso   1.00
H1092  H     0.06927   0.46295   0.53172   0.00000  Uiso   1.00
H1093  H     0.06984   0.41234   0.99754   0.00000  Uiso   1.00
H1094  H     0.29642   0.42650   0.74405   0.00000  Uiso   1.00
H1095  H     0.03741   0.57629   0.74977   0.00000  Uiso   1.00
H1096  H     0.04732   0.39184   0.69213   0.00000  Uiso   1.00
H1097  H     0.06432   0.35604   0.73852   0.00000  Uiso   1.00
H1098  H     0.06272   0.33466   0.68215   0.00000  Uiso   1.00
H1099  H     0.20628   0.60050   0.87741   0.00000  Uiso   1.00
H1100  H     0.16672   0.63815   0.85464   0.00000  Uiso   1.00
N1101  N     0.16667   0.61736   0.75000   0.00000  Uiso   1.00
N1102  N     0.16667   0.38264   0.75000   0.00000  Uiso   1.00
O1103  O     0.10655   0.53958   0.74999   0.00000  Uiso   1.00
O1104  O     0.21299   0.61684   0.81224   0.00000  Uiso   1.00
O1105  O     0.22338   0.38263   0.80196   0.00000  Uiso   1.00
O1106  O     0.12021   0.61675   0.68788   0.00000  Uiso   1.00
O1107  O     0.20560   0.57678   0.52904   0.00000  Uiso   1.00
O1108  O     0.20725   0.43375   0.97918   0.00000  Uiso   1.00
O1109  O     0.12718   0.57624   0.97103   0.00000  Uiso   1.00
O1110  O     0.12720   0.43312   0.52068   0.00000  Uiso   1.00
O1111  O     0.22679   0.46042   0.75000   0.00000  Uiso   1.00
O1112  O     0.22679   0.53958   0.75000   0.00000  Uiso   1.00
O1113  O     0.10655   0.46042   0.74999   0.00000  Uiso   1.00
O1114  O     0.16666   0.53959   0.68573   0.00000  Uiso   1.00
O1115  O     0.16667   0.46041   0.81427   0.00000  Uiso   1.00
O1116  O     0.16667   0.53959   0.81427   0.00000  Uiso   1.00
O1117  O     0.16666   0.46041   0.68573   0.00000  Uiso   1.00
O1118  O     0.10984   0.38254   0.69817   0.00000  Uiso   1.00
C1119  C     0.42079   0.50018   0.75076   0.00000  Uiso   1.00
C1120  C     0.64531   0.54331   0.74955   0.00000  Uiso   1.00
C1121  C     0.64548   0.45918   0.74795   0.00000  Uiso   1.00
C1122  C     0.35468   0.54331   0.75009   0.00000  Uiso   1.00
C1123  C     0.52212   0.53843   0.54910   0.00000  Uiso   1.00
C1124  C     0.52257   0.46997   0.95508   0.00000  Uiso   1.00
C1125  C     0.47775   0.53816   0.95092   0.00000  Uiso   1.00
C1126  C     0.47810   0.46958   0.54484   0.00000  Uiso   1.00
C1127  C     0.52412   0.53515   0.59519   0.00000  Uiso   1.00
C1128  C     0.52299   0.46900   0.90918   0.00000  Uiso   1.00
C1129  C     0.47573   0.53488   0.90482   0.00000  Uiso   1.00
C1130  C     0.57921   0.50018   0.74923   0.00000  Uiso   1.00
C1131  C     0.47762   0.46858   0.59073   0.00000  Uiso   1.00
C1132  C     0.50096   0.50089   0.61645   0.00000  Uiso   1.00
C1133  C     0.49920   0.50094   0.88353   0.00000  Uiso   1.00
C1134  C     0.49975   0.50497   0.52404   0.00000  Uiso   1.00
C1135  C     0.50052   0.50501   0.97592   0.00000  Uiso   1.00
C1136  C     0.62385   0.50096   0.74854   0.00000  Uiso   1.00
C1137  C     0.37615   0.50097   0.75146   0.00000  Uiso   1.00
C1138  C     0.40310   0.36498   0.70359   0.00000  Uiso   1.00
C1139  C     0.53348   0.62986   0.85437   0.00000  Uiso   1.00
C1140  C     0.59681   0.36494   0.79694   0.00000  Uiso   1.00
C1141  C     0.50027   0.50009   0.66496   0.00000  Uiso   1.00
C1142  C     0.46599   0.62989   0.64564   0.00000  Uiso   1.00
C1143  C     0.57912   0.56637   0.51666   0.00000  Uiso   1.00
C1144  C     0.58093   0.44610   0.99377   0.00000  Uiso   1.00
C1145  C     0.42046   0.56524   0.98341   0.00000  Uiso   1.00
C1146  C     0.42004   0.44487   0.50608   0.00000  Uiso   1.00
C1147  C     0.49977   0.50011   0.83503   0.00000  Uiso   1.00
C1148  C     0.47230   0.35803   0.72346   0.00000  Uiso   1.00
C1149  C     0.52431   0.64160   0.77993   0.00000  Uiso   1.00
C1150  C     0.52768   0.35806   0.77657   0.00000  Uiso   1.00
C1151  C     0.47566   0.64156   0.72009   0.00000  Uiso   1.00
C1152  C     0.35453   0.45920   0.75243   0.00000  Uiso   1.00
Cl1153 Cl    0.55831   0.57266   0.62517   0.00000  Uiso   1.00
Cl1154 Cl    0.55615   0.42884   0.88560   0.00000  Uiso   1.00
Cl1155 Cl    0.44115   0.57195   0.87487   0.00000  Uiso   1.00
Cl1156 Cl    0.44499   0.42779   0.61419   0.00000  Uiso   1.00
Cu1157 Cu    0.50000   0.54689   0.75000   0.00000  Uiso   1.00
Cu1158 Cu    0.50000   0.45311   0.75000   0.00000  Uiso   1.00
H1159  H     0.37027   0.42656   0.75663   0.00000  Uiso   1.00
H1160  H     0.55149   0.65989   0.86757   0.00000  Uiso   1.00
H1161  H     0.61923   0.39185   0.80840   0.00000  Uiso   1.00
H1162  H     0.60248   0.35573   0.76212   0.00000  Uiso   1.00
H1163  H     0.60368   0.33480   0.81865   0.00000  Uiso   1.00
H1164  H     0.46029   0.60031   0.62272   0.00000  Uiso   1.00
H1165  H     0.49926   0.63896   0.64515   0.00000  Uiso   1.00
H1166  H     0.44738   0.65943   0.63242   0.00000  Uiso   1.00
H1167  H     0.57811   0.54586   0.98570   0.00000  Uiso   1.00
H1168  H     0.59780   0.54819   0.54311   0.00000  Uiso   1.00
H1169  H     0.59505   0.59949   0.50986   0.00000  Uiso   1.00
H1170  H     0.62924   0.57629   0.74957   0.00000  Uiso   1.00
H1171  H     0.58032   0.46719   0.52428   0.00000  Uiso   1.00
H1172  H     0.59814   0.46452   0.96816   0.00000  Uiso   1.00
H1173  H     0.59820   0.41382   0.50223   0.00000  Uiso   1.00
H1174  H     0.40196   0.54685   0.95693   0.00000  Uiso   1.00
H1175  H     0.42169   0.54468   0.51432   0.00000  Uiso   1.00
H1176  H     0.40417   0.59812   0.99027   0.00000  Uiso   1.00
H1177  H     0.42041   0.46604   0.97562   0.00000  Uiso   1.00
H1178  H     0.40260   0.46295   0.53172   0.00000  Uiso   1.00
H1179  H     0.40317   0.41234   0.99754   0.00000  Uiso   1.00
H1180  H     0.62975   0.42650   0.74405   0.00000  Uiso   1.00
H1181  H     0.37074   0.57629   0.74977   0.00000  Uiso   1.00
H1182  H     0.38066   0.39184   0.69213   0.00000  Uiso   1.00
H1183  H     0.39765   0.35604   0.73852   0.00000  Uiso   1.00
H1184  H     0.39606   0.33466   0.68215   0.00000  Uiso   1.00
H1185  H     0.53961   0.60050   0.87741   0.00000  Uiso   1.00
H1186  H     0.50005   0.63815   0.85464   0.00000  Uiso   1.00
N1187  N     0.50000   0.61736   0.75000   0.00000  Uiso   1.00
N1188  N     0.50000   0.38264   0.75000   0.00000  Uiso   1.00
O1189  O     0.43988   0.53958   0.74999   0.00000  Uiso   1.00
O1190  O     0.54632   0.61684   0.81224   0.00000  Uiso   1.00
O1191  O     0.55671   0.38263   0.80196   0.00000  Uiso   1.00
O1192  O     0.45354   0.61675   0.68788   0.00000  Uiso   1.00
O1193  O     0.53894   0.57678   0.52904   0.00000  Uiso   1.00
O1194  O     0.54058   0.43375   0.97918   0.00000  Uiso   1.00
O1195  O     0.46052   0.57624   0.97103   0.00000  Uiso   1.00
O1196  O     0.46053   0.43312   0.52068   0.00000  Uiso   1.00
O1197  O     0.56012   0.46042   0.75000   0.00000  Uiso   1.00
O1198  O     0.56012   0.53958   0.75000   0.00000  Uiso   1.00
O1199  O     0.43988   0.46042   0.74999   0.00000  Uiso   1.00
O1200  O     0.50000   0.53959   0.68573   0.00000  Uiso   1.00
O1201  O     0.50000   0.46041   0.81427   0.00000  Uiso   1.00
O1202  O     0.50000   0.53959   0.81427   0.00000  Uiso   1.00
O1203  O     0.50000   0.46041   0.68573   0.00000  Uiso   1.00
O1204  O     0.44317   0.38254   0.69817   0.00000  Uiso   1.00
C1205  C     0.75412   0.50018   0.75076   0.00000  Uiso   1.00
C1206  C     0.97864   0.54331   0.74955   0.00000  Uiso   1.00
C1207  C     0.97882   0.45918   0.74795   0.00000  Uiso   1.00
C1208  C     0.68802   0.54331   0.75009   0.00000  Uiso   1.00
C1209  C     0.85545   0.53843   0.54910   0.00000  Uiso   1.00
C1210  C     0.85590   0.46997   0.95508   0.00000  Uiso   1.00
C1211  C     0.81108   0.53816   0.95092   0.00000  Uiso   1.00
C1212  C     0.81143   0.46958   0.54484   0.00000  Uiso   1.00
C1213  C     0.85745   0.53515   0.59519   0.00000  Uiso   1.00
C1214  C     0.85633   0.46900   0.90918   0.00000  Uiso   1.00
C1215  C     0.80906   0.53488   0.90482   0.00000  Uiso   1.00
C1216  C     0.91254   0.50018   0.74923   0.00000  Uiso   1.00
C1217  C     0.81095   0.46858   0.59073   0.00000  Uiso   1.00
C1218  C     0.83429   0.50089   0.61645   0.00000  Uiso   1.00
C1219  C     0.83253   0.50094   0.88353   0.00000  Uiso   1.00
C1220  C     0.83309   0.50497   0.52404   0.00000  Uiso   1.00
C1221  C     0.83386   0.50501   0.97592   0.00000  Uiso   1.00
C1222  C     0.95718   0.50096   0.74854   0.00000  Uiso   1.00
C1223  C     0.70949   0.50097   0.75146   0.00000  Uiso   1.00
C1224  C     0.73643   0.36498   0.70359   0.00000  Uiso   1.00
C1225  C     0.86682   0.62986   0.85437   0.00000  Uiso   1.00
C1226  C     0.93015   0.36494   0.79694   0.00000  Uiso   1.00
C1227  C     0.83360   0.50009   0.66496   0.00000  Uiso   1.00
C1228  C     0.79933   0.62989   0.64564   0.00000  Uiso   1.00
C1229  C     0.91245   0.56637   0.51666   0.00000  Uiso   1.00
C1230  C     0.91427   0.44610   0.99377   0.00000  Uiso   1.00
C1231  C     0.75379   0.56524   0.98341   0.00000  Uiso   1.00
C1232  C     0.75337   0.44487   0.50608   0.00000  Uiso   1.00
C1233  C     0.83311   0.50011   0.83503   0.00000  Uiso   1.00
C1234  C     0.80563   0.35803   0.72346   0.00000  Uiso   1.00
C1235  C     0.85765   0.64160   0.77993   0.00000  Uiso   1.00
C1236  C     0.86101   0.35806   0.77657   0.00000  Uiso   1.00
C1237  C     0.80899   0.64156   0.72009   0.00000  Uiso   1.00
C1238  C     0.68786   0.45920   0.75243   0.00000  Uiso   1.00
Cl1239 Cl    0.89164   0.57266   0.62517   0.00000  Uiso   1.00
Cl1240 Cl    0.88948   0.42884   0.88560   0.00000  Uiso   1.00
Cl1241 Cl    0.77448   0.57195   0.87487   0.00000  Uiso   1.00
Cl1242 Cl    0.77832   0.42779   0.61419   0.00000  Uiso   1.00
Cu1243 Cu    0.83333   0.54689   0.75000   0.00000  Uiso   1.00
Cu1244 Cu    0.83333   0.45311   0.75000   0.00000  Uiso   1.00
H1245  H     0.70360   0.42656   0.75663   0.00000  Uiso   1.00
H1246  H     0.88482   0.65989   0.86757   0.00000  Uiso   1.00
H1247  H     0.95256   0.39185   0.80840   0.00000  Uiso   1.00
H1248  H     0.93581   0.35573   0.76212   0.00000  Uiso   1.00
H1249  H     0.93702   0.33480   0.81865   0.00000  Uiso   1.00
H1250  H     0.79362   0.60031   0.62272   0.00000  Uiso   1.00
H1251  H     0.83260   0.63896   0.64515   0.00000  Uiso   1.00
H1252  H     0.78071   0.65943   0.63242   0.00000  Uiso   1.00
H1253  H     0.91145   0.54586   0.98570   0.00000  Uiso   1.00
H1254  H     0.93114   0.54819   0.54311   0.00000  Uiso   1.00
H1255  H     0.92838   0.59949   0.50986   0.00000  Uiso   1.00
H1256  H     0.96257   0.57629   0.74957   0.00000  Uiso   1.00
H1257  H     0.91366   0.46719   0.52428   0.00000  Uiso   1.00
H1258  H     0.93147   0.46452   0.96816   0.00000  Uiso   1.00
H1259  H     0.93153   0.41382   0.50223   0.00000  Uiso   1.00
H1260  H     0.73529   0.54685   0.95693   0.00000  Uiso   1.00
H1261  H     0.75503   0.54468   0.51432   0.00000  Uiso   1.00
H1262  H     0.73750   0.59812   0.99027   0.00000  Uiso   1.00
H1263  H     0.75374   0.46604   0.97562   0.00000  Uiso   1.00
H1264  H     0.73593   0.46295   0.53172   0.00000  Uiso   1.00
H1265  H     0.73651   0.41234   0.99754   0.00000  Uiso   1.00
H1266  H     0.96308   0.42650   0.74405   0.00000  Uiso   1.00
H1267  H     0.70408   0.57629   0.74977   0.00000  Uiso   1.00
H1268  H     0.71399   0.39184   0.69213   0.00000  Uiso   1.00
H1269  H     0.73099   0.35604   0.73852   0.00000  Uiso   1.00
H1270  H     0.72939   0.33466   0.68215   0.00000  Uiso   1.00
H1271  H     0.87295   0.60050   0.87741   0.00000  Uiso   1.00
H1272  H     0.83339   0.63815   0.85464   0.00000  Uiso   1.00
N1273  N     0.83333   0.61736   0.75000   0.00000  Uiso   1.00
N1274  N     0.83333   0.38264   0.75000   0.00000  Uiso   1.00
O1275  O     0.77321   0.53958   0.74999   0.00000  Uiso   1.00
O1276  O     0.87965   0.61684   0.81224   0.00000  Uiso   1.00
O1277  O     0.89005   0.38263   0.80196   0.00000  Uiso   1.00
O1278  O     0.78687   0.61675   0.68788   0.00000  Uiso   1.00
O1279  O     0.87227   0.57678   0.52904   0.00000  Uiso   1.00
O1280  O     0.87391   0.43375   0.97918   0.00000  Uiso   1.00
O1281  O     0.79385   0.57624   0.97103   0.00000  Uiso   1.00
O1282  O     0.79387   0.43312   0.52068   0.00000  Uiso   1.00
O1283  O     0.89345   0.46042   0.75000   0.00000  Uiso   1.00
O1284  O     0.89345   0.53958   0.75000   0.00000  Uiso   1.00
O1285  O     0.77321   0.46042   0.74999   0.00000  Uiso   1.00
O1286  O     0.83333   0.53959   0.68573   0.00000  Uiso   1.00
O1287  O     0.83334   0.46041   0.81427   0.00000  Uiso   1.00
O1288  O     0.83334   0.53959   0.81427   0.00000  Uiso   1.00
O1289  O     0.83333   0.46041   0.68573   0.00000  Uiso   1.00
O1290  O     0.77651   0.38254   0.69817   0.00000  Uiso   1.00
C1291  C     0.08746   0.83352   0.75076   0.00000  Uiso   1.00
C1292  C     0.31197   0.87664   0.74955   0.00000  Uiso   1.00
C1293  C     0.31215   0.79251   0.74795   0.00000  Uiso   1.00
C1294  C     0.02135   0.87664   0.75009   0.00000  Uiso   1.00
C1295  C     0.18879   0.87176   0.54910   0.00000  Uiso   1.00
C1296  C     0.18923   0.80330   0.95508   0.00000  Uiso   1.00
C1297  C     0.14442   0.87149   0.95092   0.00000  Uiso   1.00
C1298  C     0.14477   0.80291   0.54484   0.00000  Uiso   1.00
C1299  C     0.19078   0.86848   0.59519   0.00000  Uiso   1.00
C1300  C     0.18966   0.80234   0.90918   0.00000  Uiso   1.00
C1301  C     0.14239   0.86821   0.90482   0.00000  Uiso   1.00
C1302  C     0.24588   0.83351   0.74923   0.00000  Uiso   1.00
C1303  C     0.14429   0.80191   0.59073   0.00000  Uiso   1.00
C1304  C     0.16763   0.83423   0.61645   0.00000  Uiso   1.00
C1305  C     0.16587   0.83427   0.88353   0.00000  Uiso   1.00
C1306  C     0.16642   0.83830   0.52404   0.00000  Uiso   1.00
C1307  C     0.16719   0.83834   0.97592   0.00000  Uiso   1.00
C1308  C     0.29051   0.83429   0.74854   0.00000  Uiso   1.00
C1309  C     0.04282   0.83430   0.75146   0.00000  Uiso   1.00
C1310  C     0.06976   0.69831   0.70359   0.00000  Uiso   1.00
C1311  C     0.20015   0.96319   0.85437   0.00000  Uiso   1.00
C1312  C     0.26348   0.69828   0.79694   0.00000  Uiso   1.00
C1313  C     0.16694   0.83343   0.66496   0.00000  Uiso   1.00
C1314  C     0.13266   0.96322   0.64564   0.00000  Uiso   1.00
C1315  C     0.24578   0.89970   0.51666   0.00000  Uiso   1.00
C1316  C     0.24760   0.77943   0.99377   0.00000  Uiso   1.00
C1317  C     0.08712   0.89857   0.98341   0.00000  Uiso   1.00
C1318  C     0.08671   0.77820   0.50608   0.00000  Uiso   1.00
C1319  C     0.16644   0.83344   0.83503   0.00000  Uiso   1.00
C1320  C     0.13897   0.69137   0.72346   0.00000  Uiso   1.00
C1321  C     0.19098   0.97493   0.77993   0.00000  Uiso   1.00
C1322  C     0.19435   0.69140   0.77657   0.00000  Uiso   1.00
C1323  C     0.14233   0.97490   0.72009   0.00000  Uiso   1.00
C1324  C     0.02119   0.79253   0.75243   0.00000  Uiso   1.00
Cl1325 Cl    0.22498   0.90600   0.62517   0.00000  Uiso   1.00
Cl1326 Cl    0.22282   0.76218   0.88560   0.00000  Uiso   1.00
Cl1327 Cl    0.10781   0.90528   0.87487   0.00000  Uiso   1.00
Cl1328 Cl    0.11165   0.76113   0.61419   0.00000  Uiso   1.00
Cu1329 Cu    0.16667   0.88022   0.75000   0.00000  Uiso   1.00
Cu1330 Cu    0.16667   0.78645   0.75000   0.00000  Uiso   1.00
H1331  H     0.03694   0.75989   0.75663   0.00000  Uiso   1.00
H1332  H     0.21816   0.99322   0.86757   0.00000  Uiso   1.00
H1333  H     0.28589   0.72518   0.80840   0.00000  Uiso   1.00
H1334  H     0.26915   0.68907   0.76212   0.00000  Uiso   1.00
H1335  H     0.27035   0.66813   0.81865   0.00000  Uiso   1.00
H1336  H     0.12695   0.93364   0.62272   0.00000  Uiso   1.00
H1337  H     0.16593   0.97229   0.64515   0.00000  Uiso   1.00
H1338  H     0.11405   0.99276   0.63242   0.00000  Uiso   1.00
H1339  H     0.24478   0.87919   0.98570   0.00000  Uiso   1.00
H1340  H     0.26447   0.88152   0.54311   0.00000  Uiso   1.00
H1341  H     0.26171   0.93282   0.50986   0.00000  Uiso   1.00
H1342  H     0.29591   0.90962   0.74957   0.00000  Uiso   1.00
H1343  H     0.24699   0.80052   0.52428   0.00000  Uiso   1.00
H1344  H     0.26481   0.79785   0.96816   0.00000  Uiso   1.00
H1345  H     0.26487   0.74715   0.50223   0.00000  Uiso   1.00
H1346  H     0.06863   0.88018   0.95693   0.00000  Uiso   1.00
H1347  H     0.08836   0.87801   0.51432   0.00000  Uiso   1.00
H1348  H     0.07083   0.93145   0.99027   0.00000  Uiso   1.00
H1349  H     0.08708   0.79937   0.97562   0.00000  Uiso   1.00
H1350  H     0.06927   0.79629   0.53172   0.00000  Uiso   1.00
H1351  H     0.06984   0.74568   0.99754   0.00000  Uiso   1.00
H1352  H     0.29642   0.75983   0.74405   0.00000  Uiso   1.00
H1353  H     0.03741   0.90962   0.74977   0.00000  Uiso   1.00
H1354  H     0.04732   0.72517   0.69213   0.00000  Uiso   1.00
H1355  H     0.06432   0.68937   0.73852   0.00000  Uiso   1.00
H1356  H     0.06272   0.66799   0.68215   0.00000  Uiso   1.00
H1357  H     0.20628   0.93383   0.87741   0.00000  Uiso   1.00
H1358  H     0.16672   0.97149   0.85464   0.00000  Uiso   1.00
N1359  N     0.16667   0.95069   0.75000   0.00000  Uiso   1.00
N1360  N     0.16667   0.71598   0.75000   0.00000  Uiso   1.00
O1361  O     0.10655   0.87291   0.74999   0.00000  Uiso   1.00
O1362  O     0.21299   0.95018   0.81224   0.00000  Uiso   1.00
O1363  O     0.22338   0.71596   0.80196   0.00000  Uiso   1.00
O1364  O     0.12021   0.95009   0.68788   0.00000  Uiso   1.00
O1365  O     0.20560   0.91011   0.52904   0.00000  Uiso   1.00
O1366  O     0.20725   0.76708   0.97918   0.00000  Uiso   1.00
O1367  O     0.12718   0.90957   0.97103   0.00000  Uiso   1.00
O1368  O     0.12720   0.76645   0.52068   0.00000  Uiso   1.00
O1369  O     0.22679   0.79375   0.75000   0.00000  Uiso   1.00
O1370  O     0.22679   0.87291   0.75000   0.00000  Uiso   1.00
O1371  O     0.10655   0.79375   0.74999   0.00000  Uiso   1.00
O1372  O     0.16666   0.87293   0.68573   0.00000  Uiso   1.00
O1373  O     0.16667   0.79374   0.81427   0.00000  Uiso   1.00
O1374  O     0.16667   0.87293   0.81427   0.00000  Uiso   1.00
O1375  O     0.16666   0.79374   0.68573   0.00000  Uiso   1.00
O1376  O     0.10984   0.71587   0.69817   0.00000  Uiso   1.00
C1377  C     0.42079   0.83352   0.75076   0.00000  Uiso   1.00
C1378  C     0.64531   0.87664   0.74955   0.00000  Uiso   1.00
C1379  C     0.64548   0.79251   0.74795   0.00000  Uiso   1.00
C1380  C     0.35468   0.87664   0.75009   0.00000  Uiso   1.00
C1381  C     0.52212   0.87176   0.54910   0.00000  Uiso   1.00
C1382  C     0.52257   0.80330   0.95508   0.00000  Uiso   1.00
C1383  C     0.47775   0.87149   0.95092   0.00000  Uiso   1.00
C1384  C     0.47810   0.80291   0.54484   0.00000  Uiso   1.00
C1385  C     0.52412   0.86848   0.59519   0.00000  Uiso   1.00
C1386  C     0.52299   0.80234   0.90918   0.00000  Uiso   1.00
C1387  C     0.47573   0.86821   0.90482   0.00000  Uiso   1.00
C1388  C     0.57921   0.83351   0.74923   0.00000  Uiso   1.00
C1389  C     0.47762   0.80191   0.59073   0.00000  Uiso   1.00
C1390  C     0.50096   0.83423   0.61645   0.00000  Uiso   1.00
C1391  C     0.49920   0.83427   0.88353   0.00000  Uiso   1.00
C1392  C     0.49975   0.83830   0.52404   0.00000  Uiso   1.00
C1393  C     0.50052   0.83834   0.97592   0.00000  Uiso   1.00
C1394  C     0.62385   0.83429   0.74854   0.00000  Uiso   1.00
C1395  C     0.37615   0.83430   0.75146   0.00000  Uiso   1.00
C1396  C     0.40310   0.69831   0.70359   0.00000  Uiso   1.00
C1397  C     0.53348   0.96319   0.85437   0.00000  Uiso   1.00
C1398  C     0.59681   0.69828   0.79694   0.00000  Uiso   1.00
C1399  C     0.50027   0.83343   0.66496   0.00000  Uiso   1.00
C1400  C     0.46599   0.96322   0.64564   0.00000  Uiso   1.00
C1401  C     0.57912   0.89970   0.51666   0.00000  Uiso   1.00
C1402  C     0.58093   0.77943   0.99377   0.00000  Uiso   1.00
C1403  C     0.42046   0.89857   0.98341   0.00000  Uiso   1.00
C1404  C     0.42004   0.77820   0.50608   0.00000  Uiso   1.00
C1405  C     0.49977   0.83344   0.83503   0.00000  Uiso   1.00
C1406  C     0.47230   0.69137   0.72346   0.00000  Uiso   1.00
C1407  C     0.52431   0.97493   0.77993   0.00000  Uiso   1.00
C1408  C     0.52768   0.69140   0.77657   0.00000  Uiso   1.00
C1409  C     0.47566   0.97490   0.72009   0.00000  Uiso   1.00
C1410  C     0.35453   0.79253   0.75243   0.00000  Uiso   1.00
Cl1411 Cl    0.55831   0.90600   0.62517   0.00000  Uiso   1.00
Cl1412 Cl    0.55615   0.76218   0.88560   0.00000  Uiso   1.00
Cl1413 Cl    0.44115   0.90528   0.87487   0.00000  Uiso   1.00
Cl1414 Cl    0.44499   0.76113   0.61419   0.00000  Uiso   1.00
Cu1415 Cu    0.50000   0.88022   0.75000   0.00000  Uiso   1.00
Cu1416 Cu    0.50000   0.78645   0.75000   0.00000  Uiso   1.00
H1417  H     0.37027   0.75989   0.75663   0.00000  Uiso   1.00
H1418  H     0.55149   0.99322   0.86757   0.00000  Uiso   1.00
H1419  H     0.61923   0.72518   0.80840   0.00000  Uiso   1.00
H1420  H     0.60248   0.68907   0.76212   0.00000  Uiso   1.00
H1421  H     0.60368   0.66813   0.81865   0.00000  Uiso   1.00
H1422  H     0.46029   0.93364   0.62272   0.00000  Uiso   1.00
H1423  H     0.49926   0.97229   0.64515   0.00000  Uiso   1.00
H1424  H     0.44738   0.99276   0.63242   0.00000  Uiso   1.00
H1425  H     0.57811   0.87919   0.98570   0.00000  Uiso   1.00
H1426  H     0.59780   0.88152   0.54311   0.00000  Uiso   1.00
H1427  H     0.59505   0.93282   0.50986   0.00000  Uiso   1.00
H1428  H     0.62924   0.90962   0.74957   0.00000  Uiso   1.00
H1429  H     0.58032   0.80052   0.52428   0.00000  Uiso   1.00
H1430  H     0.59814   0.79785   0.96816   0.00000  Uiso   1.00
H1431  H     0.59820   0.74715   0.50223   0.00000  Uiso   1.00
H1432  H     0.40196   0.88018   0.95693   0.00000  Uiso   1.00
H1433  H     0.42169   0.87801   0.51432   0.00000  Uiso   1.00
H1434  H     0.40417   0.93145   0.99027   0.00000  Uiso   1.00
H1435  H     0.42041   0.79937   0.97562   0.00000  Uiso   1.00
H1436  H     0.40260   0.79629   0.53172   0.00000  Uiso   1.00
H1437  H     0.40317   0.74568   0.99754   0.00000  Uiso   1.00
H1438  H     0.62975   0.75983   0.74405   0.00000  Uiso   1.00
H1439  H     0.37074   0.90962   0.74977   0.00000  Uiso   1.00
H1440  H     0.38066   0.72517   0.69213   0.00000  Uiso   1.00
H1441  H     0.39765   0.68937   0.73852   0.00000  Uiso   1.00
H1442  H     0.39606   0.66799   0.68215   0.00000  Uiso   1.00
H1443  H     0.53961   0.93383   0.87741   0.00000  Uiso   1.00
H1444  H     0.50005   0.97149   0.85464   0.00000  Uiso   1.00
N1445  N     0.50000   0.95069   0.75000   0.00000  Uiso   1.00
N1446  N     0.50000   0.71598   0.75000   0.00000  Uiso   1.00
O1447  O     0.43988   0.87291   0.74999   0.00000  Uiso   1.00
O1448  O     0.54632   0.95018   0.81224   0.00000  Uiso   1.00
O1449  O     0.55671   0.71596   0.80196   0.00000  Uiso   1.00
O1450  O     0.45354   0.95009   0.68788   0.00000  Uiso   1.00
O1451  O     0.53894   0.91011   0.52904   0.00000  Uiso   1.00
O1452  O     0.54058   0.76708   0.97918   0.00000  Uiso   1.00
O1453  O     0.46052   0.90957   0.97103   0.00000  Uiso   1.00
O1454  O     0.46053   0.76645   0.52068   0.00000  Uiso   1.00
O1455  O     0.56012   0.79375   0.75000   0.00000  Uiso   1.00
O1456  O     0.56012   0.87291   0.75000   0.00000  Uiso   1.00
O1457  O     0.43988   0.79375   0.74999   0.00000  Uiso   1.00
O1458  O     0.50000   0.87293   0.68573   0.00000  Uiso   1.00
O1459  O     0.50000   0.79374   0.81427   0.00000  Uiso   1.00
O1460  O     0.50000   0.87293   0.81427   0.00000  Uiso   1.00
O1461  O     0.50000   0.79374   0.68573   0.00000  Uiso   1.00
O1462  O     0.44317   0.71587   0.69817   0.00000  Uiso   1.00
C1463  C     0.75412   0.83352   0.75076   0.00000  Uiso   1.00
C1464  C     0.97864   0.87664   0.74955   0.00000  Uiso   1.00
C1465  C     0.97882   0.79251   0.74795   0.00000  Uiso   1.00
C1466  C     0.68802   0.87664   0.75009   0.00000  Uiso   1.00
C1467  C     0.85545   0.87176   0.54910   0.00000  Uiso   1.00
C1468  C     0.85590   0.80330   0.95508   0.00000  Uiso   1.00
C1469  C     0.81108   0.87149   0.95092   0.00000  Uiso   1.00
C1470  C     0.81143   0.80291   0.54484   0.00000  Uiso   1.00
C1471  C     0.85745   0.86848   0.59519   0.00000  Uiso   1.00
C1472  C     0.85633   0.80234   0.90918   0.00000  Uiso   1.00
C1473  C     0.80906   0.86821   0.90482   0.00000  Uiso   1.00
C1474  C     0.91254   0.83351   0.74923   0.00000  Uiso   1.00
C1475  C     0.81095   0.80191   0.59073   0.00000  Uiso   1.00
C1476  C     0.83429   0.83423   0.61645   0.00000  Uiso   1.00
C1477  C     0.83253   0.83427   0.88353   0.00000  Uiso   1.00
C1478  C     0.83309   0.83830   0.52404   0.00000  Uiso   1.00
C1479  C     0.83386   0.83834   0.97592   0.00000  Uiso   1.00
C1480  C     0.95718   0.83429   0.74854   0.00000  Uiso   1.00
C1481  C     0.70949   0.83430   0.75146   0.00000  Uiso   1.00
C1482  C     0.73643   0.69831   0.70359   0.00000  Uiso   1.00
C1483  C     0.86682   0.96319   0.85437   0.00000  Uiso   1.00
C1484  C     0.93015   0.69828   0.79694   0.00000  Uiso   1.00
C1485  C     0.83360   0.83343   0.66496   0.00000  Uiso   1.00
C1486  C     0.79933   0.96322   0.64564   0.00000  Uiso   1.00
C1487  C     0.91245   0.89970   0.51666   0.00000  Uiso   1.00
C1488  C     0.91427   0.77943   0.99377   0.00000  Uiso   1.00
C1489  C     0.75379   0.89857   0.98341   0.00000  Uiso   1.00
C1490  C     0.75337   0.77820   0.50608   0.00000  Uiso   1.00
C1491  C     0.83311   0.83344   0.83503   0.00000  Uiso   1.00
C1492  C     0.80563   0.69137   0.72346   0.00000  Uiso   1.00
C1493  C     0.85765   0.97493   0.77993   0.00000  Uiso   1.00
C1494  C     0.86101   0.69140   0.77657   0.00000  Uiso   1.00
C1495  C     0.80899   0.97490   0.72009   0.00000  Uiso   1.00
C1496  C     0.68786   0.79253   0.75243   0.00000  Uiso   1.00
Cl1497 Cl    0.89164   0.90600   0.62517   0.00000  Uiso   1.00
Cl1498 Cl    0.88948   0.76218   0.88560   0.00000  Uiso   1.00
Cl1499 Cl    0.77448   0.90528   0.87487   0.00000  Uiso   1.00
Cl1500 Cl    0.77832   0.76113   0.61419   0.00000  Uiso   1.00
Cu1501 Cu    0.83333   0.88022   0.75000   0.00000  Uiso   1.00
Cu1502 Cu    0.83333   0.78645   0.75000   0.00000  Uiso   1.00
H1503  H     0.70360   0.75989   0.75663   0.00000  Uiso   1.00
H1504  H     0.88482   0.99322   0.86757   0.00000  Uiso   1.00
H1505  H     0.95256   0.72518   0.80840   0.00000  Uiso   1.00
H1506  H     0.93581   0.68907   0.76212   0.00000  Uiso   1.00
H1507  H     0.93702   0.66813   0.81865   0.00000  Uiso   1.00
H1508  H     0.79362   0.93364   0.62272   0.00000  Uiso   1.00
H1509  H     0.83260   0.97229   0.64515   0.00000  Uiso   1.00
H1510  H     0.78071   0.99276   0.63242   0.00000  Uiso   1.00
H1511  H     0.91145   0.87919   0.98570   0.00000  Uiso   1.00
H1512  H     0.93114   0.88152   0.54311   0.00000  Uiso   1.00
H1513  H     0.92838   0.93282   0.50986   0.00000  Uiso   1.00
H1514  H     0.96257   0.90962   0.74957   0.00000  Uiso   1.00
H1515  H     0.91366   0.80052   0.52428   0.00000  Uiso   1.00
H1516  H     0.93147   0.79785   0.96816   0.00000  Uiso   1.00
H1517  H     0.93153   0.74715   0.50223   0.00000  Uiso   1.00
H1518  H     0.73529   0.88018   0.95693   0.00000  Uiso   1.00
H1519  H     0.75503   0.87801   0.51432   0.00000  Uiso   1.00
H1520  H     0.73750   0.93145   0.99027   0.00000  Uiso   1.00
H1521  H     0.75374   0.79937   0.97562   0.00000  Uiso   1.00
H1522  H     0.73593   0.79629   0.53172   0.00000  Uiso   1.00
H1523  H     0.73651   0.74568   0.99754   0.00000  Uiso   1.00
H1524  H     0.96308   0.75983   0.74405   0.00000  Uiso   1.00
H1525  H     0.70408   0.90962   0.74977   0.00000  Uiso   1.00
H1526  H     0.71399   0.72517   0.69213   0.00000  Uiso   1.00
H1527  H     0.73099   0.68937   0.73852   0.00000  Uiso   1.00
H1528  H     0.72939   0.66799   0.68215   0.00000  Uiso   1.00
H1529  H     0.87295   0.93383   0.87741   0.00000  Uiso   1.00
H1530  H     0.83339   0.97149   0.85464   0.00000  Uiso   1.00
N1531  N     0.83333   0.95069   0.75000   0.00000  Uiso   1.00
N1532  N     0.83333   0.71598   0.75000   0.00000  Uiso   1.00
O1533  O     0.77321   0.87291   0.74999   0.00000  Uiso   1.00
O1534  O     0.87965   0.95018   0.81224   0.00000  Uiso   1.00
O1535  O     0.89005   0.71596   0.80196   0.00000  Uiso   1.00
O1536  O     0.78687   0.95009   0.68788   0.00000  Uiso   1.00
O1537  O     0.87227   0.91011   0.52904   0.00000  Uiso   1.00
O1538  O     0.87391   0.76708   0.97918   0.00000  Uiso   1.00
O1539  O     0.79385   0.90957   0.97103   0.00000  Uiso   1.00
O1540  O     0.79387   0.76645   0.52068   0.00000  Uiso   1.00
O1541  O     0.89345   0.79375   0.75000   0.00000  Uiso   1.00
O1542  O     0.89345   0.87291   0.75000   0.00000  Uiso   1.00
O1543  O     0.77321   0.79375   0.74999   0.00000  Uiso   1.00
O1544  O     0.83333   0.87293   0.68573   0.00000  Uiso   1.00
O1545  O     0.83334   0.79374   0.81427   0.00000  Uiso   1.00
O1546  O     0.83334   0.87293   0.81427   0.00000  Uiso   1.00
O1547  O     0.83333   0.79374   0.68573   0.00000  Uiso   1.00
O1548  O     0.77651   0.71587   0.69817   0.00000  Uiso   1.00
loop_
_geom_bond_atom_site_label_1
_geom_bond_atom_site_label_2
_geom_bond_distance
_geom_bond_site_symmetry_2
_ccdc_geom_bond_type
C1     O71     1.293   .     A
C1     O81     1.302   .     A
C1     C19     1.453   .     S
C2     C18     1.404   .     A
C2     H52     1.083   .     S
C2     C90     1.388   .     S
C3     H62     1.074   .     S
C3     C18     1.394   .     A
C3     C120    1.378   .     S
C4     H63     1.083   .     S
C4     C19     1.404   .     A
C4     C174    1.388   1_455 S
C5     O75     1.386   .     S
C5     C16     1.407   .     A
C5     C9      1.401   .     A
C6     C17     1.406   .     A
C6     C10     1.395   .     A
C6     O76     1.387   .     S
C7     C11     1.401   .     A
C7     C17     1.407   .     A
C7     O77     1.386   .     S
C8     C13     1.395   .     A
C8     C16     1.405   .     A
C8     O78     1.387   .     S
C9     C14     1.415   .     A
C9     Cl35    1.769   .     S
C10    C15     1.411   .     A
C10    Cl36    1.757   .     S
C11    Cl37    1.769   .     S
C11    C15     1.415   .     A
C12    O79     1.302   .     A
C12    O80     1.293   .     A
C12    C18     1.453   .     S
C13    C14     1.411   .     A
C13    Cl38    1.757   .     S
C14    C23     1.475   .     S
C15    C29     1.474   .     S
C16    C791    1.463   1_554 S
C17    C790    1.463   .     S
C19    C34     1.394   .     A
C20    H66     1.106   .     S
C20    O86     1.415   .     S
C20    H65     1.114   .     S
C20    H64     1.107   .     S
C21    H67     1.109   .     S
C21    O72     1.415   .     S
C21    H68     1.114   .     S
C21    H42     1.108   .     S
C22    H44     1.114   .     S
C22    H43     1.107   .     S
C22    H45     1.106   .     S
C22    O73     1.415   .     S
C23    O82     1.300   .     A
C23    O85     1.305   .     A
C24    H48     1.108   .     S
C24    H47     1.114   .     S
C24    H46     1.109   .     S
C24    O74     1.416   .     S
C25    H50     1.114   .     S
C25    O75     1.410   .     S
C25    H51     1.109   .     S
C25    H823    1.109   1_554 S
C26    O76     1.410   .     S
C26    H54     1.114   .     S
C26    H827    1.108   .     S
C26    H829    1.109   .     S
C27    H56     1.114   .     S
C27    H58     1.109   .     S
C27    O77     1.410   .     S
C27    H831    1.109   .     S
C28    O78     1.410   .     S
C28    H60     1.114   .     S
C28    H833    1.108   1_554 S
C28    H835    1.109   1_554 S
C29    O83     1.305   .     A
C29    O84     1.300   .     A
C30    O86     1.383   .     S
C30    N70     1.375   .     A
C30    C549    1.441   1_545 S
C31    O72     1.384   .     S
C31    N69     1.366   .     A
C31    C290    1.441   .     S
C32    O73     1.383   .     S
C32    N70     1.375   .     A
C32    C547    1.441   1_545 S
C33    N69     1.366   .     A
C33    O74     1.384   .     S
C33    C288    1.441   .     S
C34    H41     1.074   .     S
C34    C175    1.378   1_455 S
Cu39   O84     1.963   .     S
Cu39   N69     2.028   .     S
Cu39   Cu40    2.698   .     S
Cu39   O82     1.963   .     S
Cu39   O80     1.967   .     S
Cu39   O71     1.967   .     S
Cu40   O85     1.963   .     S
Cu40   N70     2.028   .     S
Cu40   O83     1.963   .     S
Cu40   O79     1.967   .     S
Cu40   O81     1.967   .     S
H49    C799    1.109   .     S
H53    C800    1.108   1_554 S
H55    C800    1.109   1_554 S
H57    C801    1.109   1_554 S
H59    C802    1.108   .     S
H61    C802    1.109   .     S
C87    O157    1.293   .     A
C87    O167    1.302   .     A
C87    C105    1.453   .     S
C88    C104    1.404   .     A
C88    H138    1.083   .     S
C88    C176    1.388   .     S
C89    H148    1.074   .     S
C89    C104    1.394   .     A
C89    C206    1.378   .     S
C90    H149    1.083   .     S
C90    C105    1.404   .     A
C91    O161    1.386   .     S
C91    C102    1.407   .     A
C91    C95     1.401   .     A
C92    C103    1.406   .     A
C92    C96     1.395   .     A
C92    O162    1.387   .     S
C93    C97     1.401   .     A
C93    C103    1.407   .     A
C93    O163    1.386   .     S
C94    C99     1.395   .     A
C94    C102    1.405   .     A
C94    O164    1.387   .     S
C95    C100    1.415   .     A
C95    Cl121   1.769   .     S
C96    C101    1.411   .     A
C96    Cl122   1.757   .     S
C97    Cl123   1.769   .     S
C97    C101    1.415   .     A
C98    O165    1.302   .     A
C98    O166    1.293   .     A
C98    C104    1.453   .     S
C99    C100    1.411   .     A
C99    Cl124   1.757   .     S
C100   C109    1.475   .     S
C101   C115    1.474   .     S
C102   C877    1.463   1_554 S
C103   C876    1.463   .     S
C105   C120    1.394   .     A
C106   H152    1.106   .     S
C106   O172    1.415   .     S
C106   H151    1.114   .     S
C106   H150    1.107   .     S
C107   H153    1.109   .     S
C107   O158    1.415   .     S
C107   H154    1.114   .     S
C107   H128    1.108   .     S
C108   H130    1.114   .     S
C108   H129    1.107   .     S
C108   H131    1.106   .     S
C108   O159    1.415   .     S
C109   O168    1.300   .     A
C109   O171    1.305   .     A
C110   H134    1.108   .     S
C110   H133    1.114   .     S
C110   H132    1.109   .     S
C110   O160    1.416   .     S
C111   H136    1.114   .     S
C111   O161    1.410   .     S
C111   H137    1.109   .     S
C111   H909    1.109   1_554 S
C112   O162    1.410   .     S
C112   H140    1.114   .     S
C112   H913    1.108   .     S
C112   H915    1.109   .     S
C113   H142    1.114   .     S
C113   H144    1.109   .     S
C113   O163    1.410   .     S
C113   H917    1.109   .     S
C114   O164    1.410   .     S
C114   H146    1.114   .     S
C114   H919    1.108   1_554 S
C114   H921    1.109   1_554 S
C115   O169    1.305   .     A
C115   O170    1.300   .     A
C116   O172    1.383   .     S
C116   N156    1.375   .     A
C116   C635    1.441   1_545 S
C117   O158    1.384   .     S
C117   N155    1.366   .     A
C117   C376    1.441   .     S
C118   O159    1.383   .     S
C118   N156    1.375   .     A
C118   C633    1.441   1_545 S
C119   N155    1.366   .     A
C119   O160    1.384   .     S
C119   C374    1.441   .     S
C120   H127    1.074   .     S
Cu125  O170    1.963   .     S
Cu125  N155    2.028   .     S
Cu125  Cu126   2.698   .     S
Cu125  O168    1.963   .     S
Cu125  O166    1.967   .     S
Cu125  O157    1.967   .     S
Cu126  O171    1.963   .     S
Cu126  N156    2.028   .     S
Cu126  O169    1.963   .     S
Cu126  O165    1.967   .     S
Cu126  O167    1.967   .     S
H135   C885    1.109   .     S
H139   C886    1.108   1_554 S
H141   C886    1.109   1_554 S
H143   C887    1.109   1_554 S
H145   C888    1.108   .     S
H147   C888    1.109   .     S
C173   O243    1.293   .     A
C173   O253    1.302   .     A
C173   C191    1.453   .     S
C174   C190    1.404   .     A
C174   H224    1.083   .     S
C174   C4      1.388   1_655 S
C175   H234    1.074   .     S
C175   C190    1.394   .     A
C175   C34     1.378   1_655 S
C176   H235    1.083   .     S
C176   C191    1.404   .     A
C177   O247    1.386   .     S
C177   C188    1.407   .     A
C177   C181    1.401   .     A
C178   C189    1.406   .     A
C178   C182    1.395   .     A
C178   O248    1.387   .     S
C179   C183    1.401   .     A
C179   C189    1.407   .     A
C179   O249    1.386   .     S
C180   C185    1.395   .     A
C180   C188    1.405   .     A
C180   O250    1.387   .     S
C181   C186    1.415   .     A
C181   Cl207   1.769   .     S
C182   C187    1.411   .     A
C182   Cl208   1.757   .     S
C183   Cl209   1.769   .     S
C183   C187    1.415   .     A
C184   O251    1.302   .     A
C184   O252    1.293   .     A
C184   C190    1.453   .     S
C185   C186    1.411   .     A
C185   Cl210   1.757   .     S
C186   C195    1.475   .     S
C187   C201    1.474   .     S
C188   C963    1.463   1_554 S
C189   C962    1.463   .     S
C191   C206    1.394   .     A
C192   H238    1.106   .     S
C192   O258    1.415   .     S
C192   H237    1.114   .     S
C192   H236    1.107   .     S
C193   H239    1.109   .     S
C193   O244    1.415   .     S
C193   H240    1.114   .     S
C193   H214    1.108   .     S
C194   H216    1.114   .     S
C194   H215    1.107   .     S
C194   H217    1.106   .     S
C194   O245    1.415   .     S
C195   O254    1.300   .     A
C195   O257    1.305   .     A
C196   H220    1.108   .     S
C196   H219    1.114   .     S
C196   H218    1.109   .     S
C196   O246    1.416   .     S
C197   H222    1.114   .     S
C197   O247    1.410   .     S
C197   H223    1.109   .     S
C197   H995    1.109   1_554 S
C198   O248    1.410   .     S
C198   H226    1.114   .     S
C198   H999    1.108   .     S
C198   H1001   1.109   .     S
C199   H228    1.114   .     S
C199   H230    1.109   .     S
C199   O249    1.410   .     S
C199   H1003   1.109   .     S
C200   O250    1.410   .     S
C200   H232    1.114   .     S
C200   H1005   1.108   1_554 S
C200   H1007   1.109   1_554 S
C201   O255    1.305   .     A
C201   O256    1.300   .     A
C202   O258    1.383   .     S
C202   N242    1.375   .     A
C202   C721    1.441   1_545 S
C203   O244    1.384   .     S
C203   N241    1.366   .     A
C203   C462    1.441   .     S
C204   O245    1.383   .     S
C204   N242    1.375   .     A
C204   C719    1.441   1_545 S
C205   N241    1.366   .     A
C205   O246    1.384   .     S
C205   C460    1.441   .     S
C206   H213    1.074   .     S
Cu211  O256    1.963   .     S
Cu211  N241    2.028   .     S
Cu211  Cu212   2.698   .     S
Cu211  O254    1.963   .     S
Cu211  O252    1.967   .     S
Cu211  O243    1.967   .     S
Cu212  O257    1.963   .     S
Cu212  N242    2.028   .     S
Cu212  O255    1.963   .     S
Cu212  O251    1.967   .     S
Cu212  O253    1.967   .     S
H221   C971    1.109   .     S
H225   C972    1.108   1_554 S
H227   C972    1.109   1_554 S
H229   C973    1.109   1_554 S
H231   C974    1.108   .     S
H233   C974    1.109   .     S
C259   O329    1.293   .     A
C259   O339    1.302   .     A
C259   C277    1.453   .     S
C260   C276    1.404   .     A
C260   H310    1.083   .     S
C260   C348    1.388   .     S
C261   H320    1.074   .     S
C261   C276    1.394   .     A
C261   C378    1.378   .     S
C262   H321    1.083   .     S
C262   C277    1.404   .     A
C262   C432    1.388   1_455 S
C263   O333    1.386   .     S
C263   C274    1.407   .     A
C263   C267    1.401   .     A
C264   C275    1.406   .     A
C264   C268    1.395   .     A
C264   O334    1.387   .     S
C265   C269    1.401   .     A
C265   C275    1.407   .     A
C265   O335    1.386   .     S
C266   C271    1.395   .     A
C266   C274    1.405   .     A
C266   O336    1.387   .     S
C267   C272    1.415   .     A
C267   Cl293   1.769   .     S
C268   C273    1.411   .     A
C268   Cl294   1.757   .     S
C269   Cl295   1.769   .     S
C269   C273    1.415   .     A
C270   O337    1.302   .     A
C270   O338    1.293   .     A
C270   C276    1.453   .     S
C271   C272    1.411   .     A
C271   Cl296   1.757   .     S
C272   C281    1.475   .     S
C273   C287    1.474   .     S
C274   C1049   1.463   1_554 S
C275   C1048   1.463   .     S
C277   C292    1.394   .     A
C278   H324    1.106   .     S
C278   O344    1.415   .     S
C278   H323    1.114   .     S
C278   H322    1.107   .     S
C279   H325    1.109   .     S
C279   O330    1.415   .     S
C279   H326    1.114   .     S
C279   H300    1.108   .     S
C280   H302    1.114   .     S
C280   H301    1.107   .     S
C280   H303    1.106   .     S
C280   O331    1.415   .     S
C281   O340    1.300   .     A
C281   O343    1.305   .     A
C282   H306    1.108   .     S
C282   H305    1.114   .     S
C282   H304    1.109   .     S
C282   O332    1.416   .     S
C283   H308    1.114   .     S
C283   O333    1.410   .     S
C283   H309    1.109   .     S
C283   H1081   1.109   1_554 S
C284   O334    1.410   .     S
C284   H312    1.114   .     S
C284   H1085   1.108   .     S
C284   H1087   1.109   .     S
C285   H314    1.114   .     S
C285   H316    1.109   .     S
C285   O335    1.410   .     S
C285   H1089   1.109   .     S
C286   O336    1.410   .     S
C286   H318    1.114   .     S
C286   H1091   1.108   1_554 S
C286   H1093   1.109   1_554 S
C287   O341    1.305   .     A
C287   O342    1.300   .     A
C288   O344    1.383   .     S
C288   N328    1.375   .     A
C289   O330    1.384   .     S
C289   N327    1.366   .     A
C289   C548    1.441   .     S
C290   O331    1.383   .     S
C290   N328    1.375   .     A
C291   N327    1.366   .     A
C291   O332    1.384   .     S
C291   C546    1.441   .     S
C292   H299    1.074   .     S
C292   C433    1.378   1_455 S
Cu297  O342    1.963   .     S
Cu297  N327    2.028   .     S
Cu297  Cu298   2.698   .     S
Cu297  O340    1.963   .     S
Cu297  O338    1.967   .     S
Cu297  O329    1.967   .     S
Cu298  O343    1.963   .     S
Cu298  N328    2.028   .     S
Cu298  O341    1.963   .     S
Cu298  O337    1.967   .     S
Cu298  O339    1.967   .     S
H307   C1057   1.109   .     S
H311   C1058   1.108   1_554 S
H313   C1058   1.109   1_554 S
H315   C1059   1.109   1_554 S
H317   C1060   1.108   .     S
H319   C1060   1.109   .     S
C345   O415    1.293   .     A
C345   O425    1.302   .     A
C345   C363    1.453   .     S
C346   C362    1.404   .     A
C346   H396    1.083   .     S
C346   C434    1.388   .     S
C347   H406    1.074   .     S
C347   C362    1.394   .     A
C347   C464    1.378   .     S
C348   H407    1.083   .     S
C348   C363    1.404   .     A
C349   O419    1.386   .     S
C349   C360    1.407   .     A
C349   C353    1.401   .     A
C350   C361    1.406   .     A
C350   C354    1.395   .     A
C350   O420    1.387   .     S
C351   C355    1.401   .     A
C351   C361    1.407   .     A
C351   O421    1.386   .     S
C352   C357    1.395   .     A
C352   C360    1.405   .     A
C352   O422    1.387   .     S
C353   C358    1.415   .     A
C353   Cl379   1.769   .     S
C354   C359    1.411   .     A
C354   Cl380   1.757   .     S
C355   Cl381   1.769   .     S
C355   C359    1.415   .     A
C356   O423    1.302   .     A
C356   O424    1.293   .     A
C356   C362    1.453   .     S
C357   C358    1.411   .     A
C357   Cl382   1.757   .     S
C358   C367    1.475   .     S
C359   C373    1.474   .     S
C360   C1135   1.463   1_554 S
C361   C1134   1.463   .     S
C363   C378    1.394   .     A
C364   H410    1.106   .     S
C364   O430    1.415   .     S
C364   H409    1.114   .     S
C364   H408    1.107   .     S
C365   H411    1.109   .     S
C365   O416    1.415   .     S
C365   H412    1.114   .     S
C365   H386    1.108   .     S
C366   H388    1.114   .     S
C366   H387    1.107   .     S
C366   H389    1.106   .     S
C366   O417    1.415   .     S
C367   O426    1.300   .     A
C367   O429    1.305   .     A
C368   H392    1.108   .     S
C368   H391    1.114   .     S
C368   H390    1.109   .     S
C368   O418    1.416   .     S
C369   H394    1.114   .     S
C369   O419    1.410   .     S
C369   H395    1.109   .     S
C369   H1167   1.109   1_554 S
C370   O420    1.410   .     S
C370   H398    1.114   .     S
C370   H1171   1.108   .     S
C370   H1173   1.109   .     S
C371   H400    1.114   .     S
C371   H402    1.109   .     S
C371   O421    1.410   .     S
C371   H1175   1.109   .     S
C372   O422    1.410   .     S
C372   H404    1.114   .     S
C372   H1177   1.108   1_554 S
C372   H1179   1.109   1_554 S
C373   O427    1.305   .     A
C373   O428    1.300   .     A
C374   O430    1.383   .     S
C374   N414    1.375   .     A
C375   O416    1.384   .     S
C375   N413    1.366   .     A
C375   C634    1.441   .     S
C376   O417    1.383   .     S
C376   N414    1.375   .     A
C377   N413    1.366   .     A
C377   O418    1.384   .     S
C377   C632    1.441   .     S
C378   H385    1.074   .     S
Cu383  O428    1.963   .     S
Cu383  N413    2.028   .     S
Cu383  Cu384   2.698   .     S
Cu383  O426    1.963   .     S
Cu383  O424    1.967   .     S
Cu383  O415    1.967   .     S
Cu384  O429    1.963   .     S
Cu384  N414    2.028   .     S
Cu384  O427    1.963   .     S
Cu384  O423    1.967   .     S
Cu384  O425    1.967   .     S
H393   C1143   1.109   .     S
H397   C1144   1.108   1_554 S
H399   C1144   1.109   1_554 S
H401   C1145   1.109   1_554 S
H403   C1146   1.108   .     S
H405   C1146   1.109   .     S
C431   O501    1.293   .     A
C431   O511    1.302   .     A
C431   C449    1.453   .     S
C432   C448    1.404   .     A
C432   H482    1.083   .     S
C432   C262    1.388   1_655 S
C433   H492    1.074   .     S
C433   C448    1.394   .     A
C433   C292    1.378   1_655 S
C434   H493    1.083   .     S
C434   C449    1.404   .     A
C435   O505    1.386   .     S
C435   C446    1.407   .     A
C435   C439    1.401   .     A
C436   C447    1.406   .     A
C436   C440    1.395   .     A
C436   O506    1.387   .     S
C437   C441    1.401   .     A
C437   C447    1.407   .     A
C437   O507    1.386   .     S
C438   C443    1.395   .     A
C438   C446    1.405   .     A
C438   O508    1.387   .     S
C439   C444    1.415   .     A
C439   Cl465   1.769   .     S
C440   C445    1.411   .     A
C440   Cl466   1.757   .     S
C441   Cl467   1.769   .     S
C441   C445    1.415   .     A
C442   O509    1.302   .     A
C442   O510    1.293   .     A
C442   C448    1.453   .     S
C443   C444    1.411   .     A
C443   Cl468   1.757   .     S
C444   C453    1.475   .     S
C445   C459    1.474   .     S
C446   C1221   1.463   1_554 S
C447   C1220   1.463   .     S
C449   C464    1.394   .     A
C450   H496    1.106   .     S
C450   O516    1.415   .     S
C450   H495    1.114   .     S
C450   H494    1.107   .     S
C451   H497    1.109   .     S
C451   O502    1.415   .     S
C451   H498    1.114   .     S
C451   H472    1.108   .     S
C452   H474    1.114   .     S
C452   H473    1.107   .     S
C452   H475    1.106   .     S
C452   O503    1.415   .     S
C453   O512    1.300   .     A
C453   O515    1.305   .     A
C454   H478    1.108   .     S
C454   H477    1.114   .     S
C454   H476    1.109   .     S
C454   O504    1.416   .     S
C455   H480    1.114   .     S
C455   O505    1.410   .     S
C455   H481    1.109   .     S
C455   H1253   1.109   1_554 S
C456   O506    1.410   .     S
C456   H484    1.114   .     S
C456   H1257   1.108   .     S
C456   H1259   1.109   .     S
C457   H486    1.114   .     S
C457   H488    1.109   .     S
C457   O507    1.410   .     S
C457   H1261   1.109   .     S
C458   O508    1.410   .     S
C458   H490    1.114   .     S
C458   H1263   1.108   1_554 S
C458   H1265   1.109   1_554 S
C459   O513    1.305   .     A
C459   O514    1.300   .     A
C460   O516    1.383   .     S
C460   N500    1.375   .     A
C461   O502    1.384   .     S
C461   N499    1.366   .     A
C461   C720    1.441   .     S
C462   O503    1.383   .     S
C462   N500    1.375   .     A
C463   N499    1.366   .     A
C463   O504    1.384   .     S
C463   C718    1.441   .     S
C464   H471    1.074   .     S
Cu469  O514    1.963   .     S
Cu469  N499    2.028   .     S
Cu469  Cu470   2.698   .     S
Cu469  O512    1.963   .     S
Cu469  O510    1.967   .     S
Cu469  O501    1.967   .     S
Cu470  O515    1.963   .     S
Cu470  N500    2.028   .     S
Cu470  O513    1.963   .     S
Cu470  O509    1.967   .     S
Cu470  O511    1.967   .     S
H479   C1229   1.109   .     S
H483   C1230   1.108   1_554 S
H485   C1230   1.109   1_554 S
H487   C1231   1.109   1_554 S
H489   C1232   1.108   .     S
H491   C1232   1.109   .     S
C517   O587    1.293   .     A
C517   O597    1.302   .     A
C517   C535    1.453   .     S
C518   C534    1.404   .     A
C518   H568    1.083   .     S
C518   C606    1.388   .     S
C519   H578    1.074   .     S
C519   C534    1.394   .     A
C519   C636    1.378   .     S
C520   H579    1.083   .     S
C520   C535    1.404   .     A
C520   C690    1.388   1_455 S
C521   O591    1.386   .     S
C521   C532    1.407   .     A
C521   C525    1.401   .     A
C522   C533    1.406   .     A
C522   C526    1.395   .     A
C522   O592    1.387   .     S
C523   C527    1.401   .     A
C523   C533    1.407   .     A
C523   O593    1.386   .     S
C524   C529    1.395   .     A
C524   C532    1.405   .     A
C524   O594    1.387   .     S
C525   C530    1.415   .     A
C525   Cl551   1.769   .     S
C526   C531    1.411   .     A
C526   Cl552   1.757   .     S
C527   Cl553   1.769   .     S
C527   C531    1.415   .     A
C528   O595    1.302   .     A
C528   O596    1.293   .     A
C528   C534    1.453   .     S
C529   C530    1.411   .     A
C529   Cl554   1.757   .     S
C530   C539    1.475   .     S
C531   C545    1.474   .     S
C532   C1307   1.463   1_554 S
C533   C1306   1.463   .     S
C535   C550    1.394   .     A
C536   H582    1.106   .     S
C536   O602    1.415   .     S
C536   H581    1.114   .     S
C536   H580    1.107   .     S
C537   H583    1.109   .     S
C537   O588    1.415   .     S
C537   H584    1.114   .     S
C537   H558    1.108   .     S
C538   H560    1.114   .     S
C538   H559    1.107   .     S
C538   H561    1.106   .     S
C538   O589    1.415   .     S
C539   O598    1.300   .     A
C539   O601    1.305   .     A
C540   H564    1.108   .     S
C540   H563    1.114   .     S
C540   H562    1.109   .     S
C540   O590    1.416   .     S
C541   H566    1.114   .     S
C541   O591    1.410   .     S
C541   H567    1.109   .     S
C541   H1339   1.109   1_554 S
C542   O592    1.410   .     S
C542   H570    1.114   .     S
C542   H1343   1.108   .     S
C542   H1345   1.109   .     S
C543   H572    1.114   .     S
C543   H574    1.109   .     S
C543   O593    1.410   .     S
C543   H1347   1.109   .     S
C544   O594    1.410   .     S
C544   H576    1.114   .     S
C544   H1349   1.108   1_554 S
C544   H1351   1.109   1_554 S
C545   O599    1.305   .     A
C545   O600    1.300   .     A
C546   O602    1.383   .     S
C546   N586    1.375   .     A
C547   O588    1.384   .     S
C547   N585    1.366   .     A
C547   C32     1.441   1_565 S
C548   O589    1.383   .     S
C548   N586    1.375   .     A
C549   N585    1.366   .     A
C549   O590    1.384   .     S
C549   C30     1.441   1_565 S
C550   H557    1.074   .     S
C550   C691    1.378   1_455 S
Cu555  O600    1.963   .     S
Cu555  N585    2.028   .     S
Cu555  Cu556   2.698   .     S
Cu555  O598    1.963   .     S
Cu555  O596    1.967   .     S
Cu555  O587    1.967   .     S
Cu556  O601    1.963   .     S
Cu556  N586    2.028   .     S
Cu556  O599    1.963   .     S
Cu556  O595    1.967   .     S
Cu556  O597    1.967   .     S
H565   C1315   1.109   .     S
H569   C1316   1.108   1_554 S
H571   C1316   1.109   1_554 S
H573   C1317   1.109   1_554 S
H575   C1318   1.108   .     S
H577   C1318   1.109   .     S
C603   O673    1.293   .     A
C603   O683    1.302   .     A
C603   C621    1.453   .     S
C604   C620    1.404   .     A
C604   H654    1.083   .     S
C604   C692    1.388   .     S
C605   H664    1.074   .     S
C605   C620    1.394   .     A
C605   C722    1.378   .     S
C606   H665    1.083   .     S
C606   C621    1.404   .     A
C607   O677    1.386   .     S
C607   C618    1.407   .     A
C607   C611    1.401   .     A
C608   C619    1.406   .     A
C608   C612    1.395   .     A
C608   O678    1.387   .     S
C609   C613    1.401   .     A
C609   C619    1.407   .     A
C609   O679    1.386   .     S
C610   C615    1.395   .     A
C610   C618    1.405   .     A
C610   O680    1.387   .     S
C611   C616    1.415   .     A
C611   Cl637   1.769   .     S
C612   C617    1.411   .     A
C612   Cl638   1.757   .     S
C613   Cl639   1.769   .     S
C613   C617    1.415   .     A
C614   O681    1.302   .     A
C614   O682    1.293   .     A
C614   C620    1.453   .     S
C615   C616    1.411   .     A
C615   Cl640   1.757   .     S
C616   C625    1.475   .     S
C617   C631    1.474   .     S
C618   C1393   1.463   1_554 S
C619   C1392   1.463   .     S
C621   C636    1.394   .     A
C622   H668    1.106   .     S
C622   O688    1.415   .     S
C622   H667    1.114   .     S
C622   H666    1.107   .     S
C623   H669    1.109   .     S
C623   O674    1.415   .     S
C623   H670    1.114   .     S
C623   H644    1.108   .     S
C624   H646    1.114   .     S
C624   H645    1.107   .     S
C624   H647    1.106   .     S
C624   O675    1.415   .     S
C625   O684    1.300   .     A
C625   O687    1.305   .     A
C626   H650    1.108   .     S
C626   H649    1.114   .     S
C626   H648    1.109   .     S
C626   O676    1.416   .     S
C627   H652    1.114   .     S
C627   O677    1.410   .     S
C627   H653    1.109   .     S
C627   H1425   1.109   1_554 S
C628   O678    1.410   .     S
C628   H656    1.114   .     S
C628   H1429   1.108   .     S
C628   H1431   1.109   .     S
C629   H658    1.114   .     S
C629   H660    1.109   .     S
C629   O679    1.410   .     S
C629   H1433   1.109   .     S
C630   O680    1.410   .     S
C630   H662    1.114   .     S
C630   H1435   1.108   1_554 S
C630   H1437   1.109   1_554 S
C631   O685    1.305   .     A
C631   O686    1.300   .     A
C632   O688    1.383   .     S
C632   N672    1.375   .     A
C633   O674    1.384   .     S
C633   N671    1.366   .     A
C633   C118    1.441   1_565 S
C634   O675    1.383   .     S
C634   N672    1.375   .     A
C635   N671    1.366   .     A
C635   O676    1.384   .     S
C635   C116    1.441   1_565 S
C636   H643    1.074   .     S
Cu641  O686    1.963   .     S
Cu641  N671    2.028   .     S
Cu641  Cu642   2.698   .     S
Cu641  O684    1.963   .     S
Cu641  O682    1.967   .     S
Cu641  O673    1.967   .     S
Cu642  O687    1.963   .     S
Cu642  N672    2.028   .     S
Cu642  O685    1.963   .     S
Cu642  O681    1.967   .     S
Cu642  O683    1.967   .     S
H651   C1401   1.109   .     S
H655   C1402   1.108   1_554 S
H657   C1402   1.109   1_554 S
H659   C1403   1.109   1_554 S
H661   C1404   1.108   .     S
H663   C1404   1.109   .     S
C689   O759    1.293   .     A
C689   O769    1.302   .     A
C689   C707    1.453   .     S
C690   C706    1.404   .     A
C690   H740    1.083   .     S
C690   C520    1.388   1_655 S
C691   H750    1.074   .     S
C691   C706    1.394   .     A
C691   C550    1.378   1_655 S
C692   H751    1.083   .     S
C692   C707    1.404   .     A
C693   O763    1.386   .     S
C693   C704    1.407   .     A
C693   C697    1.401   .     A
C694   C705    1.406   .     A
C694   C698    1.395   .     A
C694   O764    1.387   .     S
C695   C699    1.401   .     A
C695   C705    1.407   .     A
C695   O765    1.386   .     S
C696   C701    1.395   .     A
C696   C704    1.405   .     A
C696   O766    1.387   .     S
C697   C702    1.415   .     A
C697   Cl723   1.769   .     S
C698   C703    1.411   .     A
C698   Cl724   1.757   .     S
C699   Cl725   1.769   .     S
C699   C703    1.415   .     A
C700   O767    1.302   .     A
C700   O768    1.293   .     A
C700   C706    1.453   .     S
C701   C702    1.411   .     A
C701   Cl726   1.757   .     S
C702   C711    1.475   .     S
C703   C717    1.474   .     S
C704   C1479   1.463   1_554 S
C705   C1478   1.463   .     S
C707   C722    1.394   .     A
C708   H754    1.106   .     S
C708   O774    1.415   .     S
C708   H753    1.114   .     S
C708   H752    1.107   .     S
C709   H755    1.109   .     S
C709   O760    1.415   .     S
C709   H756    1.114   .     S
C709   H730    1.108   .     S
C710   H732    1.114   .     S
C710   H731    1.107   .     S
C710   H733    1.106   .     S
C710   O761    1.415   .     S
C711   O770    1.300   .     A
C711   O773    1.305   .     A
C712   H736    1.108   .     S
C712   H735    1.114   .     S
C712   H734    1.109   .     S
C712   O762    1.416   .     S
C713   H738    1.114   .     S
C713   O763    1.410   .     S
C713   H739    1.109   .     S
C713   H1511   1.109   1_554 S
C714   O764    1.410   .     S
C714   H742    1.114   .     S
C714   H1515   1.108   .     S
C714   H1517   1.109   .     S
C715   H744    1.114   .     S
C715   H746    1.109   .     S
C715   O765    1.410   .     S
C715   H1519   1.109   .     S
C716   O766    1.410   .     S
C716   H748    1.114   .     S
C716   H1521   1.108   1_554 S
C716   H1523   1.109   1_554 S
C717   O771    1.305   .     A
C717   O772    1.300   .     A
C718   O774    1.383   .     S
C718   N758    1.375   .     A
C719   O760    1.384   .     S
C719   N757    1.366   .     A
C719   C204    1.441   1_565 S
C720   O761    1.383   .     S
C720   N758    1.375   .     A
C721   N757    1.366   .     A
C721   O762    1.384   .     S
C721   C202    1.441   1_565 S
C722   H729    1.074   .     S
Cu727  O772    1.963   .     S
Cu727  N757    2.028   .     S
Cu727  Cu728   2.698   .     S
Cu727  O770    1.963   .     S
Cu727  O768    1.967   .     S
Cu727  O759    1.967   .     S
Cu728  O773    1.963   .     S
Cu728  N758    2.028   .     S
Cu728  O771    1.963   .     S
Cu728  O767    1.967   .     S
Cu728  O769    1.967   .     S
H737   C1487   1.109   .     S
H741   C1488   1.108   1_554 S
H743   C1488   1.109   1_554 S
H745   C1489   1.109   1_554 S
H747   C1490   1.108   .     S
H749   C1490   1.109   .     S
C775   O845    1.293   .     A
C775   O855    1.302   .     A
C775   C793    1.453   .     S
C776   C792    1.404   .     A
C776   H826    1.083   .     S
C776   C864    1.388   .     S
C777   H836    1.074   .     S
C777   C792    1.394   .     A
C777   C894    1.378   .     S
C778   H837    1.083   .     S
C778   C793    1.404   .     A
C778   C948    1.388   1_455 S
C779   O849    1.386   .     S
C779   C790    1.407   .     A
C779   C783    1.401   .     A
C780   C791    1.406   .     A
C780   C784    1.395   .     A
C780   O850    1.387   .     S
C781   C785    1.401   .     A
C781   C791    1.407   .     A
C781   O851    1.386   .     S
C782   C787    1.395   .     A
C782   C790    1.405   .     A
C782   O852    1.387   .     S
C783   C788    1.415   .     A
C783   Cl809   1.769   .     S
C784   C789    1.411   .     A
C784   Cl810   1.757   .     S
C785   Cl811   1.769   .     S
C785   C789    1.415   .     A
C786   O853    1.302   .     A
C786   O854    1.293   .     A
C786   C792    1.453   .     S
C787   C788    1.411   .     A
C787   Cl812   1.757   .     S
C788   C797    1.475   .     S
C789   C803    1.474   .     S
C791   C16     1.463   1_556 S
C793   C808    1.394   .     A
C794   H840    1.106   .     S
C794   O860    1.415   .     S
C794   H839    1.114   .     S
C794   H838    1.107   .     S
C795   H841    1.109   .     S
C795   O846    1.415   .     S
C795   H842    1.114   .     S
C795   H816    1.108   .     S
C796   H818    1.114   .     S
C796   H817    1.107   .     S
C796   H819    1.106   .     S
C796   O847    1.415   .     S
C797   O856    1.300   .     A
C797   O859    1.305   .     A
C798   H822    1.108   .     S
C798   H821    1.114   .     S
C798   H820    1.109   .     S
C798   O848    1.416   .     S
C799   H824    1.114   .     S
C799   O849    1.410   .     S
C799   H825    1.109   .     S
C800   O850    1.410   .     S
C800   H828    1.114   .     S
C800   H53     1.108   1_556 S
C800   H55     1.109   1_556 S
C801   H830    1.114   .     S
C801   H832    1.109   .     S
C801   O851    1.410   .     S
C801   H57     1.109   1_556 S
C802   O852    1.410   .     S
C802   H834    1.114   .     S
C803   O857    1.305   .     A
C803   O858    1.300   .     A
C804   O860    1.383   .     S
C804   N844    1.375   .     A
C804   C1323   1.441   1_545 S
C805   O846    1.384   .     S
C805   N843    1.366   .     A
C805   C1064   1.441   .     S
C806   O847    1.383   .     S
C806   N844    1.375   .     A
C806   C1321   1.441   1_545 S
C807   N843    1.366   .     A
C807   O848    1.384   .     S
C807   C1062   1.441   .     S
C808   H815    1.074   .     S
C808   C949    1.378   1_455 S
Cu813  O858    1.963   .     S
Cu813  N843    2.028   .     S
Cu813  Cu814   2.698   .     S
Cu813  O856    1.963   .     S
Cu813  O854    1.967   .     S
Cu813  O845    1.967   .     S
Cu814  O859    1.963   .     S
Cu814  N844    2.028   .     S
Cu814  O857    1.963   .     S
Cu814  O853    1.967   .     S
Cu814  O855    1.967   .     S
H823   C25     1.109   1_556 S
H833   C28     1.108   1_556 S
H835   C28     1.109   1_556 S
C861   O931    1.293   .     A
C861   O941    1.302   .     A
C861   C879    1.453   .     S
C862   C878    1.404   .     A
C862   H912    1.083   .     S
C862   C950    1.388   .     S
C863   H922    1.074   .     S
C863   C878    1.394   .     A
C863   C980    1.378   .     S
C864   H923    1.083   .     S
C864   C879    1.404   .     A
C865   O935    1.386   .     S
C865   C876    1.407   .     A
C865   C869    1.401   .     A
C866   C877    1.406   .     A
C866   C870    1.395   .     A
C866   O936    1.387   .     S
C867   C871    1.401   .     A
C867   C877    1.407   .     A
C867   O937    1.386   .     S
C868   C873    1.395   .     A
C868   C876    1.405   .     A
C868   O938    1.387   .     S
C869   C874    1.415   .     A
C869   Cl895   1.769   .     S
C870   C875    1.411   .     A
C870   Cl896   1.757   .     S
C871   Cl897   1.769   .     S
C871   C875    1.415   .     A
C872   O939    1.302   .     A
C872   O940    1.293   .     A
C872   C878    1.453   .     S
C873   C874    1.411   .     A
C873   Cl898   1.757   .     S
C874   C883    1.475   .     S
C875   C889    1.474   .     S
C877   C102    1.463   1_556 S
C879   C894    1.394   .     A
C880   H926    1.106   .     S
C880   O946    1.415   .     S
C880   H925    1.114   .     S
C880   H924    1.107   .     S
C881   H927    1.109   .     S
C881   O932    1.415   .     S
C881   H928    1.114   .     S
C881   H902    1.108   .     S
C882   H904    1.114   .     S
C882   H903    1.107   .     S
C882   H905    1.106   .     S
C882   O933    1.415   .     S
C883   O942    1.300   .     A
C883   O945    1.305   .     A
C884   H908    1.108   .     S
C884   H907    1.114   .     S
C884   H906    1.109   .     S
C884   O934    1.416   .     S
C885   H910    1.114   .     S
C885   O935    1.410   .     S
C885   H911    1.109   .     S
C886   O936    1.410   .     S
C886   H914    1.114   .     S
C886   H139    1.108   1_556 S
C886   H141    1.109   1_556 S
C887   H916    1.114   .     S
C887   H918    1.109   .     S
C887   O937    1.410   .     S
C887   H143    1.109   1_556 S
C888   O938    1.410   .     S
C888   H920    1.114   .     S
C889   O943    1.305   .     A
C889   O944    1.300   .     A
C890   O946    1.383   .     S
C890   N930    1.375   .     A
C890   C1409   1.441   1_545 S
C891   O932    1.384   .     S
C891   N929    1.366   .     A
C891   C1150   1.441   .     S
C892   O933    1.383   .     S
C892   N930    1.375   .     A
C892   C1407   1.441   1_545 S
C893   N929    1.366   .     A
C893   O934    1.384   .     S
C893   C1148   1.441   .     S
C894   H901    1.074   .     S
Cu899  O944    1.963   .     S
Cu899  N929    2.028   .     S
Cu899  Cu900   2.698   .     S
Cu899  O942    1.963   .     S
Cu899  O940    1.967   .     S
Cu899  O931    1.967   .     S
Cu900  O945    1.963   .     S
Cu900  N930    2.028   .     S
Cu900  O943    1.963   .     S
Cu900  O939    1.967   .     S
Cu900  O941    1.967   .     S
H909   C111    1.109   1_556 S
H919   C114    1.108   1_556 S
H921   C114    1.109   1_556 S
C947   O1017   1.293   .     A
C947   O1027   1.302   .     A
C947   C965    1.453   .     S
C948   C964    1.404   .     A
C948   H998    1.083   .     S
C948   C778    1.388   1_655 S
C949   H1008   1.074   .     S
C949   C964    1.394   .     A
C949   C808    1.378   1_655 S
C950   H1009   1.083   .     S
C950   C965    1.404   .     A
C951   O1021   1.386   .     S
C951   C962    1.407   .     A
C951   C955    1.401   .     A
C952   C963    1.406   .     A
C952   C956    1.395   .     A
C952   O1022   1.387   .     S
C953   C957    1.401   .     A
C953   C963    1.407   .     A
C953   O1023   1.386   .     S
C954   C959    1.395   .     A
C954   C962    1.405   .     A
C954   O1024   1.387   .     S
C955   C960    1.415   .     A
C955   Cl981   1.769   .     S
C956   C961    1.411   .     A
C956   Cl982   1.757   .     S
C957   Cl983   1.769   .     S
C957   C961    1.415   .     A
C958   O1025   1.302   .     A
C958   O1026   1.293   .     A
C958   C964    1.453   .     S
C959   C960    1.411   .     A
C959   Cl984   1.757   .     S
C960   C969    1.475   .     S
C961   C975    1.474   .     S
C963   C188    1.463   1_556 S
C965   C980    1.394   .     A
C966   H1012   1.106   .     S
C966   O1032   1.415   .     S
C966   H1011   1.114   .     S
C966   H1010   1.107   .     S
C967   H1013   1.109   .     S
C967   O1018   1.415   .     S
C967   H1014   1.114   .     S
C967   H988    1.108   .     S
C968   H990    1.114   .     S
C968   H989    1.107   .     S
C968   H991    1.106   .     S
C968   O1019   1.415   .     S
C969   O1028   1.300   .     A
C969   O1031   1.305   .     A
C970   H994    1.108   .     S
C970   H993    1.114   .     S
C970   H992    1.109   .     S
C970   O1020   1.416   .     S
C971   H996    1.114   .     S
C971   O1021   1.410   .     S
C971   H997    1.109   .     S
C972   O1022   1.410   .     S
C972   H1000   1.114   .     S
C972   H225    1.108   1_556 S
C972   H227    1.109   1_556 S
C973   H1002   1.114   .     S
C973   H1004   1.109   .     S
C973   O1023   1.410   .     S
C973   H229    1.109   1_556 S
C974   O1024   1.410   .     S
C974   H1006   1.114   .     S
C975   O1029   1.305   .     A
C975   O1030   1.300   .     A
C976   O1032   1.383   .     S
C976   N1016   1.375   .     A
C976   C1495   1.441   1_545 S
C977   O1018   1.384   .     S
C977   N1015   1.366   .     A
C977   C1236   1.441   .     S
C978   O1019   1.383   .     S
C978   N1016   1.375   .     A
C978   C1493   1.441   1_545 S
C979   N1015   1.366   .     A
C979   O1020   1.384   .     S
C979   C1234   1.441   .     S
C980   H987    1.074   .     S
Cu985  O1030   1.963   .     S
Cu985  N1015   2.028   .     S
Cu985  Cu986   2.698   .     S
Cu985  O1028   1.963   .     S
Cu985  O1026   1.967   .     S
Cu985  O1017   1.967   .     S
Cu986  O1031   1.963   .     S
Cu986  N1016   2.028   .     S
Cu986  O1029   1.963   .     S
Cu986  O1025   1.967   .     S
Cu986  O1027   1.967   .     S
H995   C197    1.109   1_556 S
H1005  C200    1.108   1_556 S
H1007  C200    1.109   1_556 S
C1033  O1103   1.293   .     A
C1033  O1113   1.302   .     A
C1033  C1051   1.453   .     S
C1034  C1050   1.404   .     A
C1034  H1084   1.083   .     S
C1034  C1122   1.388   .     S
C1035  H1094   1.074   .     S
C1035  C1050   1.394   .     A
C1035  C1152   1.378   .     S
C1036  H1095   1.083   .     S
C1036  C1051   1.404   .     A
C1036  C1206   1.388   1_455 S
C1037  O1107   1.386   .     S
C1037  C1048   1.407   .     A
C1037  C1041   1.401   .     A
C1038  C1049   1.406   .     A
C1038  C1042   1.395   .     A
C1038  O1108   1.387   .     S
C1039  C1043   1.401   .     A
C1039  C1049   1.407   .     A
C1039  O1109   1.386   .     S
C1040  C1045   1.395   .     A
C1040  C1048   1.405   .     A
C1040  O1110   1.387   .     S
C1041  C1046   1.415   .     A
C1041  Cl1067  1.769   .     S
C1042  C1047   1.411   .     A
C1042  Cl1068  1.757   .     S
C1043  Cl1069  1.769   .     S
C1043  C1047   1.415   .     A
C1044  O1111   1.302   .     A
C1044  O1112   1.293   .     A
C1044  C1050   1.453   .     S
C1045  C1046   1.411   .     A
C1045  Cl1070  1.757   .     S
C1046  C1055   1.475   .     S
C1047  C1061   1.474   .     S
C1049  C274    1.463   1_556 S
C1051  C1066   1.394   .     A
C1052  H1098   1.106   .     S
C1052  O1118   1.415   .     S
C1052  H1097   1.114   .     S
C1052  H1096   1.107   .     S
C1053  H1099   1.109   .     S
C1053  O1104   1.415   .     S
C1053  H1100   1.114   .     S
C1053  H1074   1.108   .     S
C1054  H1076   1.114   .     S
C1054  H1075   1.107   .     S
C1054  H1077   1.106   .     S
C1054  O1105   1.415   .     S
C1055  O1114   1.300   .     A
C1055  O1117   1.305   .     A
C1056  H1080   1.108   .     S
C1056  H1079   1.114   .     S
C1056  H1078   1.109   .     S
C1056  O1106   1.416   .     S
C1057  H1082   1.114   .     S
C1057  O1107   1.410   .     S
C1057  H1083   1.109   .     S
C1058  O1108   1.410   .     S
C1058  H1086   1.114   .     S
C1058  H311    1.108   1_556 S
C1058  H313    1.109   1_556 S
C1059  H1088   1.114   .     S
C1059  H1090   1.109   .     S
C1059  O1109   1.410   .     S
C1059  H315    1.109   1_556 S
C1060  O1110   1.410   .     S
C1060  H1092   1.114   .     S
C1061  O1115   1.305   .     A
C1061  O1116   1.300   .     A
C1062  O1118   1.383   .     S
C1062  N1102   1.375   .     A
C1063  O1104   1.384   .     S
C1063  N1101   1.366   .     A
C1063  C1322   1.441   .     S
C1064  O1105   1.383   .     S
C1064  N1102   1.375   .     A
C1065  N1101   1.366   .     A
C1065  O1106   1.384   .     S
C1065  C1320   1.441   .     S
C1066  H1073   1.074   .     S
C1066  C1207   1.378   1_455 S
Cu1071 O1116   1.963   .     S
Cu1071 N1101   2.028   .     S
Cu1071 Cu1072  2.698   .     S
Cu1071 O1114   1.963   .     S
Cu1071 O1112   1.967   .     S
Cu1071 O1103   1.967   .     S
Cu1072 O1117   1.963   .     S
Cu1072 N1102   2.028   .     S
Cu1072 O1115   1.963   .     S
Cu1072 O1111   1.967   .     S
Cu1072 O1113   1.967   .     S
H1081  C283    1.109   1_556 S
H1091  C286    1.108   1_556 S
H1093  C286    1.109   1_556 S
C1119  O1189   1.293   .     A
C1119  O1199   1.302   .     A
C1119  C1137   1.453   .     S
C1120  C1136   1.404   .     A
C1120  H1170   1.083   .     S
C1120  C1208   1.388   .     S
C1121  H1180   1.074   .     S
C1121  C1136   1.394   .     A
C1121  C1238   1.378   .     S
C1122  H1181   1.083   .     S
C1122  C1137   1.404   .     A
C1123  O1193   1.386   .     S
C1123  C1134   1.407   .     A
C1123  C1127   1.401   .     A
C1124  C1135   1.406   .     A
C1124  C1128   1.395   .     A
C1124  O1194   1.387   .     S
C1125  C1129   1.401   .     A
C1125  C1135   1.407   .     A
C1125  O1195   1.386   .     S
C1126  C1131   1.395   .     A
C1126  C1134   1.405   .     A
C1126  O1196   1.387   .     S
C1127  C1132   1.415   .     A
C1127  Cl1153  1.769   .     S
C1128  C1133   1.411   .     A
C1128  Cl1154  1.757   .     S
C1129  Cl1155  1.769   .     S
C1129  C1133   1.415   .     A
C1130  O1197   1.302   .     A
C1130  O1198   1.293   .     A
C1130  C1136   1.453   .     S
C1131  C1132   1.411   .     A
C1131  Cl1156  1.757   .     S
C1132  C1141   1.475   .     S
C1133  C1147   1.474   .     S
C1135  C360    1.463   1_556 S
C1137  C1152   1.394   .     A
C1138  H1184   1.106   .     S
C1138  O1204   1.415   .     S
C1138  H1183   1.114   .     S
C1138  H1182   1.107   .     S
C1139  H1185   1.109   .     S
C1139  O1190   1.415   .     S
C1139  H1186   1.114   .     S
C1139  H1160   1.108   .     S
C1140  H1162   1.114   .     S
C1140  H1161   1.107   .     S
C1140  H1163   1.106   .     S
C1140  O1191   1.415   .     S
C1141  O1200   1.300   .     A
C1141  O1203   1.305   .     A
C1142  H1166   1.108   .     S
C1142  H1165   1.114   .     S
C1142  H1164   1.109   .     S
C1142  O1192   1.416   .     S
C1143  H1168   1.114   .     S
C1143  O1193   1.410   .     S
C1143  H1169   1.109   .     S
C1144  O1194   1.410   .     S
C1144  H1172   1.114   .     S
C1144  H397    1.108   1_556 S
C1144  H399    1.109   1_556 S
C1145  H1174   1.114   .     S
C1145  H1176   1.109   .     S
C1145  O1195   1.410   .     S
C1145  H401    1.109   1_556 S
C1146  O1196   1.410   .     S
C1146  H1178   1.114   .     S
C1147  O1201   1.305   .     A
C1147  O1202   1.300   .     A
C1148  O1204   1.383   .     S
C1148  N1188   1.375   .     A
C1149  O1190   1.384   .     S
C1149  N1187   1.366   .     A
C1149  C1408   1.441   .     S
C1150  O1191   1.383   .     S
C1150  N1188   1.375   .     A
C1151  N1187   1.366   .     A
C1151  O1192   1.384   .     S
C1151  C1406   1.441   .     S
C1152  H1159   1.074   .     S
Cu1157 O1202   1.963   .     S
Cu1157 N1187   2.028   .     S
Cu1157 Cu1158  2.698   .     S
Cu1157 O1200   1.963   .     S
Cu1157 O1198   1.967   .     S
Cu1157 O1189   1.967   .     S
Cu1158 O1203   1.963   .     S
Cu1158 N1188   2.028   .     S
Cu1158 O1201   1.963   .     S
Cu1158 O1197   1.967   .     S
Cu1158 O1199   1.967   .     S
H1167  C369    1.109   1_556 S
H1177  C372    1.108   1_556 S
H1179  C372    1.109   1_556 S
C1205  O1275   1.293   .     A
C1205  O1285   1.302   .     A
C1205  C1223   1.453   .     S
C1206  C1222   1.404   .     A
C1206  H1256   1.083   .     S
C1206  C1036   1.388   1_655 S
C1207  H1266   1.074   .     S
C1207  C1222   1.394   .     A
C1207  C1066   1.378   1_655 S
C1208  H1267   1.083   .     S
C1208  C1223   1.404   .     A
C1209  O1279   1.386   .     S
C1209  C1220   1.407   .     A
C1209  C1213   1.401   .     A
C1210  C1221   1.406   .     A
C1210  C1214   1.395   .     A
C1210  O1280   1.387   .     S
C1211  C1215   1.401   .     A
C1211  C1221   1.407   .     A
C1211  O1281   1.386   .     S
C1212  C1217   1.395   .     A
C1212  C1220   1.405   .     A
C1212  O1282   1.387   .     S
C1213  C1218   1.415   .     A
C1213  Cl1239  1.769   .     S
C1214  C1219   1.411   .     A
C1214  Cl1240  1.757   .     S
C1215  Cl1241  1.769   .     S
C1215  C1219   1.415   .     A
C1216  O1283   1.302   .     A
C1216  O1284   1.293   .     A
C1216  C1222   1.453   .     S
C1217  C1218   1.411   .     A
C1217  Cl1242  1.757   .     S
C1218  C1227   1.475   .     S
C1219  C1233   1.474   .     S
C1221  C446    1.463   1_556 S
C1223  C1238   1.394   .     A
C1224  H1270   1.106   .     S
C1224  O1290   1.415   .     S
C1224  H1269   1.114   .     S
C1224  H1268   1.107   .     S
C1225  H1271   1.109   .     S
C1225  O1276   1.415   .     S
C1225  H1272   1.114   .     S
C1225  H1246   1.108   .     S
C1226  H1248   1.114   .     S
C1226  H1247   1.107   .     S
C1226  H1249   1.106   .     S
C1226  O1277   1.415   .     S
C1227  O1286   1.300   .     A
C1227  O1289   1.305   .     A
C1228  H1252   1.108   .     S
C1228  H1251   1.114   .     S
C1228  H1250   1.109   .     S
C1228  O1278   1.416   .     S
C1229  H1254   1.114   .     S
C1229  O1279   1.410   .     S
C1229  H1255   1.109   .     S
C1230  O1280   1.410   .     S
C1230  H1258   1.114   .     S
C1230  H483    1.108   1_556 S
C1230  H485    1.109   1_556 S
C1231  H1260   1.114   .     S
C1231  H1262   1.109   .     S
C1231  O1281   1.410   .     S
C1231  H487    1.109   1_556 S
C1232  O1282   1.410   .     S
C1232  H1264   1.114   .     S
C1233  O1287   1.305   .     A
C1233  O1288   1.300   .     A
C1234  O1290   1.383   .     S
C1234  N1274   1.375   .     A
C1235  O1276   1.384   .     S
C1235  N1273   1.366   .     A
C1235  C1494   1.441   .     S
C1236  O1277   1.383   .     S
C1236  N1274   1.375   .     A
C1237  N1273   1.366   .     A
C1237  O1278   1.384   .     S
C1237  C1492   1.441   .     S
C1238  H1245   1.074   .     S
Cu1243 O1288   1.963   .     S
Cu1243 N1273   2.028   .     S
Cu1243 Cu1244  2.698   .     S
Cu1243 O1286   1.963   .     S
Cu1243 O1284   1.967   .     S
Cu1243 O1275   1.967   .     S
Cu1244 O1289   1.963   .     S
Cu1244 N1274   2.028   .     S
Cu1244 O1287   1.963   .     S
Cu1244 O1283   1.967   .     S
Cu1244 O1285   1.967   .     S
H1253  C455    1.109   1_556 S
H1263  C458    1.108   1_556 S
H1265  C458    1.109   1_556 S
C1291  O1361   1.293   .     A
C1291  O1371   1.302   .     A
C1291  C1309   1.453   .     S
C1292  C1308   1.404   .     A
C1292  H1342   1.083   .     S
C1292  C1380   1.388   .     S
C1293  H1352   1.074   .     S
C1293  C1308   1.394   .     A
C1293  C1410   1.378   .     S
C1294  H1353   1.083   .     S
C1294  C1309   1.404   .     A
C1294  C1464   1.388   1_455 S
C1295  O1365   1.386   .     S
C1295  C1306   1.407   .     A
C1295  C1299   1.401   .     A
C1296  C1307   1.406   .     A
C1296  C1300   1.395   .     A
C1296  O1366   1.387   .     S
C1297  C1301   1.401   .     A
C1297  C1307   1.407   .     A
C1297  O1367   1.386   .     S
C1298  C1303   1.395   .     A
C1298  C1306   1.405   .     A
C1298  O1368   1.387   .     S
C1299  C1304   1.415   .     A
C1299  Cl1325  1.769   .     S
C1300  C1305   1.411   .     A
C1300  Cl1326  1.757   .     S
C1301  Cl1327  1.769   .     S
C1301  C1305   1.415   .     A
C1302  O1369   1.302   .     A
C1302  O1370   1.293   .     A
C1302  C1308   1.453   .     S
C1303  C1304   1.411   .     A
C1303  Cl1328  1.757   .     S
C1304  C1313   1.475   .     S
C1305  C1319   1.474   .     S
C1307  C532    1.463   1_556 S
C1309  C1324   1.394   .     A
C1310  H1356   1.106   .     S
C1310  O1376   1.415   .     S
C1310  H1355   1.114   .     S
C1310  H1354   1.107   .     S
C1311  H1357   1.109   .     S
C1311  O1362   1.415   .     S
C1311  H1358   1.114   .     S
C1311  H1332   1.108   .     S
C1312  H1334   1.114   .     S
C1312  H1333   1.107   .     S
C1312  H1335   1.106   .     S
C1312  O1363   1.415   .     S
C1313  O1372   1.300   .     A
C1313  O1375   1.305   .     A
C1314  H1338   1.108   .     S
C1314  H1337   1.114   .     S
C1314  H1336   1.109   .     S
C1314  O1364   1.416   .     S
C1315  H1340   1.114   .     S
C1315  O1365   1.410   .     S
C1315  H1341   1.109   .     S
C1316  O1366   1.410   .     S
C1316  H1344   1.114   .     S
C1316  H569    1.108   1_556 S
C1316  H571    1.109   1_556 S
C1317  H1346   1.114   .     S
C1317  H1348   1.109   .     S
C1317  O1367   1.410   .     S
C1317  H573    1.109   1_556 S
C1318  O1368   1.410   .     S
C1318  H1350   1.114   .     S
C1319  O1373   1.305   .     A
C1319  O1374   1.300   .     A
C1320  O1376   1.383   .     S
C1320  N1360   1.375   .     A
C1321  O1362   1.384   .     S
C1321  N1359   1.366   .     A
C1321  C806    1.441   1_565 S
C1322  O1363   1.383   .     S
C1322  N1360   1.375   .     A
C1323  N1359   1.366   .     A
C1323  O1364   1.384   .     S
C1323  C804    1.441   1_565 S
C1324  H1331   1.074   .     S
C1324  C1465   1.378   1_455 S
Cu1329 O1374   1.963   .     S
Cu1329 N1359   2.028   .     S
Cu1329 Cu1330  2.698   .     S
Cu1329 O1372   1.963   .     S
Cu1329 O1370   1.967   .     S
Cu1329 O1361   1.967   .     S
Cu1330 O1375   1.963   .     S
Cu1330 N1360   2.028   .     S
Cu1330 O1373   1.963   .     S
Cu1330 O1369   1.967   .     S
Cu1330 O1371   1.967   .     S
H1339  C541    1.109   1_556 S
H1349  C544    1.108   1_556 S
H1351  C544    1.109   1_556 S
C1377  O1447   1.293   .     A
C1377  O1457   1.302   .     A
C1377  C1395   1.453   .     S
C1378  C1394   1.404   .     A
C1378  H1428   1.083   .     S
C1378  C1466   1.388   .     S
C1379  H1438   1.074   .     S
C1379  C1394   1.394   .     A
C1379  C1496   1.378   .     S
C1380  H1439   1.083   .     S
C1380  C1395   1.404   .     A
C1381  O1451   1.386   .     S
C1381  C1392   1.407   .     A
C1381  C1385   1.401   .     A
C1382  C1393   1.406   .     A
C1382  C1386   1.395   .     A
C1382  O1452   1.387   .     S
C1383  C1387   1.401   .     A
C1383  C1393   1.407   .     A
C1383  O1453   1.386   .     S
C1384  C1389   1.395   .     A
C1384  C1392   1.405   .     A
C1384  O1454   1.387   .     S
C1385  C1390   1.415   .     A
C1385  Cl1411  1.769   .     S
C1386  C1391   1.411   .     A
C1386  Cl1412  1.757   .     S
C1387  Cl1413  1.769   .     S
C1387  C1391   1.415   .     A
C1388  O1455   1.302   .     A
C1388  O1456   1.293   .     A
C1388  C1394   1.453   .     S
C1389  C1390   1.411   .     A
C1389  Cl1414  1.757   .     S
C1390  C1399   1.475   .     S
C1391  C1405   1.474   .     S
C1393  C618    1.463   1_556 S
C1395  C1410   1.394   .     A
C1396  H1442   1.106   .     S
C1396  O1462   1.415   .     S
C1396  H1441   1.114   .     S
C1396  H1440   1.107   .     S
C1397  H1443   1.109   .     S
C1397  O1448   1.415   .     S
C1397  H1444   1.114   .     S
C1397  H1418   1.108   .     S
C1398  H1420   1.114   .     S
C1398  H1419   1.107   .     S
C1398  H1421   1.106   .     S
C1398  O1449   1.415   .     S
C1399  O1458   1.300   .     A
C1399  O1461   1.305   .     A
C1400  H1424   1.108   .     S
C1400  H1423   1.114   .     S
C1400  H1422   1.109   .     S
C1400  O1450   1.416   .     S
C1401  H1426   1.114   .     S
C1401  O1451   1.410   .     S
C1401  H1427   1.109   .     S
C1402  O1452   1.410   .     S
C1402  H1430   1.114   .     S
C1402  H655    1.108   1_556 S
C1402  H657    1.109   1_556 S
C1403  H1432   1.114   .     S
C1403  H1434   1.109   .     S
C1403  O1453   1.410   .     S
C1403  H659    1.109   1_556 S
C1404  O1454   1.410   .     S
C1404  H1436   1.114   .     S
C1405  O1459   1.305   .     A
C1405  O1460   1.300   .     A
C1406  O1462   1.383   .     S
C1406  N1446   1.375   .     A
C1407  O1448   1.384   .     S
C1407  N1445   1.366   .     A
C1407  C892    1.441   1_565 S
C1408  O1449   1.383   .     S
C1408  N1446   1.375   .     A
C1409  N1445   1.366   .     A
C1409  O1450   1.384   .     S
C1409  C890    1.441   1_565 S
C1410  H1417   1.074   .     S
Cu1415 O1460   1.963   .     S
Cu1415 N1445   2.028   .     S
Cu1415 Cu1416  2.698   .     S
Cu1415 O1458   1.963   .     S
Cu1415 O1456   1.967   .     S
Cu1415 O1447   1.967   .     S
Cu1416 O1461   1.963   .     S
Cu1416 N1446   2.028   .     S
Cu1416 O1459   1.963   .     S
Cu1416 O1455   1.967   .     S
Cu1416 O1457   1.967   .     S
H1425  C627    1.109   1_556 S
H1435  C630    1.108   1_556 S
H1437  C630    1.109   1_556 S
C1463  O1533   1.293   .     A
C1463  O1543   1.302   .     A
C1463  C1481   1.453   .     S
C1464  C1480   1.404   .     A
C1464  H1514   1.083   .     S
C1464  C1294   1.388   1_655 S
C1465  H1524   1.074   .     S
C1465  C1480   1.394   .     A
C1465  C1324   1.378   1_655 S
C1466  H1525   1.083   .     S
C1466  C1481   1.404   .     A
C1467  O1537   1.386   .     S
C1467  C1478   1.407   .     A
C1467  C1471   1.401   .     A
C1468  C1479   1.406   .     A
C1468  C1472   1.395   .     A
C1468  O1538   1.387   .     S
C1469  C1473   1.401   .     A
C1469  C1479   1.407   .     A
C1469  O1539   1.386   .     S
C1470  C1475   1.395   .     A
C1470  C1478   1.405   .     A
C1470  O1540   1.387   .     S
C1471  C1476   1.415   .     A
C1471  Cl1497  1.769   .     S
C1472  C1477   1.411   .     A
C1472  Cl1498  1.757   .     S
C1473  Cl1499  1.769   .     S
C1473  C1477   1.415   .     A
C1474  O1541   1.302   .     A
C1474  O1542   1.293   .     A
C1474  C1480   1.453   .     S
C1475  C1476   1.411   .     A
C1475  Cl1500  1.757   .     S
C1476  C1485   1.475   .     S
C1477  C1491   1.474   .     S
C1479  C704    1.463   1_556 S
C1481  C1496   1.394   .     A
C1482  H1528   1.106   .     S
C1482  O1548   1.415   .     S
C1482  H1527   1.114   .     S
C1482  H1526   1.107   .     S
C1483  H1529   1.109   .     S
C1483  O1534   1.415   .     S
C1483  H1530   1.114   .     S
C1483  H1504   1.108   .     S
C1484  H1506   1.114   .     S
C1484  H1505   1.107   .     S
C1484  H1507   1.106   .     S
C1484  O1535   1.415   .     S
C1485  O1544   1.300   .     A
C1485  O1547   1.305   .     A
C1486  H1510   1.108   .     S
C1486  H1509   1.114   .     S
C1486  H1508   1.109   .     S
C1486  O1536   1.416   .     S
C1487  H1512   1.114   .     S
C1487  O1537   1.410   .     S
C1487  H1513   1.109   .     S
C1488  O1538   1.410   .     S
C1488  H1516   1.114   .     S
C1488  H741    1.108   1_556 S
C1488  H743    1.109   1_556 S
C1489  H1518   1.114   .     S
C1489  H1520   1.109   .     S
C1489  O1539   1.410   .     S
C1489  H745    1.109   1_556 S
C1490  O1540   1.410   .     S
C1490  H1522   1.114   .     S
C1491  O1545   1.305   .     A
C1491  O1546   1.300   .     A
C1492  O1548   1.383   .     S
C1492  N1532   1.375   .     A
C1493  O1534   1.384   .     S
C1493  N1531   1.366   .     A
C1493  C978    1.441   1_565 S
C1494  O1535   1.383   .     S
C1494  N1532   1.375   .     A
C1495  N1531   1.366   .     A
C1495  O1536   1.384   .     S
C1495  C976    1.441   1_565 S
C1496  H1503   1.074   .     S
Cu1501 O1546   1.963   .     S
Cu1501 N1531   2.028   .     S
Cu1501 Cu1502  2.698   .     S
Cu1501 O1544   1.963   .     S
Cu1501 O1542   1.967   .     S
Cu1501 O1533   1.967   .     S
Cu1502 O1547   1.963   .     S
Cu1502 N1532   2.028   .     S
Cu1502 O1545   1.963   .     S
Cu1502 O1541   1.967   .     S
Cu1502 O1543   1.967   .     S
H1511  C713    1.109   1_556 S
H1521  C716    1.108   1_556 S
H1523  C716    1.109   1_556 S
