data_str_m3_o2_o10_pcu_sym.176
_audit_creation_date              2020-01-03
_audit_creation_method            'Materials Studio'
_symmetry_space_group_name_H-M    'P1'
_symmetry_Int_Tables_number       1
_symmetry_cell_setting            triclinic
loop_
_symmetry_equiv_pos_as_xyz
  x,y,z
_cell_length_a                    25.7590
_cell_length_b                    29.8879
_cell_length_c                    28.3557
_cell_angle_alpha                 89.9702
_cell_angle_beta                  98.5775
_cell_angle_gamma                 90.0444
loop_
_atom_site_label
_atom_site_type_symbol
_atom_site_fract_x
_atom_site_fract_y
_atom_site_fract_z
_atom_site_U_iso_or_equiv
_atom_site_adp_type
_atom_site_occupancy
C1     C     0.16666   0.16394   0.25000   0.00000  Uiso   1.00
C2     C     0.16668   0.33594   0.24999   0.00000  Uiso   1.00
C3     C     0.14225   0.21554   0.04932   0.00000  Uiso   1.00
C4     C     0.20878   0.26844   0.45305   0.00000  Uiso   1.00
C5     C     0.14253   0.21626   0.09897   0.00000  Uiso   1.00
C6     C     0.20786   0.26821   0.40330   0.00000  Uiso   1.00
C7     C     0.19097   0.28367   0.10554   0.00000  Uiso   1.00
C8     C     0.12551   0.23185   0.39226   0.00000  Uiso   1.00
C9     C     0.19138   0.28438   0.05598   0.00000  Uiso   1.00
C10    C     0.12471   0.23161   0.44176   0.00000  Uiso   1.00
C11    C     0.16682   0.24997   0.02672   0.00000  Uiso   1.00
C12    C     0.16678   0.25001   0.47335   0.00000  Uiso   1.00
C13    C     0.06701   0.24976   0.23755   0.00000  Uiso   1.00
C14    C     0.26632   0.24978   0.26245   0.00000  Uiso   1.00
C15    C     0.01200   0.24949   0.23083   0.00000  Uiso   1.00
C16    C     0.32133   0.24951   0.26919   0.00000  Uiso   1.00
C17    C     0.12816   0.04659   0.26983   0.00000  Uiso   1.00
C18    C     0.12210   0.45284   0.22878   0.00000  Uiso   1.00
C19    C     0.12795   0.09283   0.27025   0.00000  Uiso   1.00
C20    C     0.12186   0.40659   0.22846   0.00000  Uiso   1.00
C21    C     0.16673   0.11606   0.25000   0.00000  Uiso   1.00
C22    C     0.16674   0.38362   0.24995   0.00000  Uiso   1.00
C23    C     0.20554   0.09301   0.22966   0.00000  Uiso   1.00
C24    C     0.21168   0.40658   0.27139   0.00000  Uiso   1.00
C25    C     0.20548   0.04676   0.23004   0.00000  Uiso   1.00
C26    C     0.21157   0.45283   0.27097   0.00000  Uiso   1.00
C27    C     0.16685   0.02381   0.24993   0.00000  Uiso   1.00
C28    C     0.16686   0.47571   0.24986   0.00000  Uiso   1.00
H29    H     0.32474   0.24947   0.19442   0.00000  Uiso   1.00
H30    H     0.00858   0.24951   0.30560   0.00000  Uiso   1.00
H31    H     0.09839   0.02833   0.28521   0.00000  Uiso   1.00
H32    H     0.08767   0.47099   0.21239   0.00000  Uiso   1.00
H33    H     0.23525   0.02864   0.21459   0.00000  Uiso   1.00
H34    H     0.24603   0.47097   0.28737   0.00000  Uiso   1.00
H35    H     0.12348   0.18961   0.11576   0.00000  Uiso   1.00
H36    H     0.24035   0.28255   0.38833   0.00000  Uiso   1.00
H37    H     0.21005   0.31027   0.12750   0.00000  Uiso   1.00
H38    H     0.09293   0.21755   0.36860   0.00000  Uiso   1.00
H39    H     0.21021   0.31213   0.04078   0.00000  Uiso   1.00
H40    H     0.09087   0.21765   0.45495   0.00000  Uiso   1.00
N41    N     0.16667   0.24999   0.12624   0.00000  Uiso   1.00
N42    N     0.16667   0.25001   0.37377   0.00000  Uiso   1.00
O43    O     0.16667   0.18454   0.28974   0.00000  Uiso   1.00
O44    O     0.16666   0.31547   0.21026   0.00000  Uiso   1.00
O45    O     0.16667   0.18453   0.21026   0.00000  Uiso   1.00
O46    O     0.16666   0.31547   0.28974   0.00000  Uiso   1.00
O47    O     0.09058   0.25000   0.28045   0.00000  Uiso   1.00
O48    O     0.24275   0.25000   0.21956   0.00000  Uiso   1.00
O49    O     0.09058   0.25000   0.20097   0.00000  Uiso   1.00
O50    O     0.24275   0.25001   0.29904   0.00000  Uiso   1.00
Zn51   Zn    0.16667   0.25001   0.30307   0.00000  Uiso   1.00
Zn52   Zn    0.16667   0.25000   0.19693   0.00000  Uiso   1.00
I53    I     0.06656   0.12476   0.30004   0.00000  Uiso   1.00
I54    I     0.05230   0.37371   0.19638   0.00000  Uiso   1.00
I55    I     0.26657   0.12525   0.19950   0.00000  Uiso   1.00
I56    I     0.28109   0.37364   0.30365   0.00000  Uiso   1.00
H57    H     0.12350   0.18777   0.02903   0.00000  Uiso   1.00
H58    H     0.24264   0.28242   0.47535   0.00000  Uiso   1.00
C59    C     0.49999   0.16394   0.25000   0.00000  Uiso   1.00
C60    C     0.50001   0.33594   0.24999   0.00000  Uiso   1.00
C61    C     0.47558   0.21554   0.04932   0.00000  Uiso   1.00
C62    C     0.54211   0.26844   0.45305   0.00000  Uiso   1.00
C63    C     0.47586   0.21626   0.09897   0.00000  Uiso   1.00
C64    C     0.54119   0.26821   0.40330   0.00000  Uiso   1.00
C65    C     0.52430   0.28367   0.10554   0.00000  Uiso   1.00
C66    C     0.45884   0.23185   0.39226   0.00000  Uiso   1.00
C67    C     0.52471   0.28438   0.05598   0.00000  Uiso   1.00
C68    C     0.45804   0.23161   0.44176   0.00000  Uiso   1.00
C69    C     0.50015   0.24997   0.02672   0.00000  Uiso   1.00
C70    C     0.50011   0.25001   0.47335   0.00000  Uiso   1.00
C71    C     0.40035   0.24976   0.23755   0.00000  Uiso   1.00
C72    C     0.59965   0.24978   0.26245   0.00000  Uiso   1.00
C73    C     0.34534   0.24949   0.23083   0.00000  Uiso   1.00
C74    C     0.65466   0.24951   0.26919   0.00000  Uiso   1.00
C75    C     0.46149   0.04659   0.26983   0.00000  Uiso   1.00
C76    C     0.45543   0.45284   0.22878   0.00000  Uiso   1.00
C77    C     0.46128   0.09283   0.27025   0.00000  Uiso   1.00
C78    C     0.45519   0.40659   0.22846   0.00000  Uiso   1.00
C79    C     0.50007   0.11606   0.25000   0.00000  Uiso   1.00
C80    C     0.50007   0.38362   0.24995   0.00000  Uiso   1.00
C81    C     0.53888   0.09301   0.22966   0.00000  Uiso   1.00
C82    C     0.54501   0.40658   0.27139   0.00000  Uiso   1.00
C83    C     0.53881   0.04676   0.23004   0.00000  Uiso   1.00
C84    C     0.54491   0.45283   0.27097   0.00000  Uiso   1.00
C85    C     0.50019   0.02381   0.24993   0.00000  Uiso   1.00
C86    C     0.50019   0.47571   0.24986   0.00000  Uiso   1.00
H87    H     0.65807   0.24947   0.19442   0.00000  Uiso   1.00
H88    H     0.34192   0.24951   0.30560   0.00000  Uiso   1.00
H89    H     0.43173   0.02833   0.28521   0.00000  Uiso   1.00
H90    H     0.42100   0.47099   0.21239   0.00000  Uiso   1.00
H91    H     0.56858   0.02864   0.21459   0.00000  Uiso   1.00
H92    H     0.57937   0.47097   0.28737   0.00000  Uiso   1.00
H93    H     0.45681   0.18961   0.11576   0.00000  Uiso   1.00
H94    H     0.57369   0.28255   0.38833   0.00000  Uiso   1.00
H95    H     0.54339   0.31027   0.12750   0.00000  Uiso   1.00
H96    H     0.42626   0.21755   0.36860   0.00000  Uiso   1.00
H97    H     0.54354   0.31213   0.04078   0.00000  Uiso   1.00
H98    H     0.42420   0.21765   0.45495   0.00000  Uiso   1.00
N99    N     0.50000   0.24999   0.12624   0.00000  Uiso   1.00
N100   N     0.50000   0.25001   0.37377   0.00000  Uiso   1.00
O101   O     0.50000   0.18454   0.28974   0.00000  Uiso   1.00
O102   O     0.50000   0.31547   0.21026   0.00000  Uiso   1.00
O103   O     0.50000   0.18453   0.21026   0.00000  Uiso   1.00
O104   O     0.50000   0.31547   0.28974   0.00000  Uiso   1.00
O105   O     0.42392   0.25000   0.28045   0.00000  Uiso   1.00
O106   O     0.57608   0.25000   0.21956   0.00000  Uiso   1.00
O107   O     0.42392   0.25000   0.20097   0.00000  Uiso   1.00
O108   O     0.57608   0.25001   0.29904   0.00000  Uiso   1.00
Zn109  Zn    0.50000   0.25001   0.30307   0.00000  Uiso   1.00
Zn110  Zn    0.50000   0.25000   0.19693   0.00000  Uiso   1.00
I111   I     0.39990   0.12476   0.30004   0.00000  Uiso   1.00
I112   I     0.38563   0.37371   0.19638   0.00000  Uiso   1.00
I113   I     0.59990   0.12525   0.19950   0.00000  Uiso   1.00
I114   I     0.61442   0.37364   0.30365   0.00000  Uiso   1.00
H115   H     0.45683   0.18777   0.02903   0.00000  Uiso   1.00
H116   H     0.57597   0.28242   0.47535   0.00000  Uiso   1.00
C117   C     0.83333   0.16394   0.25000   0.00000  Uiso   1.00
C118   C     0.83334   0.33594   0.24999   0.00000  Uiso   1.00
C119   C     0.80892   0.21554   0.04932   0.00000  Uiso   1.00
C120   C     0.87545   0.26844   0.45305   0.00000  Uiso   1.00
C121   C     0.80919   0.21626   0.09897   0.00000  Uiso   1.00
C122   C     0.87453   0.26821   0.40330   0.00000  Uiso   1.00
C123   C     0.85764   0.28367   0.10554   0.00000  Uiso   1.00
C124   C     0.79218   0.23185   0.39226   0.00000  Uiso   1.00
C125   C     0.85805   0.28438   0.05598   0.00000  Uiso   1.00
C126   C     0.79137   0.23161   0.44176   0.00000  Uiso   1.00
C127   C     0.83348   0.24997   0.02672   0.00000  Uiso   1.00
C128   C     0.83345   0.25001   0.47335   0.00000  Uiso   1.00
C129   C     0.73368   0.24976   0.23755   0.00000  Uiso   1.00
C130   C     0.93299   0.24978   0.26245   0.00000  Uiso   1.00
C131   C     0.67867   0.24949   0.23083   0.00000  Uiso   1.00
C132   C     0.98800   0.24951   0.26919   0.00000  Uiso   1.00
C133   C     0.79482   0.04659   0.26983   0.00000  Uiso   1.00
C134   C     0.78876   0.45284   0.22878   0.00000  Uiso   1.00
C135   C     0.79461   0.09283   0.27025   0.00000  Uiso   1.00
C136   C     0.78853   0.40659   0.22846   0.00000  Uiso   1.00
C137   C     0.83340   0.11606   0.25000   0.00000  Uiso   1.00
C138   C     0.83340   0.38362   0.24995   0.00000  Uiso   1.00
C139   C     0.87221   0.09301   0.22966   0.00000  Uiso   1.00
C140   C     0.87835   0.40658   0.27139   0.00000  Uiso   1.00
C141   C     0.87215   0.04676   0.23004   0.00000  Uiso   1.00
C142   C     0.87824   0.45283   0.27097   0.00000  Uiso   1.00
C143   C     0.83352   0.02381   0.24993   0.00000  Uiso   1.00
C144   C     0.83353   0.47571   0.24986   0.00000  Uiso   1.00
H145   H     0.99141   0.24947   0.19442   0.00000  Uiso   1.00
H146   H     0.67525   0.24951   0.30560   0.00000  Uiso   1.00
H147   H     0.76506   0.02833   0.28521   0.00000  Uiso   1.00
H148   H     0.75433   0.47099   0.21239   0.00000  Uiso   1.00
H149   H     0.90192   0.02864   0.21459   0.00000  Uiso   1.00
H150   H     0.91270   0.47097   0.28737   0.00000  Uiso   1.00
H151   H     0.79015   0.18961   0.11576   0.00000  Uiso   1.00
H152   H     0.90702   0.28255   0.38833   0.00000  Uiso   1.00
H153   H     0.87672   0.31027   0.12750   0.00000  Uiso   1.00
H154   H     0.75960   0.21755   0.36860   0.00000  Uiso   1.00
H155   H     0.87688   0.31213   0.04078   0.00000  Uiso   1.00
H156   H     0.75754   0.21765   0.45495   0.00000  Uiso   1.00
N157   N     0.83333   0.24999   0.12624   0.00000  Uiso   1.00
N158   N     0.83333   0.25001   0.37377   0.00000  Uiso   1.00
O159   O     0.83334   0.18454   0.28974   0.00000  Uiso   1.00
O160   O     0.83333   0.31547   0.21026   0.00000  Uiso   1.00
O161   O     0.83334   0.18453   0.21026   0.00000  Uiso   1.00
O162   O     0.83333   0.31547   0.28974   0.00000  Uiso   1.00
O163   O     0.75725   0.25000   0.28045   0.00000  Uiso   1.00
O164   O     0.90942   0.25000   0.21956   0.00000  Uiso   1.00
O165   O     0.75725   0.25000   0.20097   0.00000  Uiso   1.00
O166   O     0.90942   0.25001   0.29904   0.00000  Uiso   1.00
Zn167  Zn    0.83333   0.25001   0.30307   0.00000  Uiso   1.00
Zn168  Zn    0.83333   0.25000   0.19693   0.00000  Uiso   1.00
I169   I     0.73323   0.12476   0.30004   0.00000  Uiso   1.00
I170   I     0.71896   0.37371   0.19638   0.00000  Uiso   1.00
I171   I     0.93323   0.12525   0.19950   0.00000  Uiso   1.00
I172   I     0.94776   0.37364   0.30365   0.00000  Uiso   1.00
H173   H     0.79017   0.18777   0.02903   0.00000  Uiso   1.00
H174   H     0.90931   0.28242   0.47535   0.00000  Uiso   1.00
C175   C     0.16666   0.66394   0.25000   0.00000  Uiso   1.00
C176   C     0.16668   0.83594   0.24999   0.00000  Uiso   1.00
C177   C     0.14225   0.71554   0.04932   0.00000  Uiso   1.00
C178   C     0.20878   0.76844   0.45305   0.00000  Uiso   1.00
C179   C     0.14253   0.71626   0.09897   0.00000  Uiso   1.00
C180   C     0.20786   0.76821   0.40330   0.00000  Uiso   1.00
C181   C     0.19097   0.78367   0.10554   0.00000  Uiso   1.00
C182   C     0.12551   0.73185   0.39226   0.00000  Uiso   1.00
C183   C     0.19138   0.78438   0.05598   0.00000  Uiso   1.00
C184   C     0.12471   0.73161   0.44176   0.00000  Uiso   1.00
C185   C     0.16682   0.74997   0.02672   0.00000  Uiso   1.00
C186   C     0.16678   0.75001   0.47335   0.00000  Uiso   1.00
C187   C     0.06701   0.74976   0.23755   0.00000  Uiso   1.00
C188   C     0.26632   0.74978   0.26245   0.00000  Uiso   1.00
C189   C     0.01200   0.74949   0.23083   0.00000  Uiso   1.00
C190   C     0.32133   0.74951   0.26919   0.00000  Uiso   1.00
C191   C     0.12816   0.54659   0.26983   0.00000  Uiso   1.00
C192   C     0.12210   0.95284   0.22878   0.00000  Uiso   1.00
C193   C     0.12795   0.59283   0.27025   0.00000  Uiso   1.00
C194   C     0.12186   0.90659   0.22846   0.00000  Uiso   1.00
C195   C     0.16673   0.61606   0.25000   0.00000  Uiso   1.00
C196   C     0.16674   0.88362   0.24995   0.00000  Uiso   1.00
C197   C     0.20554   0.59301   0.22966   0.00000  Uiso   1.00
C198   C     0.21168   0.90658   0.27139   0.00000  Uiso   1.00
C199   C     0.20548   0.54676   0.23004   0.00000  Uiso   1.00
C200   C     0.21157   0.95283   0.27097   0.00000  Uiso   1.00
C201   C     0.16685   0.52381   0.24993   0.00000  Uiso   1.00
C202   C     0.16686   0.97571   0.24986   0.00000  Uiso   1.00
H203   H     0.32474   0.74947   0.19442   0.00000  Uiso   1.00
H204   H     0.00858   0.74951   0.30560   0.00000  Uiso   1.00
H205   H     0.09839   0.52833   0.28521   0.00000  Uiso   1.00
H206   H     0.08767   0.97099   0.21239   0.00000  Uiso   1.00
H207   H     0.23525   0.52864   0.21459   0.00000  Uiso   1.00
H208   H     0.24603   0.97097   0.28737   0.00000  Uiso   1.00
H209   H     0.12348   0.68961   0.11576   0.00000  Uiso   1.00
H210   H     0.24035   0.78255   0.38833   0.00000  Uiso   1.00
H211   H     0.21005   0.81027   0.12750   0.00000  Uiso   1.00
H212   H     0.09293   0.71755   0.36860   0.00000  Uiso   1.00
H213   H     0.21021   0.81213   0.04078   0.00000  Uiso   1.00
H214   H     0.09087   0.71765   0.45495   0.00000  Uiso   1.00
N215   N     0.16667   0.74999   0.12624   0.00000  Uiso   1.00
N216   N     0.16667   0.75001   0.37377   0.00000  Uiso   1.00
O217   O     0.16667   0.68454   0.28974   0.00000  Uiso   1.00
O218   O     0.16666   0.81547   0.21026   0.00000  Uiso   1.00
O219   O     0.16667   0.68453   0.21026   0.00000  Uiso   1.00
O220   O     0.16666   0.81547   0.28974   0.00000  Uiso   1.00
O221   O     0.09058   0.75000   0.28045   0.00000  Uiso   1.00
O222   O     0.24275   0.75000   0.21956   0.00000  Uiso   1.00
O223   O     0.09058   0.75000   0.20097   0.00000  Uiso   1.00
O224   O     0.24275   0.75001   0.29904   0.00000  Uiso   1.00
Zn225  Zn    0.16667   0.75001   0.30307   0.00000  Uiso   1.00
Zn226  Zn    0.16667   0.75000   0.19693   0.00000  Uiso   1.00
I227   I     0.06656   0.62476   0.30004   0.00000  Uiso   1.00
I228   I     0.05230   0.87371   0.19638   0.00000  Uiso   1.00
I229   I     0.26657   0.62525   0.19950   0.00000  Uiso   1.00
I230   I     0.28109   0.87364   0.30365   0.00000  Uiso   1.00
H231   H     0.12350   0.68777   0.02903   0.00000  Uiso   1.00
H232   H     0.24264   0.78242   0.47535   0.00000  Uiso   1.00
C233   C     0.49999   0.66394   0.25000   0.00000  Uiso   1.00
C234   C     0.50001   0.83594   0.24999   0.00000  Uiso   1.00
C235   C     0.47558   0.71554   0.04932   0.00000  Uiso   1.00
C236   C     0.54211   0.76844   0.45305   0.00000  Uiso   1.00
C237   C     0.47586   0.71626   0.09897   0.00000  Uiso   1.00
C238   C     0.54119   0.76821   0.40330   0.00000  Uiso   1.00
C239   C     0.52430   0.78367   0.10554   0.00000  Uiso   1.00
C240   C     0.45884   0.73185   0.39226   0.00000  Uiso   1.00
C241   C     0.52471   0.78438   0.05598   0.00000  Uiso   1.00
C242   C     0.45804   0.73161   0.44176   0.00000  Uiso   1.00
C243   C     0.50015   0.74997   0.02672   0.00000  Uiso   1.00
C244   C     0.50011   0.75001   0.47335   0.00000  Uiso   1.00
C245   C     0.40035   0.74976   0.23755   0.00000  Uiso   1.00
C246   C     0.59965   0.74978   0.26245   0.00000  Uiso   1.00
C247   C     0.34534   0.74949   0.23083   0.00000  Uiso   1.00
C248   C     0.65466   0.74951   0.26919   0.00000  Uiso   1.00
C249   C     0.46149   0.54659   0.26983   0.00000  Uiso   1.00
C250   C     0.45543   0.95284   0.22878   0.00000  Uiso   1.00
C251   C     0.46128   0.59283   0.27025   0.00000  Uiso   1.00
C252   C     0.45519   0.90659   0.22846   0.00000  Uiso   1.00
C253   C     0.50007   0.61606   0.25000   0.00000  Uiso   1.00
C254   C     0.50007   0.88362   0.24995   0.00000  Uiso   1.00
C255   C     0.53888   0.59301   0.22966   0.00000  Uiso   1.00
C256   C     0.54501   0.90658   0.27139   0.00000  Uiso   1.00
C257   C     0.53881   0.54676   0.23004   0.00000  Uiso   1.00
C258   C     0.54491   0.95283   0.27097   0.00000  Uiso   1.00
C259   C     0.50019   0.52381   0.24993   0.00000  Uiso   1.00
C260   C     0.50019   0.97571   0.24986   0.00000  Uiso   1.00
H261   H     0.65807   0.74947   0.19442   0.00000  Uiso   1.00
H262   H     0.34192   0.74951   0.30560   0.00000  Uiso   1.00
H263   H     0.43173   0.52833   0.28521   0.00000  Uiso   1.00
H264   H     0.42100   0.97099   0.21239   0.00000  Uiso   1.00
H265   H     0.56858   0.52864   0.21459   0.00000  Uiso   1.00
H266   H     0.57937   0.97097   0.28737   0.00000  Uiso   1.00
H267   H     0.45681   0.68961   0.11576   0.00000  Uiso   1.00
H268   H     0.57369   0.78255   0.38833   0.00000  Uiso   1.00
H269   H     0.54339   0.81027   0.12750   0.00000  Uiso   1.00
H270   H     0.42626   0.71755   0.36860   0.00000  Uiso   1.00
H271   H     0.54354   0.81213   0.04078   0.00000  Uiso   1.00
H272   H     0.42420   0.71765   0.45495   0.00000  Uiso   1.00
N273   N     0.50000   0.74999   0.12624   0.00000  Uiso   1.00
N274   N     0.50000   0.75001   0.37377   0.00000  Uiso   1.00
O275   O     0.50000   0.68454   0.28974   0.00000  Uiso   1.00
O276   O     0.50000   0.81547   0.21026   0.00000  Uiso   1.00
O277   O     0.50000   0.68453   0.21026   0.00000  Uiso   1.00
O278   O     0.50000   0.81547   0.28974   0.00000  Uiso   1.00
O279   O     0.42392   0.75000   0.28045   0.00000  Uiso   1.00
O280   O     0.57608   0.75000   0.21956   0.00000  Uiso   1.00
O281   O     0.42392   0.75000   0.20097   0.00000  Uiso   1.00
O282   O     0.57608   0.75001   0.29904   0.00000  Uiso   1.00
Zn283  Zn    0.50000   0.75001   0.30307   0.00000  Uiso   1.00
Zn284  Zn    0.50000   0.75000   0.19693   0.00000  Uiso   1.00
I285   I     0.39990   0.62476   0.30004   0.00000  Uiso   1.00
I286   I     0.38563   0.87371   0.19638   0.00000  Uiso   1.00
I287   I     0.59990   0.62525   0.19950   0.00000  Uiso   1.00
I288   I     0.61442   0.87364   0.30365   0.00000  Uiso   1.00
H289   H     0.45683   0.68777   0.02903   0.00000  Uiso   1.00
H290   H     0.57597   0.78242   0.47535   0.00000  Uiso   1.00
C291   C     0.83333   0.66394   0.25000   0.00000  Uiso   1.00
C292   C     0.83334   0.83594   0.24999   0.00000  Uiso   1.00
C293   C     0.80892   0.71554   0.04932   0.00000  Uiso   1.00
C294   C     0.87545   0.76844   0.45305   0.00000  Uiso   1.00
C295   C     0.80919   0.71626   0.09897   0.00000  Uiso   1.00
C296   C     0.87453   0.76821   0.40330   0.00000  Uiso   1.00
C297   C     0.85764   0.78367   0.10554   0.00000  Uiso   1.00
C298   C     0.79218   0.73185   0.39226   0.00000  Uiso   1.00
C299   C     0.85805   0.78438   0.05598   0.00000  Uiso   1.00
C300   C     0.79137   0.73161   0.44176   0.00000  Uiso   1.00
C301   C     0.83348   0.74997   0.02672   0.00000  Uiso   1.00
C302   C     0.83345   0.75001   0.47335   0.00000  Uiso   1.00
C303   C     0.73368   0.74976   0.23755   0.00000  Uiso   1.00
C304   C     0.93299   0.74978   0.26245   0.00000  Uiso   1.00
C305   C     0.67867   0.74949   0.23083   0.00000  Uiso   1.00
C306   C     0.98800   0.74951   0.26919   0.00000  Uiso   1.00
C307   C     0.79482   0.54659   0.26983   0.00000  Uiso   1.00
C308   C     0.78876   0.95284   0.22878   0.00000  Uiso   1.00
C309   C     0.79461   0.59283   0.27025   0.00000  Uiso   1.00
C310   C     0.78853   0.90659   0.22846   0.00000  Uiso   1.00
C311   C     0.83340   0.61606   0.25000   0.00000  Uiso   1.00
C312   C     0.83340   0.88362   0.24995   0.00000  Uiso   1.00
C313   C     0.87221   0.59301   0.22966   0.00000  Uiso   1.00
C314   C     0.87835   0.90658   0.27139   0.00000  Uiso   1.00
C315   C     0.87215   0.54676   0.23004   0.00000  Uiso   1.00
C316   C     0.87824   0.95283   0.27097   0.00000  Uiso   1.00
C317   C     0.83352   0.52381   0.24993   0.00000  Uiso   1.00
C318   C     0.83353   0.97571   0.24986   0.00000  Uiso   1.00
H319   H     0.99141   0.74947   0.19442   0.00000  Uiso   1.00
H320   H     0.67525   0.74951   0.30560   0.00000  Uiso   1.00
H321   H     0.76506   0.52833   0.28521   0.00000  Uiso   1.00
H322   H     0.75433   0.97099   0.21239   0.00000  Uiso   1.00
H323   H     0.90192   0.52864   0.21459   0.00000  Uiso   1.00
H324   H     0.91270   0.97097   0.28737   0.00000  Uiso   1.00
H325   H     0.79015   0.68961   0.11576   0.00000  Uiso   1.00
H326   H     0.90702   0.78255   0.38833   0.00000  Uiso   1.00
H327   H     0.87672   0.81027   0.12750   0.00000  Uiso   1.00
H328   H     0.75960   0.71755   0.36860   0.00000  Uiso   1.00
H329   H     0.87688   0.81213   0.04078   0.00000  Uiso   1.00
H330   H     0.75754   0.71765   0.45495   0.00000  Uiso   1.00
N331   N     0.83333   0.74999   0.12624   0.00000  Uiso   1.00
N332   N     0.83333   0.75001   0.37377   0.00000  Uiso   1.00
O333   O     0.83334   0.68454   0.28974   0.00000  Uiso   1.00
O334   O     0.83333   0.81547   0.21026   0.00000  Uiso   1.00
O335   O     0.83334   0.68453   0.21026   0.00000  Uiso   1.00
O336   O     0.83333   0.81547   0.28974   0.00000  Uiso   1.00
O337   O     0.75725   0.75000   0.28045   0.00000  Uiso   1.00
O338   O     0.90942   0.75000   0.21956   0.00000  Uiso   1.00
O339   O     0.75725   0.75000   0.20097   0.00000  Uiso   1.00
O340   O     0.90942   0.75001   0.29904   0.00000  Uiso   1.00
Zn341  Zn    0.83333   0.75001   0.30307   0.00000  Uiso   1.00
Zn342  Zn    0.83333   0.75000   0.19693   0.00000  Uiso   1.00
I343   I     0.73323   0.62476   0.30004   0.00000  Uiso   1.00
I344   I     0.71896   0.87371   0.19638   0.00000  Uiso   1.00
I345   I     0.93323   0.62525   0.19950   0.00000  Uiso   1.00
I346   I     0.94776   0.87364   0.30365   0.00000  Uiso   1.00
H347   H     0.79017   0.68777   0.02903   0.00000  Uiso   1.00
H348   H     0.90931   0.78242   0.47535   0.00000  Uiso   1.00
C349   C     0.16666   0.16394   0.75000   0.00000  Uiso   1.00
C350   C     0.16668   0.33594   0.74999   0.00000  Uiso   1.00
C351   C     0.14225   0.21554   0.54932   0.00000  Uiso   1.00
C352   C     0.20878   0.26844   0.95305   0.00000  Uiso   1.00
C353   C     0.14253   0.21626   0.59897   0.00000  Uiso   1.00
C354   C     0.20786   0.26821   0.90330   0.00000  Uiso   1.00
C355   C     0.19097   0.28367   0.60554   0.00000  Uiso   1.00
C356   C     0.12551   0.23185   0.89226   0.00000  Uiso   1.00
C357   C     0.19138   0.28438   0.55598   0.00000  Uiso   1.00
C358   C     0.12471   0.23161   0.94176   0.00000  Uiso   1.00
C359   C     0.16682   0.24997   0.52672   0.00000  Uiso   1.00
C360   C     0.16678   0.25001   0.97335   0.00000  Uiso   1.00
C361   C     0.06701   0.24976   0.73755   0.00000  Uiso   1.00
C362   C     0.26632   0.24978   0.76245   0.00000  Uiso   1.00
C363   C     0.01200   0.24949   0.73083   0.00000  Uiso   1.00
C364   C     0.32133   0.24951   0.76919   0.00000  Uiso   1.00
C365   C     0.12816   0.04659   0.76983   0.00000  Uiso   1.00
C366   C     0.12210   0.45284   0.72878   0.00000  Uiso   1.00
C367   C     0.12795   0.09283   0.77025   0.00000  Uiso   1.00
C368   C     0.12186   0.40659   0.72846   0.00000  Uiso   1.00
C369   C     0.16673   0.11606   0.75000   0.00000  Uiso   1.00
C370   C     0.16674   0.38362   0.74995   0.00000  Uiso   1.00
C371   C     0.20554   0.09301   0.72966   0.00000  Uiso   1.00
C372   C     0.21168   0.40658   0.77139   0.00000  Uiso   1.00
C373   C     0.20548   0.04676   0.73004   0.00000  Uiso   1.00
C374   C     0.21157   0.45283   0.77097   0.00000  Uiso   1.00
C375   C     0.16685   0.02381   0.74993   0.00000  Uiso   1.00
C376   C     0.16686   0.47571   0.74986   0.00000  Uiso   1.00
H377   H     0.32474   0.24947   0.69442   0.00000  Uiso   1.00
H378   H     0.00858   0.24951   0.80560   0.00000  Uiso   1.00
H379   H     0.09839   0.02833   0.78521   0.00000  Uiso   1.00
H380   H     0.08767   0.47099   0.71239   0.00000  Uiso   1.00
H381   H     0.23525   0.02864   0.71459   0.00000  Uiso   1.00
H382   H     0.24603   0.47097   0.78737   0.00000  Uiso   1.00
H383   H     0.12348   0.18961   0.61576   0.00000  Uiso   1.00
H384   H     0.24035   0.28255   0.88833   0.00000  Uiso   1.00
H385   H     0.21005   0.31027   0.62750   0.00000  Uiso   1.00
H386   H     0.09293   0.21755   0.86860   0.00000  Uiso   1.00
H387   H     0.21021   0.31213   0.54078   0.00000  Uiso   1.00
H388   H     0.09087   0.21765   0.95495   0.00000  Uiso   1.00
N389   N     0.16667   0.24999   0.62624   0.00000  Uiso   1.00
N390   N     0.16667   0.25001   0.87377   0.00000  Uiso   1.00
O391   O     0.16667   0.18454   0.78974   0.00000  Uiso   1.00
O392   O     0.16666   0.31547   0.71026   0.00000  Uiso   1.00
O393   O     0.16667   0.18453   0.71026   0.00000  Uiso   1.00
O394   O     0.16666   0.31547   0.78974   0.00000  Uiso   1.00
O395   O     0.09058   0.25000   0.78045   0.00000  Uiso   1.00
O396   O     0.24275   0.25000   0.71956   0.00000  Uiso   1.00
O397   O     0.09058   0.25000   0.70097   0.00000  Uiso   1.00
O398   O     0.24275   0.25001   0.79904   0.00000  Uiso   1.00
Zn399  Zn    0.16667   0.25001   0.80307   0.00000  Uiso   1.00
Zn400  Zn    0.16667   0.25000   0.69693   0.00000  Uiso   1.00
I401   I     0.06656   0.12476   0.80004   0.00000  Uiso   1.00
I402   I     0.05230   0.37371   0.69638   0.00000  Uiso   1.00
I403   I     0.26657   0.12525   0.69950   0.00000  Uiso   1.00
I404   I     0.28109   0.37364   0.80365   0.00000  Uiso   1.00
H405   H     0.12350   0.18777   0.52903   0.00000  Uiso   1.00
H406   H     0.24264   0.28242   0.97535   0.00000  Uiso   1.00
C407   C     0.49999   0.16394   0.75000   0.00000  Uiso   1.00
C408   C     0.50001   0.33594   0.74999   0.00000  Uiso   1.00
C409   C     0.47558   0.21554   0.54932   0.00000  Uiso   1.00
C410   C     0.54211   0.26844   0.95305   0.00000  Uiso   1.00
C411   C     0.47586   0.21626   0.59897   0.00000  Uiso   1.00
C412   C     0.54119   0.26821   0.90330   0.00000  Uiso   1.00
C413   C     0.52430   0.28367   0.60554   0.00000  Uiso   1.00
C414   C     0.45884   0.23185   0.89226   0.00000  Uiso   1.00
C415   C     0.52471   0.28438   0.55598   0.00000  Uiso   1.00
C416   C     0.45804   0.23161   0.94176   0.00000  Uiso   1.00
C417   C     0.50015   0.24997   0.52672   0.00000  Uiso   1.00
C418   C     0.50011   0.25001   0.97335   0.00000  Uiso   1.00
C419   C     0.40035   0.24976   0.73755   0.00000  Uiso   1.00
C420   C     0.59965   0.24978   0.76245   0.00000  Uiso   1.00
C421   C     0.34534   0.24949   0.73083   0.00000  Uiso   1.00
C422   C     0.65466   0.24951   0.76919   0.00000  Uiso   1.00
C423   C     0.46149   0.04659   0.76983   0.00000  Uiso   1.00
C424   C     0.45543   0.45284   0.72878   0.00000  Uiso   1.00
C425   C     0.46128   0.09283   0.77025   0.00000  Uiso   1.00
C426   C     0.45519   0.40659   0.72846   0.00000  Uiso   1.00
C427   C     0.50007   0.11606   0.75000   0.00000  Uiso   1.00
C428   C     0.50007   0.38362   0.74995   0.00000  Uiso   1.00
C429   C     0.53888   0.09301   0.72966   0.00000  Uiso   1.00
C430   C     0.54501   0.40658   0.77139   0.00000  Uiso   1.00
C431   C     0.53881   0.04676   0.73004   0.00000  Uiso   1.00
C432   C     0.54491   0.45283   0.77097   0.00000  Uiso   1.00
C433   C     0.50019   0.02381   0.74993   0.00000  Uiso   1.00
C434   C     0.50019   0.47571   0.74986   0.00000  Uiso   1.00
H435   H     0.65807   0.24947   0.69442   0.00000  Uiso   1.00
H436   H     0.34192   0.24951   0.80560   0.00000  Uiso   1.00
H437   H     0.43173   0.02833   0.78521   0.00000  Uiso   1.00
H438   H     0.42100   0.47099   0.71239   0.00000  Uiso   1.00
H439   H     0.56858   0.02864   0.71459   0.00000  Uiso   1.00
H440   H     0.57937   0.47097   0.78737   0.00000  Uiso   1.00
H441   H     0.45681   0.18961   0.61576   0.00000  Uiso   1.00
H442   H     0.57369   0.28255   0.88833   0.00000  Uiso   1.00
H443   H     0.54339   0.31027   0.62750   0.00000  Uiso   1.00
H444   H     0.42626   0.21755   0.86860   0.00000  Uiso   1.00
H445   H     0.54354   0.31213   0.54078   0.00000  Uiso   1.00
H446   H     0.42420   0.21765   0.95495   0.00000  Uiso   1.00
N447   N     0.50000   0.24999   0.62624   0.00000  Uiso   1.00
N448   N     0.50000   0.25001   0.87377   0.00000  Uiso   1.00
O449   O     0.50000   0.18454   0.78974   0.00000  Uiso   1.00
O450   O     0.50000   0.31547   0.71026   0.00000  Uiso   1.00
O451   O     0.50000   0.18453   0.71026   0.00000  Uiso   1.00
O452   O     0.50000   0.31547   0.78974   0.00000  Uiso   1.00
O453   O     0.42392   0.25000   0.78045   0.00000  Uiso   1.00
O454   O     0.57608   0.25000   0.71956   0.00000  Uiso   1.00
O455   O     0.42392   0.25000   0.70097   0.00000  Uiso   1.00
O456   O     0.57608   0.25001   0.79904   0.00000  Uiso   1.00
Zn457  Zn    0.50000   0.25001   0.80307   0.00000  Uiso   1.00
Zn458  Zn    0.50000   0.25000   0.69693   0.00000  Uiso   1.00
I459   I     0.39990   0.12476   0.80004   0.00000  Uiso   1.00
I460   I     0.38563   0.37371   0.69638   0.00000  Uiso   1.00
I461   I     0.59990   0.12525   0.69950   0.00000  Uiso   1.00
I462   I     0.61442   0.37364   0.80365   0.00000  Uiso   1.00
H463   H     0.45683   0.18777   0.52903   0.00000  Uiso   1.00
H464   H     0.57597   0.28242   0.97535   0.00000  Uiso   1.00
C465   C     0.83333   0.16394   0.75000   0.00000  Uiso   1.00
C466   C     0.83334   0.33594   0.74999   0.00000  Uiso   1.00
C467   C     0.80892   0.21554   0.54932   0.00000  Uiso   1.00
C468   C     0.87545   0.26844   0.95305   0.00000  Uiso   1.00
C469   C     0.80919   0.21626   0.59897   0.00000  Uiso   1.00
C470   C     0.87453   0.26821   0.90330   0.00000  Uiso   1.00
C471   C     0.85764   0.28367   0.60554   0.00000  Uiso   1.00
C472   C     0.79218   0.23185   0.89226   0.00000  Uiso   1.00
C473   C     0.85805   0.28438   0.55598   0.00000  Uiso   1.00
C474   C     0.79137   0.23161   0.94176   0.00000  Uiso   1.00
C475   C     0.83348   0.24997   0.52672   0.00000  Uiso   1.00
C476   C     0.83345   0.25001   0.97335   0.00000  Uiso   1.00
C477   C     0.73368   0.24976   0.73755   0.00000  Uiso   1.00
C478   C     0.93299   0.24978   0.76245   0.00000  Uiso   1.00
C479   C     0.67867   0.24949   0.73083   0.00000  Uiso   1.00
C480   C     0.98800   0.24951   0.76919   0.00000  Uiso   1.00
C481   C     0.79482   0.04659   0.76983   0.00000  Uiso   1.00
C482   C     0.78876   0.45284   0.72878   0.00000  Uiso   1.00
C483   C     0.79461   0.09283   0.77025   0.00000  Uiso   1.00
C484   C     0.78853   0.40659   0.72846   0.00000  Uiso   1.00
C485   C     0.83340   0.11606   0.75000   0.00000  Uiso   1.00
C486   C     0.83340   0.38362   0.74995   0.00000  Uiso   1.00
C487   C     0.87221   0.09301   0.72966   0.00000  Uiso   1.00
C488   C     0.87835   0.40658   0.77139   0.00000  Uiso   1.00
C489   C     0.87215   0.04676   0.73004   0.00000  Uiso   1.00
C490   C     0.87824   0.45283   0.77097   0.00000  Uiso   1.00
C491   C     0.83352   0.02381   0.74993   0.00000  Uiso   1.00
C492   C     0.83353   0.47571   0.74986   0.00000  Uiso   1.00
H493   H     0.99141   0.24947   0.69442   0.00000  Uiso   1.00
H494   H     0.67525   0.24951   0.80560   0.00000  Uiso   1.00
H495   H     0.76506   0.02833   0.78521   0.00000  Uiso   1.00
H496   H     0.75433   0.47099   0.71239   0.00000  Uiso   1.00
H497   H     0.90192   0.02864   0.71459   0.00000  Uiso   1.00
H498   H     0.91270   0.47097   0.78737   0.00000  Uiso   1.00
H499   H     0.79015   0.18961   0.61576   0.00000  Uiso   1.00
H500   H     0.90702   0.28255   0.88833   0.00000  Uiso   1.00
H501   H     0.87672   0.31027   0.62750   0.00000  Uiso   1.00
H502   H     0.75960   0.21755   0.86860   0.00000  Uiso   1.00
H503   H     0.87688   0.31213   0.54078   0.00000  Uiso   1.00
H504   H     0.75754   0.21765   0.95495   0.00000  Uiso   1.00
N505   N     0.83333   0.24999   0.62624   0.00000  Uiso   1.00
N506   N     0.83333   0.25001   0.87377   0.00000  Uiso   1.00
O507   O     0.83334   0.18454   0.78974   0.00000  Uiso   1.00
O508   O     0.83333   0.31547   0.71026   0.00000  Uiso   1.00
O509   O     0.83334   0.18453   0.71026   0.00000  Uiso   1.00
O510   O     0.83333   0.31547   0.78974   0.00000  Uiso   1.00
O511   O     0.75725   0.25000   0.78045   0.00000  Uiso   1.00
O512   O     0.90942   0.25000   0.71956   0.00000  Uiso   1.00
O513   O     0.75725   0.25000   0.70097   0.00000  Uiso   1.00
O514   O     0.90942   0.25001   0.79904   0.00000  Uiso   1.00
Zn515  Zn    0.83333   0.25001   0.80307   0.00000  Uiso   1.00
Zn516  Zn    0.83333   0.25000   0.69693   0.00000  Uiso   1.00
I517   I     0.73323   0.12476   0.80004   0.00000  Uiso   1.00
I518   I     0.71896   0.37371   0.69638   0.00000  Uiso   1.00
I519   I     0.93323   0.12525   0.69950   0.00000  Uiso   1.00
I520   I     0.94776   0.37364   0.80365   0.00000  Uiso   1.00
H521   H     0.79017   0.18777   0.52903   0.00000  Uiso   1.00
H522   H     0.90931   0.28242   0.97535   0.00000  Uiso   1.00
C523   C     0.16666   0.66394   0.75000   0.00000  Uiso   1.00
C524   C     0.16668   0.83594   0.74999   0.00000  Uiso   1.00
C525   C     0.14225   0.71554   0.54932   0.00000  Uiso   1.00
C526   C     0.20878   0.76844   0.95305   0.00000  Uiso   1.00
C527   C     0.14253   0.71626   0.59897   0.00000  Uiso   1.00
C528   C     0.20786   0.76821   0.90330   0.00000  Uiso   1.00
C529   C     0.19097   0.78367   0.60554   0.00000  Uiso   1.00
C530   C     0.12551   0.73185   0.89226   0.00000  Uiso   1.00
C531   C     0.19138   0.78438   0.55598   0.00000  Uiso   1.00
C532   C     0.12471   0.73161   0.94176   0.00000  Uiso   1.00
C533   C     0.16682   0.74997   0.52672   0.00000  Uiso   1.00
C534   C     0.16678   0.75001   0.97335   0.00000  Uiso   1.00
C535   C     0.06701   0.74976   0.73755   0.00000  Uiso   1.00
C536   C     0.26632   0.74978   0.76245   0.00000  Uiso   1.00
C537   C     0.01200   0.74949   0.73083   0.00000  Uiso   1.00
C538   C     0.32133   0.74951   0.76919   0.00000  Uiso   1.00
C539   C     0.12816   0.54659   0.76983   0.00000  Uiso   1.00
C540   C     0.12210   0.95284   0.72878   0.00000  Uiso   1.00
C541   C     0.12795   0.59283   0.77025   0.00000  Uiso   1.00
C542   C     0.12186   0.90659   0.72846   0.00000  Uiso   1.00
C543   C     0.16673   0.61606   0.75000   0.00000  Uiso   1.00
C544   C     0.16674   0.88362   0.74995   0.00000  Uiso   1.00
C545   C     0.20554   0.59301   0.72966   0.00000  Uiso   1.00
C546   C     0.21168   0.90658   0.77139   0.00000  Uiso   1.00
C547   C     0.20548   0.54676   0.73004   0.00000  Uiso   1.00
C548   C     0.21157   0.95283   0.77097   0.00000  Uiso   1.00
C549   C     0.16685   0.52381   0.74993   0.00000  Uiso   1.00
C550   C     0.16686   0.97571   0.74986   0.00000  Uiso   1.00
H551   H     0.32474   0.74947   0.69442   0.00000  Uiso   1.00
H552   H     0.00858   0.74951   0.80560   0.00000  Uiso   1.00
H553   H     0.09839   0.52833   0.78521   0.00000  Uiso   1.00
H554   H     0.08767   0.97099   0.71239   0.00000  Uiso   1.00
H555   H     0.23525   0.52864   0.71459   0.00000  Uiso   1.00
H556   H     0.24603   0.97097   0.78737   0.00000  Uiso   1.00
H557   H     0.12348   0.68961   0.61576   0.00000  Uiso   1.00
H558   H     0.24035   0.78255   0.88833   0.00000  Uiso   1.00
H559   H     0.21005   0.81027   0.62750   0.00000  Uiso   1.00
H560   H     0.09293   0.71755   0.86860   0.00000  Uiso   1.00
H561   H     0.21021   0.81213   0.54078   0.00000  Uiso   1.00
H562   H     0.09087   0.71765   0.95495   0.00000  Uiso   1.00
N563   N     0.16667   0.74999   0.62624   0.00000  Uiso   1.00
N564   N     0.16667   0.75001   0.87377   0.00000  Uiso   1.00
O565   O     0.16667   0.68454   0.78974   0.00000  Uiso   1.00
O566   O     0.16666   0.81547   0.71026   0.00000  Uiso   1.00
O567   O     0.16667   0.68453   0.71026   0.00000  Uiso   1.00
O568   O     0.16666   0.81547   0.78974   0.00000  Uiso   1.00
O569   O     0.09058   0.75000   0.78045   0.00000  Uiso   1.00
O570   O     0.24275   0.75000   0.71956   0.00000  Uiso   1.00
O571   O     0.09058   0.75000   0.70097   0.00000  Uiso   1.00
O572   O     0.24275   0.75001   0.79904   0.00000  Uiso   1.00
Zn573  Zn    0.16667   0.75001   0.80307   0.00000  Uiso   1.00
Zn574  Zn    0.16667   0.75000   0.69693   0.00000  Uiso   1.00
I575   I     0.06656   0.62476   0.80004   0.00000  Uiso   1.00
I576   I     0.05230   0.87371   0.69638   0.00000  Uiso   1.00
I577   I     0.26657   0.62525   0.69950   0.00000  Uiso   1.00
I578   I     0.28109   0.87364   0.80365   0.00000  Uiso   1.00
H579   H     0.12350   0.68777   0.52903   0.00000  Uiso   1.00
H580   H     0.24264   0.78242   0.97535   0.00000  Uiso   1.00
C581   C     0.49999   0.66394   0.75000   0.00000  Uiso   1.00
C582   C     0.50001   0.83594   0.74999   0.00000  Uiso   1.00
C583   C     0.47558   0.71554   0.54932   0.00000  Uiso   1.00
C584   C     0.54211   0.76844   0.95305   0.00000  Uiso   1.00
C585   C     0.47586   0.71626   0.59897   0.00000  Uiso   1.00
C586   C     0.54119   0.76821   0.90330   0.00000  Uiso   1.00
C587   C     0.52430   0.78367   0.60554   0.00000  Uiso   1.00
C588   C     0.45884   0.73185   0.89226   0.00000  Uiso   1.00
C589   C     0.52471   0.78438   0.55598   0.00000  Uiso   1.00
C590   C     0.45804   0.73161   0.94176   0.00000  Uiso   1.00
C591   C     0.50015   0.74997   0.52672   0.00000  Uiso   1.00
C592   C     0.50011   0.75001   0.97335   0.00000  Uiso   1.00
C593   C     0.40035   0.74976   0.73755   0.00000  Uiso   1.00
C594   C     0.59965   0.74978   0.76245   0.00000  Uiso   1.00
C595   C     0.34534   0.74949   0.73083   0.00000  Uiso   1.00
C596   C     0.65466   0.74951   0.76919   0.00000  Uiso   1.00
C597   C     0.46149   0.54659   0.76983   0.00000  Uiso   1.00
C598   C     0.45543   0.95284   0.72878   0.00000  Uiso   1.00
C599   C     0.46128   0.59283   0.77025   0.00000  Uiso   1.00
C600   C     0.45519   0.90659   0.72846   0.00000  Uiso   1.00
C601   C     0.50007   0.61606   0.75000   0.00000  Uiso   1.00
C602   C     0.50007   0.88362   0.74995   0.00000  Uiso   1.00
C603   C     0.53888   0.59301   0.72966   0.00000  Uiso   1.00
C604   C     0.54501   0.90658   0.77139   0.00000  Uiso   1.00
C605   C     0.53881   0.54676   0.73004   0.00000  Uiso   1.00
C606   C     0.54491   0.95283   0.77097   0.00000  Uiso   1.00
C607   C     0.50019   0.52381   0.74993   0.00000  Uiso   1.00
C608   C     0.50019   0.97571   0.74986   0.00000  Uiso   1.00
H609   H     0.65807   0.74947   0.69442   0.00000  Uiso   1.00
H610   H     0.34192   0.74951   0.80560   0.00000  Uiso   1.00
H611   H     0.43173   0.52833   0.78521   0.00000  Uiso   1.00
H612   H     0.42100   0.97099   0.71239   0.00000  Uiso   1.00
H613   H     0.56858   0.52864   0.71459   0.00000  Uiso   1.00
H614   H     0.57937   0.97097   0.78737   0.00000  Uiso   1.00
H615   H     0.45681   0.68961   0.61576   0.00000  Uiso   1.00
H616   H     0.57369   0.78255   0.88833   0.00000  Uiso   1.00
H617   H     0.54339   0.81027   0.62750   0.00000  Uiso   1.00
H618   H     0.42626   0.71755   0.86860   0.00000  Uiso   1.00
H619   H     0.54354   0.81213   0.54078   0.00000  Uiso   1.00
H620   H     0.42420   0.71765   0.95495   0.00000  Uiso   1.00
N621   N     0.50000   0.74999   0.62624   0.00000  Uiso   1.00
N622   N     0.50000   0.75001   0.87377   0.00000  Uiso   1.00
O623   O     0.50000   0.68454   0.78974   0.00000  Uiso   1.00
O624   O     0.50000   0.81547   0.71026   0.00000  Uiso   1.00
O625   O     0.50000   0.68453   0.71026   0.00000  Uiso   1.00
O626   O     0.50000   0.81547   0.78974   0.00000  Uiso   1.00
O627   O     0.42392   0.75000   0.78045   0.00000  Uiso   1.00
O628   O     0.57608   0.75000   0.71956   0.00000  Uiso   1.00
O629   O     0.42392   0.75000   0.70097   0.00000  Uiso   1.00
O630   O     0.57608   0.75001   0.79904   0.00000  Uiso   1.00
Zn631  Zn    0.50000   0.75001   0.80307   0.00000  Uiso   1.00
Zn632  Zn    0.50000   0.75000   0.69693   0.00000  Uiso   1.00
I633   I     0.39990   0.62476   0.80004   0.00000  Uiso   1.00
I634   I     0.38563   0.87371   0.69638   0.00000  Uiso   1.00
I635   I     0.59990   0.62525   0.69950   0.00000  Uiso   1.00
I636   I     0.61442   0.87364   0.80365   0.00000  Uiso   1.00
H637   H     0.45683   0.68777   0.52903   0.00000  Uiso   1.00
H638   H     0.57597   0.78242   0.97535   0.00000  Uiso   1.00
C639   C     0.83333   0.66394   0.75000   0.00000  Uiso   1.00
C640   C     0.83334   0.83594   0.74999   0.00000  Uiso   1.00
C641   C     0.80892   0.71554   0.54932   0.00000  Uiso   1.00
C642   C     0.87545   0.76844   0.95305   0.00000  Uiso   1.00
C643   C     0.80919   0.71626   0.59897   0.00000  Uiso   1.00
C644   C     0.87453   0.76821   0.90330   0.00000  Uiso   1.00
C645   C     0.85764   0.78367   0.60554   0.00000  Uiso   1.00
C646   C     0.79218   0.73185   0.89226   0.00000  Uiso   1.00
C647   C     0.85805   0.78438   0.55598   0.00000  Uiso   1.00
C648   C     0.79137   0.73161   0.94176   0.00000  Uiso   1.00
C649   C     0.83348   0.74997   0.52672   0.00000  Uiso   1.00
C650   C     0.83345   0.75001   0.97335   0.00000  Uiso   1.00
C651   C     0.73368   0.74976   0.73755   0.00000  Uiso   1.00
C652   C     0.93299   0.74978   0.76245   0.00000  Uiso   1.00
C653   C     0.67867   0.74949   0.73083   0.00000  Uiso   1.00
C654   C     0.98800   0.74951   0.76919   0.00000  Uiso   1.00
C655   C     0.79482   0.54659   0.76983   0.00000  Uiso   1.00
C656   C     0.78876   0.95284   0.72878   0.00000  Uiso   1.00
C657   C     0.79461   0.59283   0.77025   0.00000  Uiso   1.00
C658   C     0.78853   0.90659   0.72846   0.00000  Uiso   1.00
C659   C     0.83340   0.61606   0.75000   0.00000  Uiso   1.00
C660   C     0.83340   0.88362   0.74995   0.00000  Uiso   1.00
C661   C     0.87221   0.59301   0.72966   0.00000  Uiso   1.00
C662   C     0.87835   0.90658   0.77139   0.00000  Uiso   1.00
C663   C     0.87215   0.54676   0.73004   0.00000  Uiso   1.00
C664   C     0.87824   0.95283   0.77097   0.00000  Uiso   1.00
C665   C     0.83352   0.52381   0.74993   0.00000  Uiso   1.00
C666   C     0.83353   0.97571   0.74986   0.00000  Uiso   1.00
H667   H     0.99141   0.74947   0.69442   0.00000  Uiso   1.00
H668   H     0.67525   0.74951   0.80560   0.00000  Uiso   1.00
H669   H     0.76506   0.52833   0.78521   0.00000  Uiso   1.00
H670   H     0.75433   0.97099   0.71239   0.00000  Uiso   1.00
H671   H     0.90192   0.52864   0.71459   0.00000  Uiso   1.00
H672   H     0.91270   0.97097   0.78737   0.00000  Uiso   1.00
H673   H     0.79015   0.68961   0.61576   0.00000  Uiso   1.00
H674   H     0.90702   0.78255   0.88833   0.00000  Uiso   1.00
H675   H     0.87672   0.81027   0.62750   0.00000  Uiso   1.00
H676   H     0.75960   0.71755   0.86860   0.00000  Uiso   1.00
H677   H     0.87688   0.81213   0.54078   0.00000  Uiso   1.00
H678   H     0.75754   0.71765   0.95495   0.00000  Uiso   1.00
N679   N     0.83333   0.74999   0.62624   0.00000  Uiso   1.00
N680   N     0.83333   0.75001   0.87377   0.00000  Uiso   1.00
O681   O     0.83334   0.68454   0.78974   0.00000  Uiso   1.00
O682   O     0.83333   0.81547   0.71026   0.00000  Uiso   1.00
O683   O     0.83334   0.68453   0.71026   0.00000  Uiso   1.00
O684   O     0.83333   0.81547   0.78974   0.00000  Uiso   1.00
O685   O     0.75725   0.75000   0.78045   0.00000  Uiso   1.00
O686   O     0.90942   0.75000   0.71956   0.00000  Uiso   1.00
O687   O     0.75725   0.75000   0.70097   0.00000  Uiso   1.00
O688   O     0.90942   0.75001   0.79904   0.00000  Uiso   1.00
Zn689  Zn    0.83333   0.75001   0.80307   0.00000  Uiso   1.00
Zn690  Zn    0.83333   0.75000   0.69693   0.00000  Uiso   1.00
I691   I     0.73323   0.62476   0.80004   0.00000  Uiso   1.00
I692   I     0.71896   0.87371   0.69638   0.00000  Uiso   1.00
I693   I     0.93323   0.62525   0.69950   0.00000  Uiso   1.00
I694   I     0.94776   0.87364   0.80365   0.00000  Uiso   1.00
H695   H     0.79017   0.68777   0.52903   0.00000  Uiso   1.00
H696   H     0.90931   0.78242   0.97535   0.00000  Uiso   1.00
loop_
_geom_bond_atom_site_label_1
_geom_bond_atom_site_label_2
_geom_bond_distance
_geom_bond_site_symmetry_2
_ccdc_geom_bond_type
C1     C21     1.431   .     S
C1     O43     1.284   .     A
C1     O45     1.284   .     A
C2     C22     1.425   .     S
C2     O46     1.282   .     A
C2     O44     1.282   .     A
C3     C11     1.411   .     A
C3     H57     1.082   .     S
C3     C5      1.407   .     A
C4     C6      1.407   .     A
C4     C12     1.411   .     A
C4     H58     1.082   .     S
C5     H35     1.082   .     S
C5     N41     1.363   .     A
C6     N42     1.363   .     A
C6     H36     1.082   .     S
C7     H37     1.082   .     S
C7     N41     1.363   .     A
C7     C9      1.407   .     A
C8     H38     1.081   .     S
C8     N42     1.363   .     A
C8     C10     1.407   .     A
C9     H39     1.082   .     S
C9     C11     1.411   .     A
C10    H40     1.082   .     S
C10    C12     1.410   .     A
C11    C360    1.513   1_554 S
C12    C359    1.513   .     S
C13    C15     1.401   .     S
C13    O49     1.278   .     A
C13    O47     1.276   .     A
C14    O48     1.276   .     A
C14    C16     1.401   .     S
C14    O50     1.278   .     A
C15    C132    1.329   1_455 S
C15    H145    1.088   1_455 S
C16    C73     1.329   .     S
C16    H88     1.088   .     S
C17    H31     1.084   .     S
C17    C27     1.394   .     A
C17    C19     1.382   .     A
C18    H32     1.084   .     S
C18    C20     1.382   .     A
C18    C28     1.396   .     A
C19    I53     2.127   .     S
C19    C21     1.407   .     A
C20    C22     1.403   .     A
C20    I54     2.125   .     S
C21    C23     1.407   .     A
C22    C24     1.404   .     A
C23    I55     2.128   .     S
C23    C25     1.382   .     A
C24    I56     2.125   .     S
C24    C26     1.382   .     A
C25    H33     1.084   .     S
C25    C27     1.394   .     A
C26    C28     1.396   .     A
C26    H34     1.084   .     S
C27    C202    1.438   1_545 S
C28    C201    1.438   .     S
H29    C73     1.088   .     S
H30    C132    1.088   1_455 S
N41    Zn52    2.005   .     S
N42    Zn51    2.005   .     S
O43    Zn51    1.993   .     S
O44    Zn52    1.993   .     S
O45    Zn52    1.993   .     S
O46    Zn51    1.993   .     S
O47    Zn51    1.969   .     S
O48    Zn52    1.969   .     S
O49    Zn52    1.980   .     S
O50    Zn51    1.980   .     S
C59    C79     1.431   .     S
C59    O101    1.284   .     A
C59    O103    1.284   .     A
C60    C80     1.425   .     S
C60    O104    1.282   .     A
C60    O102    1.282   .     A
C61    C69     1.411   .     A
C61    H115    1.082   .     S
C61    C63     1.407   .     A
C62    C64     1.407   .     A
C62    C70     1.411   .     A
C62    H116    1.082   .     S
C63    H93     1.082   .     S
C63    N99     1.363   .     A
C64    N100    1.363   .     A
C64    H94     1.082   .     S
C65    H95     1.082   .     S
C65    N99     1.363   .     A
C65    C67     1.407   .     A
C66    H96     1.081   .     S
C66    N100    1.363   .     A
C66    C68     1.407   .     A
C67    H97     1.082   .     S
C67    C69     1.411   .     A
C68    H98     1.082   .     S
C68    C70     1.410   .     A
C69    C418    1.513   1_554 S
C70    C417    1.513   .     S
C71    C73     1.401   .     S
C71    O107    1.278   .     A
C71    O105    1.276   .     A
C72    O106    1.276   .     A
C72    C74     1.401   .     S
C72    O108    1.278   .     A
C74    C131    1.329   .     S
C74    H146    1.088   .     S
C75    H89     1.084   .     S
C75    C85     1.394   .     A
C75    C77     1.382   .     A
C76    H90     1.084   .     S
C76    C78     1.382   .     A
C76    C86     1.396   .     A
C77    I111    2.127   .     S
C77    C79     1.407   .     A
C78    C80     1.403   .     A
C78    I112    2.125   .     S
C79    C81     1.407   .     A
C80    C82     1.404   .     A
C81    I113    2.128   .     S
C81    C83     1.382   .     A
C82    I114    2.125   .     S
C82    C84     1.382   .     A
C83    H91     1.084   .     S
C83    C85     1.394   .     A
C84    C86     1.396   .     A
C84    H92     1.084   .     S
C85    C260    1.438   1_545 S
C86    C259    1.438   .     S
H87    C131    1.088   .     S
N99    Zn110   2.005   .     S
N100   Zn109   2.005   .     S
O101   Zn109   1.993   .     S
O102   Zn110   1.993   .     S
O103   Zn110   1.993   .     S
O104   Zn109   1.993   .     S
O105   Zn109   1.969   .     S
O106   Zn110   1.969   .     S
O107   Zn110   1.980   .     S
O108   Zn109   1.980   .     S
C117   C137    1.431   .     S
C117   O159    1.284   .     A
C117   O161    1.284   .     A
C118   C138    1.425   .     S
C118   O162    1.282   .     A
C118   O160    1.282   .     A
C119   C127    1.411   .     A
C119   H173    1.082   .     S
C119   C121    1.407   .     A
C120   C122    1.407   .     A
C120   C128    1.411   .     A
C120   H174    1.082   .     S
C121   H151    1.082   .     S
C121   N157    1.363   .     A
C122   N158    1.363   .     A
C122   H152    1.082   .     S
C123   H153    1.082   .     S
C123   N157    1.363   .     A
C123   C125    1.407   .     A
C124   H154    1.081   .     S
C124   N158    1.363   .     A
C124   C126    1.407   .     A
C125   H155    1.082   .     S
C125   C127    1.411   .     A
C126   H156    1.082   .     S
C126   C128    1.410   .     A
C127   C476    1.513   1_554 S
C128   C475    1.513   .     S
C129   C131    1.401   .     S
C129   O165    1.278   .     A
C129   O163    1.276   .     A
C130   O164    1.276   .     A
C130   C132    1.401   .     S
C130   O166    1.278   .     A
C132   C15     1.329   1_655 S
C132   H30     1.088   1_655 S
C133   H147    1.084   .     S
C133   C143    1.394   .     A
C133   C135    1.382   .     A
C134   H148    1.084   .     S
C134   C136    1.382   .     A
C134   C144    1.396   .     A
C135   I169    2.127   .     S
C135   C137    1.407   .     A
C136   C138    1.403   .     A
C136   I170    2.125   .     S
C137   C139    1.407   .     A
C138   C140    1.404   .     A
C139   I171    2.128   .     S
C139   C141    1.382   .     A
C140   I172    2.125   .     S
C140   C142    1.382   .     A
C141   H149    1.084   .     S
C141   C143    1.394   .     A
C142   C144    1.396   .     A
C142   H150    1.084   .     S
C143   C318    1.438   1_545 S
C144   C317    1.438   .     S
H145   C15     1.088   1_655 S
N157   Zn168   2.005   .     S
N158   Zn167   2.005   .     S
O159   Zn167   1.993   .     S
O160   Zn168   1.993   .     S
O161   Zn168   1.993   .     S
O162   Zn167   1.993   .     S
O163   Zn167   1.969   .     S
O164   Zn168   1.969   .     S
O165   Zn168   1.980   .     S
O166   Zn167   1.980   .     S
C175   C195    1.431   .     S
C175   O217    1.284   .     A
C175   O219    1.284   .     A
C176   C196    1.425   .     S
C176   O220    1.282   .     A
C176   O218    1.282   .     A
C177   C185    1.411   .     A
C177   H231    1.082   .     S
C177   C179    1.407   .     A
C178   C180    1.407   .     A
C178   C186    1.411   .     A
C178   H232    1.082   .     S
C179   H209    1.082   .     S
C179   N215    1.363   .     A
C180   N216    1.363   .     A
C180   H210    1.082   .     S
C181   H211    1.082   .     S
C181   N215    1.363   .     A
C181   C183    1.407   .     A
C182   H212    1.081   .     S
C182   N216    1.363   .     A
C182   C184    1.407   .     A
C183   H213    1.082   .     S
C183   C185    1.411   .     A
C184   H214    1.082   .     S
C184   C186    1.410   .     A
C185   C534    1.513   1_554 S
C186   C533    1.513   .     S
C187   C189    1.401   .     S
C187   O223    1.278   .     A
C187   O221    1.276   .     A
C188   O222    1.276   .     A
C188   C190    1.401   .     S
C188   O224    1.278   .     A
C189   C306    1.329   1_455 S
C189   H319    1.088   1_455 S
C190   C247    1.329   .     S
C190   H262    1.088   .     S
C191   H205    1.084   .     S
C191   C201    1.394   .     A
C191   C193    1.382   .     A
C192   H206    1.084   .     S
C192   C194    1.382   .     A
C192   C202    1.396   .     A
C193   I227    2.127   .     S
C193   C195    1.407   .     A
C194   C196    1.403   .     A
C194   I228    2.125   .     S
C195   C197    1.407   .     A
C196   C198    1.404   .     A
C197   I229    2.128   .     S
C197   C199    1.382   .     A
C198   I230    2.125   .     S
C198   C200    1.382   .     A
C199   H207    1.084   .     S
C199   C201    1.394   .     A
C200   C202    1.396   .     A
C200   H208    1.084   .     S
C202   C27     1.438   1_565 S
H203   C247    1.088   .     S
H204   C306    1.088   1_455 S
N215   Zn226   2.005   .     S
N216   Zn225   2.005   .     S
O217   Zn225   1.993   .     S
O218   Zn226   1.993   .     S
O219   Zn226   1.993   .     S
O220   Zn225   1.993   .     S
O221   Zn225   1.969   .     S
O222   Zn226   1.969   .     S
O223   Zn226   1.980   .     S
O224   Zn225   1.980   .     S
C233   C253    1.431   .     S
C233   O275    1.284   .     A
C233   O277    1.284   .     A
C234   C254    1.425   .     S
C234   O278    1.282   .     A
C234   O276    1.282   .     A
C235   C243    1.411   .     A
C235   H289    1.082   .     S
C235   C237    1.407   .     A
C236   C238    1.407   .     A
C236   C244    1.411   .     A
C236   H290    1.082   .     S
C237   H267    1.082   .     S
C237   N273    1.363   .     A
C238   N274    1.363   .     A
C238   H268    1.082   .     S
C239   H269    1.082   .     S
C239   N273    1.363   .     A
C239   C241    1.407   .     A
C240   H270    1.081   .     S
C240   N274    1.363   .     A
C240   C242    1.407   .     A
C241   H271    1.082   .     S
C241   C243    1.411   .     A
C242   H272    1.082   .     S
C242   C244    1.410   .     A
C243   C592    1.513   1_554 S
C244   C591    1.513   .     S
C245   C247    1.401   .     S
C245   O281    1.278   .     A
C245   O279    1.276   .     A
C246   O280    1.276   .     A
C246   C248    1.401   .     S
C246   O282    1.278   .     A
C248   C305    1.329   .     S
C248   H320    1.088   .     S
C249   H263    1.084   .     S
C249   C259    1.394   .     A
C249   C251    1.382   .     A
C250   H264    1.084   .     S
C250   C252    1.382   .     A
C250   C260    1.396   .     A
C251   I285    2.127   .     S
C251   C253    1.407   .     A
C252   C254    1.403   .     A
C252   I286    2.125   .     S
C253   C255    1.407   .     A
C254   C256    1.404   .     A
C255   I287    2.128   .     S
C255   C257    1.382   .     A
C256   I288    2.125   .     S
C256   C258    1.382   .     A
C257   H265    1.084   .     S
C257   C259    1.394   .     A
C258   C260    1.396   .     A
C258   H266    1.084   .     S
C260   C85     1.438   1_565 S
H261   C305    1.088   .     S
N273   Zn284   2.005   .     S
N274   Zn283   2.005   .     S
O275   Zn283   1.993   .     S
O276   Zn284   1.993   .     S
O277   Zn284   1.993   .     S
O278   Zn283   1.993   .     S
O279   Zn283   1.969   .     S
O280   Zn284   1.969   .     S
O281   Zn284   1.980   .     S
O282   Zn283   1.980   .     S
C291   C311    1.431   .     S
C291   O333    1.284   .     A
C291   O335    1.284   .     A
C292   C312    1.425   .     S
C292   O336    1.282   .     A
C292   O334    1.282   .     A
C293   C301    1.411   .     A
C293   H347    1.082   .     S
C293   C295    1.407   .     A
C294   C296    1.407   .     A
C294   C302    1.411   .     A
C294   H348    1.082   .     S
C295   H325    1.082   .     S
C295   N331    1.363   .     A
C296   N332    1.363   .     A
C296   H326    1.082   .     S
C297   H327    1.082   .     S
C297   N331    1.363   .     A
C297   C299    1.407   .     A
C298   H328    1.081   .     S
C298   N332    1.363   .     A
C298   C300    1.407   .     A
C299   H329    1.082   .     S
C299   C301    1.411   .     A
C300   H330    1.082   .     S
C300   C302    1.410   .     A
C301   C650    1.513   1_554 S
C302   C649    1.513   .     S
C303   C305    1.401   .     S
C303   O339    1.278   .     A
C303   O337    1.276   .     A
C304   O338    1.276   .     A
C304   C306    1.401   .     S
C304   O340    1.278   .     A
C306   C189    1.329   1_655 S
C306   H204    1.088   1_655 S
C307   H321    1.084   .     S
C307   C317    1.394   .     A
C307   C309    1.382   .     A
C308   H322    1.084   .     S
C308   C310    1.382   .     A
C308   C318    1.396   .     A
C309   I343    2.127   .     S
C309   C311    1.407   .     A
C310   C312    1.403   .     A
C310   I344    2.125   .     S
C311   C313    1.407   .     A
C312   C314    1.404   .     A
C313   I345    2.128   .     S
C313   C315    1.382   .     A
C314   I346    2.125   .     S
C314   C316    1.382   .     A
C315   H323    1.084   .     S
C315   C317    1.394   .     A
C316   C318    1.396   .     A
C316   H324    1.084   .     S
C318   C143    1.438   1_565 S
H319   C189    1.088   1_655 S
N331   Zn342   2.005   .     S
N332   Zn341   2.005   .     S
O333   Zn341   1.993   .     S
O334   Zn342   1.993   .     S
O335   Zn342   1.993   .     S
O336   Zn341   1.993   .     S
O337   Zn341   1.969   .     S
O338   Zn342   1.969   .     S
O339   Zn342   1.980   .     S
O340   Zn341   1.980   .     S
C349   C369    1.431   .     S
C349   O391    1.284   .     A
C349   O393    1.284   .     A
C350   C370    1.425   .     S
C350   O394    1.282   .     A
C350   O392    1.282   .     A
C351   C359    1.411   .     A
C351   H405    1.082   .     S
C351   C353    1.407   .     A
C352   C354    1.407   .     A
C352   C360    1.411   .     A
C352   H406    1.082   .     S
C353   H383    1.082   .     S
C353   N389    1.363   .     A
C354   N390    1.363   .     A
C354   H384    1.082   .     S
C355   H385    1.082   .     S
C355   N389    1.363   .     A
C355   C357    1.407   .     A
C356   H386    1.081   .     S
C356   N390    1.363   .     A
C356   C358    1.407   .     A
C357   H387    1.082   .     S
C357   C359    1.411   .     A
C358   H388    1.082   .     S
C358   C360    1.410   .     A
C360   C11     1.513   1_556 S
C361   C363    1.401   .     S
C361   O397    1.278   .     A
C361   O395    1.276   .     A
C362   O396    1.276   .     A
C362   C364    1.401   .     S
C362   O398    1.278   .     A
C363   C480    1.329   1_455 S
C363   H493    1.088   1_455 S
C364   C421    1.329   .     S
C364   H436    1.088   .     S
C365   H379    1.084   .     S
C365   C375    1.394   .     A
C365   C367    1.382   .     A
C366   H380    1.084   .     S
C366   C368    1.382   .     A
C366   C376    1.396   .     A
C367   I401    2.127   .     S
C367   C369    1.407   .     A
C368   C370    1.403   .     A
C368   I402    2.125   .     S
C369   C371    1.407   .     A
C370   C372    1.404   .     A
C371   I403    2.128   .     S
C371   C373    1.382   .     A
C372   I404    2.125   .     S
C372   C374    1.382   .     A
C373   H381    1.084   .     S
C373   C375    1.394   .     A
C374   C376    1.396   .     A
C374   H382    1.084   .     S
C375   C550    1.438   1_545 S
C376   C549    1.438   .     S
H377   C421    1.088   .     S
H378   C480    1.088   1_455 S
N389   Zn400   2.005   .     S
N390   Zn399   2.005   .     S
O391   Zn399   1.993   .     S
O392   Zn400   1.993   .     S
O393   Zn400   1.993   .     S
O394   Zn399   1.993   .     S
O395   Zn399   1.969   .     S
O396   Zn400   1.969   .     S
O397   Zn400   1.980   .     S
O398   Zn399   1.980   .     S
C407   C427    1.431   .     S
C407   O449    1.284   .     A
C407   O451    1.284   .     A
C408   C428    1.425   .     S
C408   O452    1.282   .     A
C408   O450    1.282   .     A
C409   C417    1.411   .     A
C409   H463    1.082   .     S
C409   C411    1.407   .     A
C410   C412    1.407   .     A
C410   C418    1.411   .     A
C410   H464    1.082   .     S
C411   H441    1.082   .     S
C411   N447    1.363   .     A
C412   N448    1.363   .     A
C412   H442    1.082   .     S
C413   H443    1.082   .     S
C413   N447    1.363   .     A
C413   C415    1.407   .     A
C414   H444    1.081   .     S
C414   N448    1.363   .     A
C414   C416    1.407   .     A
C415   H445    1.082   .     S
C415   C417    1.411   .     A
C416   H446    1.082   .     S
C416   C418    1.410   .     A
C418   C69     1.513   1_556 S
C419   C421    1.401   .     S
C419   O455    1.278   .     A
C419   O453    1.276   .     A
C420   O454    1.276   .     A
C420   C422    1.401   .     S
C420   O456    1.278   .     A
C422   C479    1.329   .     S
C422   H494    1.088   .     S
C423   H437    1.084   .     S
C423   C433    1.394   .     A
C423   C425    1.382   .     A
C424   H438    1.084   .     S
C424   C426    1.382   .     A
C424   C434    1.396   .     A
C425   I459    2.127   .     S
C425   C427    1.407   .     A
C426   C428    1.403   .     A
C426   I460    2.125   .     S
C427   C429    1.407   .     A
C428   C430    1.404   .     A
C429   I461    2.128   .     S
C429   C431    1.382   .     A
C430   I462    2.125   .     S
C430   C432    1.382   .     A
C431   H439    1.084   .     S
C431   C433    1.394   .     A
C432   C434    1.396   .     A
C432   H440    1.084   .     S
C433   C608    1.438   1_545 S
C434   C607    1.438   .     S
H435   C479    1.088   .     S
N447   Zn458   2.005   .     S
N448   Zn457   2.005   .     S
O449   Zn457   1.993   .     S
O450   Zn458   1.993   .     S
O451   Zn458   1.993   .     S
O452   Zn457   1.993   .     S
O453   Zn457   1.969   .     S
O454   Zn458   1.969   .     S
O455   Zn458   1.980   .     S
O456   Zn457   1.980   .     S
C465   C485    1.431   .     S
C465   O507    1.284   .     A
C465   O509    1.284   .     A
C466   C486    1.425   .     S
C466   O510    1.282   .     A
C466   O508    1.282   .     A
C467   C475    1.411   .     A
C467   H521    1.082   .     S
C467   C469    1.407   .     A
C468   C470    1.407   .     A
C468   C476    1.411   .     A
C468   H522    1.082   .     S
C469   H499    1.082   .     S
C469   N505    1.363   .     A
C470   N506    1.363   .     A
C470   H500    1.082   .     S
C471   H501    1.082   .     S
C471   N505    1.363   .     A
C471   C473    1.407   .     A
C472   H502    1.081   .     S
C472   N506    1.363   .     A
C472   C474    1.407   .     A
C473   H503    1.082   .     S
C473   C475    1.411   .     A
C474   H504    1.082   .     S
C474   C476    1.410   .     A
C476   C127    1.513   1_556 S
C477   C479    1.401   .     S
C477   O513    1.278   .     A
C477   O511    1.276   .     A
C478   O512    1.276   .     A
C478   C480    1.401   .     S
C478   O514    1.278   .     A
C480   C363    1.329   1_655 S
C480   H378    1.088   1_655 S
C481   H495    1.084   .     S
C481   C491    1.394   .     A
C481   C483    1.382   .     A
C482   H496    1.084   .     S
C482   C484    1.382   .     A
C482   C492    1.396   .     A
C483   I517    2.127   .     S
C483   C485    1.407   .     A
C484   C486    1.403   .     A
C484   I518    2.125   .     S
C485   C487    1.407   .     A
C486   C488    1.404   .     A
C487   I519    2.128   .     S
C487   C489    1.382   .     A
C488   I520    2.125   .     S
C488   C490    1.382   .     A
C489   H497    1.084   .     S
C489   C491    1.394   .     A
C490   C492    1.396   .     A
C490   H498    1.084   .     S
C491   C666    1.438   1_545 S
C492   C665    1.438   .     S
H493   C363    1.088   1_655 S
N505   Zn516   2.005   .     S
N506   Zn515   2.005   .     S
O507   Zn515   1.993   .     S
O508   Zn516   1.993   .     S
O509   Zn516   1.993   .     S
O510   Zn515   1.993   .     S
O511   Zn515   1.969   .     S
O512   Zn516   1.969   .     S
O513   Zn516   1.980   .     S
O514   Zn515   1.980   .     S
C523   C543    1.431   .     S
C523   O565    1.284   .     A
C523   O567    1.284   .     A
C524   C544    1.425   .     S
C524   O568    1.282   .     A
C524   O566    1.282   .     A
C525   C533    1.411   .     A
C525   H579    1.082   .     S
C525   C527    1.407   .     A
C526   C528    1.407   .     A
C526   C534    1.411   .     A
C526   H580    1.082   .     S
C527   H557    1.082   .     S
C527   N563    1.363   .     A
C528   N564    1.363   .     A
C528   H558    1.082   .     S
C529   H559    1.082   .     S
C529   N563    1.363   .     A
C529   C531    1.407   .     A
C530   H560    1.081   .     S
C530   N564    1.363   .     A
C530   C532    1.407   .     A
C531   H561    1.082   .     S
C531   C533    1.411   .     A
C532   H562    1.082   .     S
C532   C534    1.410   .     A
C534   C185    1.513   1_556 S
C535   C537    1.401   .     S
C535   O571    1.278   .     A
C535   O569    1.276   .     A
C536   O570    1.276   .     A
C536   C538    1.401   .     S
C536   O572    1.278   .     A
C537   C654    1.329   1_455 S
C537   H667    1.088   1_455 S
C538   C595    1.329   .     S
C538   H610    1.088   .     S
C539   H553    1.084   .     S
C539   C549    1.394   .     A
C539   C541    1.382   .     A
C540   H554    1.084   .     S
C540   C542    1.382   .     A
C540   C550    1.396   .     A
C541   I575    2.127   .     S
C541   C543    1.407   .     A
C542   C544    1.403   .     A
C542   I576    2.125   .     S
C543   C545    1.407   .     A
C544   C546    1.404   .     A
C545   I577    2.128   .     S
C545   C547    1.382   .     A
C546   I578    2.125   .     S
C546   C548    1.382   .     A
C547   H555    1.084   .     S
C547   C549    1.394   .     A
C548   C550    1.396   .     A
C548   H556    1.084   .     S
C550   C375    1.438   1_565 S
H551   C595    1.088   .     S
H552   C654    1.088   1_455 S
N563   Zn574   2.005   .     S
N564   Zn573   2.005   .     S
O565   Zn573   1.993   .     S
O566   Zn574   1.993   .     S
O567   Zn574   1.993   .     S
O568   Zn573   1.993   .     S
O569   Zn573   1.969   .     S
O570   Zn574   1.969   .     S
O571   Zn574   1.980   .     S
O572   Zn573   1.980   .     S
C581   C601    1.431   .     S
C581   O623    1.284   .     A
C581   O625    1.284   .     A
C582   C602    1.425   .     S
C582   O626    1.282   .     A
C582   O624    1.282   .     A
C583   C591    1.411   .     A
C583   H637    1.082   .     S
C583   C585    1.407   .     A
C584   C586    1.407   .     A
C584   C592    1.411   .     A
C584   H638    1.082   .     S
C585   H615    1.082   .     S
C585   N621    1.363   .     A
C586   N622    1.363   .     A
C586   H616    1.082   .     S
C587   H617    1.082   .     S
C587   N621    1.363   .     A
C587   C589    1.407   .     A
C588   H618    1.081   .     S
C588   N622    1.363   .     A
C588   C590    1.407   .     A
C589   H619    1.082   .     S
C589   C591    1.411   .     A
C590   H620    1.082   .     S
C590   C592    1.410   .     A
C592   C243    1.513   1_556 S
C593   C595    1.401   .     S
C593   O629    1.278   .     A
C593   O627    1.276   .     A
C594   O628    1.276   .     A
C594   C596    1.401   .     S
C594   O630    1.278   .     A
C596   C653    1.329   .     S
C596   H668    1.088   .     S
C597   H611    1.084   .     S
C597   C607    1.394   .     A
C597   C599    1.382   .     A
C598   H612    1.084   .     S
C598   C600    1.382   .     A
C598   C608    1.396   .     A
C599   I633    2.127   .     S
C599   C601    1.407   .     A
C600   C602    1.403   .     A
C600   I634    2.125   .     S
C601   C603    1.407   .     A
C602   C604    1.404   .     A
C603   I635    2.128   .     S
C603   C605    1.382   .     A
C604   I636    2.125   .     S
C604   C606    1.382   .     A
C605   H613    1.084   .     S
C605   C607    1.394   .     A
C606   C608    1.396   .     A
C606   H614    1.084   .     S
C608   C433    1.438   1_565 S
H609   C653    1.088   .     S
N621   Zn632   2.005   .     S
N622   Zn631   2.005   .     S
O623   Zn631   1.993   .     S
O624   Zn632   1.993   .     S
O625   Zn632   1.993   .     S
O626   Zn631   1.993   .     S
O627   Zn631   1.969   .     S
O628   Zn632   1.969   .     S
O629   Zn632   1.980   .     S
O630   Zn631   1.980   .     S
C639   C659    1.431   .     S
C639   O681    1.284   .     A
C639   O683    1.284   .     A
C640   C660    1.425   .     S
C640   O684    1.282   .     A
C640   O682    1.282   .     A
C641   C649    1.411   .     A
C641   H695    1.082   .     S
C641   C643    1.407   .     A
C642   C644    1.407   .     A
C642   C650    1.411   .     A
C642   H696    1.082   .     S
C643   H673    1.082   .     S
C643   N679    1.363   .     A
C644   N680    1.363   .     A
C644   H674    1.082   .     S
C645   H675    1.082   .     S
C645   N679    1.363   .     A
C645   C647    1.407   .     A
C646   H676    1.081   .     S
C646   N680    1.363   .     A
C646   C648    1.407   .     A
C647   H677    1.082   .     S
C647   C649    1.411   .     A
C648   H678    1.082   .     S
C648   C650    1.410   .     A
C650   C301    1.513   1_556 S
C651   C653    1.401   .     S
C651   O687    1.278   .     A
C651   O685    1.276   .     A
C652   O686    1.276   .     A
C652   C654    1.401   .     S
C652   O688    1.278   .     A
C654   C537    1.329   1_655 S
C654   H552    1.088   1_655 S
C655   H669    1.084   .     S
C655   C665    1.394   .     A
C655   C657    1.382   .     A
C656   H670    1.084   .     S
C656   C658    1.382   .     A
C656   C666    1.396   .     A
C657   I691    2.127   .     S
C657   C659    1.407   .     A
C658   C660    1.403   .     A
C658   I692    2.125   .     S
C659   C661    1.407   .     A
C660   C662    1.404   .     A
C661   I693    2.128   .     S
C661   C663    1.382   .     A
C662   I694    2.125   .     S
C662   C664    1.382   .     A
C663   H671    1.084   .     S
C663   C665    1.394   .     A
C664   C666    1.396   .     A
C664   H672    1.084   .     S
C666   C491    1.438   1_565 S
H667   C537    1.088   1_655 S
N679   Zn690   2.005   .     S
N680   Zn689   2.005   .     S
O681   Zn689   1.993   .     S
O682   Zn690   1.993   .     S
O683   Zn690   1.993   .     S
O684   Zn689   1.993   .     S
O685   Zn689   1.969   .     S
O686   Zn690   1.969   .     S
O687   Zn690   1.980   .     S
O688   Zn689   1.980   .     S
