data_str_m3_o1_o16_pcu_sym.102
_audit_creation_date              2020-01-03
_audit_creation_method            'Materials Studio'
_symmetry_space_group_name_H-M    'P1'
_symmetry_Int_Tables_number       1
_symmetry_cell_setting            triclinic
loop_
_symmetry_equiv_pos_as_xyz
  x,y,z
_cell_length_a                    29.8054
_cell_length_b                    31.7656
_cell_length_c                    26.3606
_cell_angle_alpha                 89.5923
_cell_angle_beta                  71.0645
_cell_angle_gamma                 89.5820
loop_
_atom_site_label
_atom_site_type_symbol
_atom_site_fract_x
_atom_site_fract_y
_atom_site_fract_z
_atom_site_U_iso_or_equiv
_atom_site_adp_type
_atom_site_occupancy
C1     C     0.16656   0.24649   0.24996   0.00000  Uiso   1.00
C2     C     0.14648   0.18051   0.49139   0.00000  Uiso   1.00
C3     C     0.15937   0.18749   0.43557   0.00000  Uiso   1.00
C4     C     0.18362   0.17885   0.01349   0.00000  Uiso   1.00
C5     C     0.23081   0.17330   0.48004   0.00000  Uiso   1.00
C6     C     0.24287   0.18961   0.42785   0.00000  Uiso   1.00
C7     C     0.20653   0.19964   0.40756   0.00000  Uiso   1.00
C8     C     0.17603   0.18345   0.06736   0.00000  Uiso   1.00
C9     C     0.24973   0.14639   0.05719   0.00000  Uiso   1.00
C10    C     0.12574   0.17995   0.40925   0.00000  Uiso   1.00
C11    C     0.15942   0.31182   0.29829   0.00000  Uiso   1.00
C12    C     0.14085   0.17105   0.35141   0.00000  Uiso   1.00
C13    C     0.16017   0.02176   0.29781   0.00000  Uiso   1.00
C14    C     0.16718   0.04286   0.24954   0.00000  Uiso   1.00
C15    C     0.17381   0.02212   0.20136   0.00000  Uiso   1.00
C16    C     0.17376   0.31212   0.20120   0.00000  Uiso   1.00
C17    C     0.16635   0.29070   0.24985   0.00000  Uiso   1.00
C18    C     0.30206   0.13619   0.27674   0.00000  Uiso   1.00
C19    C     0.01650   0.13615   0.27666   0.00000  Uiso   1.00
C20    C     0.03095   0.19703   0.22293   0.00000  Uiso   1.00
C21    C     0.31664   0.19689   0.22308   0.00000  Uiso   1.00
C22    C     0.16688   0.08689   0.24966   0.00000  Uiso   1.00
C23    C     0.19280   0.16577   0.14830   0.00000  Uiso   1.00
C24    C     0.26252   0.15187   0.00108   0.00000  Uiso   1.00
C25    C     0.20819   0.16648   0.09014   0.00000  Uiso   1.00
C26    C     0.07801   0.17600   0.43958   0.00000  Uiso   1.00
C27    C     0.06435   0.17235   0.49497   0.00000  Uiso   1.00
C28    C     0.09839   0.17064   0.02074   0.00000  Uiso   1.00
H29    H     0.15482   0.03894   0.33474   0.00000  Uiso   1.00
H30    H     0.17933   0.03958   0.16434   0.00000  Uiso   1.00
H31    H     0.27817   0.11184   0.29846   0.00000  Uiso   1.00
H32    H     0.02834   0.11180   0.29834   0.00000  Uiso   1.00
H33    H     0.30453   0.22097   0.20125   0.00000  Uiso   1.00
H34    H     0.14408   0.19913   0.09180   0.00000  Uiso   1.00
H35    H     0.05177   0.17238   0.42001   0.00000  Uiso   1.00
H36    H     0.02757   0.16625   0.01723   0.00000  Uiso   1.00
H37    H     0.21582   0.21572   0.36930   0.00000  Uiso   1.00
N38    N     0.04760   0.16668   0.25002   0.00000  Uiso   1.00
N39    N     0.28573   0.16665   0.25001   0.00000  Uiso   1.00
O40    O     0.12846   0.22775   0.25001   0.00000  Uiso   1.00
O41    O     0.20490   0.22774   0.25001   0.00000  Uiso   1.00
O42    O     0.10947   0.16666   0.32681   0.00000  Uiso   1.00
O43    O     0.18591   0.16665   0.32681   0.00000  Uiso   1.00
O44    O     0.12843   0.10559   0.25000   0.00000  Uiso   1.00
O45    O     0.20488   0.10558   0.25000   0.00000  Uiso   1.00
O46    O     0.14742   0.16668   0.17319   0.00000  Uiso   1.00
O47    O     0.22387   0.16667   0.17319   0.00000  Uiso   1.00
Zn48   Zn    0.11562   0.16667   0.25000   0.00000  Uiso   1.00
Zn49   Zn    0.21771   0.16666   0.25000   0.00000  Uiso   1.00
I50    I     0.28677   0.10223   0.09057   0.00000  Uiso   1.00
Cl51   Cl    0.18400   0.28569   0.13982   0.00000  Uiso   1.00
Cl52   Cl    0.06814   0.23653   0.18549   0.00000  Uiso   1.00
I53    I     0.31151   0.21155   0.38382   0.00000  Uiso   1.00
Cl54   Cl    0.30864   0.12124   0.45798   0.00000  Uiso   1.00
I55    I     0.07401   0.13986   0.09697   0.00000  Uiso   1.00
Cl56   Cl    0.14899   0.28520   0.35987   0.00000  Uiso   1.00
C57    C     0.49989   0.24649   0.24996   0.00000  Uiso   1.00
C58    C     0.47982   0.18051   0.49139   0.00000  Uiso   1.00
C59    C     0.49270   0.18749   0.43557   0.00000  Uiso   1.00
C60    C     0.51695   0.17885   0.01349   0.00000  Uiso   1.00
C61    C     0.56414   0.17330   0.48004   0.00000  Uiso   1.00
C62    C     0.57620   0.18961   0.42785   0.00000  Uiso   1.00
C63    C     0.53986   0.19964   0.40756   0.00000  Uiso   1.00
C64    C     0.50936   0.18345   0.06736   0.00000  Uiso   1.00
C65    C     0.58306   0.14639   0.05719   0.00000  Uiso   1.00
C66    C     0.45907   0.17995   0.40925   0.00000  Uiso   1.00
C67    C     0.49275   0.31182   0.29829   0.00000  Uiso   1.00
C68    C     0.47418   0.17105   0.35141   0.00000  Uiso   1.00
C69    C     0.49350   0.02176   0.29781   0.00000  Uiso   1.00
C70    C     0.50051   0.04286   0.24954   0.00000  Uiso   1.00
C71    C     0.50714   0.02212   0.20136   0.00000  Uiso   1.00
C72    C     0.50709   0.31212   0.20120   0.00000  Uiso   1.00
C73    C     0.49969   0.29070   0.24985   0.00000  Uiso   1.00
C74    C     0.63539   0.13619   0.27674   0.00000  Uiso   1.00
C75    C     0.34984   0.13615   0.27666   0.00000  Uiso   1.00
C76    C     0.36428   0.19703   0.22293   0.00000  Uiso   1.00
C77    C     0.64997   0.19689   0.22308   0.00000  Uiso   1.00
C78    C     0.50022   0.08689   0.24966   0.00000  Uiso   1.00
C79    C     0.52614   0.16577   0.14830   0.00000  Uiso   1.00
C80    C     0.59586   0.15187   0.00108   0.00000  Uiso   1.00
C81    C     0.54152   0.16648   0.09014   0.00000  Uiso   1.00
C82    C     0.41134   0.17600   0.43958   0.00000  Uiso   1.00
C83    C     0.39768   0.17235   0.49497   0.00000  Uiso   1.00
C84    C     0.43172   0.17064   0.02074   0.00000  Uiso   1.00
H85    H     0.48815   0.03894   0.33474   0.00000  Uiso   1.00
H86    H     0.51266   0.03958   0.16434   0.00000  Uiso   1.00
H87    H     0.61150   0.11184   0.29846   0.00000  Uiso   1.00
H88    H     0.36168   0.11180   0.29834   0.00000  Uiso   1.00
H89    H     0.63786   0.22097   0.20125   0.00000  Uiso   1.00
H90    H     0.47741   0.19913   0.09180   0.00000  Uiso   1.00
H91    H     0.38510   0.17238   0.42001   0.00000  Uiso   1.00
H92    H     0.36091   0.16625   0.01723   0.00000  Uiso   1.00
H93    H     0.54916   0.21572   0.36930   0.00000  Uiso   1.00
N94    N     0.38093   0.16668   0.25002   0.00000  Uiso   1.00
N95    N     0.61906   0.16665   0.25001   0.00000  Uiso   1.00
O96    O     0.46179   0.22775   0.25001   0.00000  Uiso   1.00
O97    O     0.53823   0.22774   0.25001   0.00000  Uiso   1.00
O98    O     0.44280   0.16666   0.32681   0.00000  Uiso   1.00
O99    O     0.51924   0.16665   0.32681   0.00000  Uiso   1.00
O100   O     0.46177   0.10559   0.25000   0.00000  Uiso   1.00
O101   O     0.53821   0.10558   0.25000   0.00000  Uiso   1.00
O102   O     0.48076   0.16668   0.17319   0.00000  Uiso   1.00
O103   O     0.55720   0.16667   0.17319   0.00000  Uiso   1.00
Zn104  Zn    0.44896   0.16667   0.25000   0.00000  Uiso   1.00
Zn105  Zn    0.55104   0.16666   0.25000   0.00000  Uiso   1.00
I106   I     0.62011   0.10223   0.09057   0.00000  Uiso   1.00
Cl107  Cl    0.51733   0.28569   0.13982   0.00000  Uiso   1.00
Cl108  Cl    0.40148   0.23653   0.18549   0.00000  Uiso   1.00
I109   I     0.64484   0.21155   0.38382   0.00000  Uiso   1.00
Cl110  Cl    0.64197   0.12124   0.45798   0.00000  Uiso   1.00
I111   I     0.40735   0.13986   0.09697   0.00000  Uiso   1.00
Cl112  Cl    0.48232   0.28520   0.35987   0.00000  Uiso   1.00
C113   C     0.83323   0.24649   0.24996   0.00000  Uiso   1.00
C114   C     0.81315   0.18051   0.49139   0.00000  Uiso   1.00
C115   C     0.82604   0.18749   0.43557   0.00000  Uiso   1.00
C116   C     0.85029   0.17885   0.01349   0.00000  Uiso   1.00
C117   C     0.89748   0.17330   0.48004   0.00000  Uiso   1.00
C118   C     0.90953   0.18961   0.42785   0.00000  Uiso   1.00
C119   C     0.87320   0.19964   0.40756   0.00000  Uiso   1.00
C120   C     0.84269   0.18345   0.06736   0.00000  Uiso   1.00
C121   C     0.91639   0.14639   0.05719   0.00000  Uiso   1.00
C122   C     0.79241   0.17995   0.40925   0.00000  Uiso   1.00
C123   C     0.82609   0.31182   0.29829   0.00000  Uiso   1.00
C124   C     0.80752   0.17105   0.35141   0.00000  Uiso   1.00
C125   C     0.82683   0.02176   0.29781   0.00000  Uiso   1.00
C126   C     0.83384   0.04286   0.24954   0.00000  Uiso   1.00
C127   C     0.84047   0.02212   0.20136   0.00000  Uiso   1.00
C128   C     0.84043   0.31212   0.20120   0.00000  Uiso   1.00
C129   C     0.83302   0.29070   0.24985   0.00000  Uiso   1.00
C130   C     0.96872   0.13619   0.27674   0.00000  Uiso   1.00
C131   C     0.68317   0.13615   0.27666   0.00000  Uiso   1.00
C132   C     0.69762   0.19703   0.22293   0.00000  Uiso   1.00
C133   C     0.98331   0.19689   0.22308   0.00000  Uiso   1.00
C134   C     0.83355   0.08689   0.24966   0.00000  Uiso   1.00
C135   C     0.85947   0.16577   0.14830   0.00000  Uiso   1.00
C136   C     0.92919   0.15187   0.00108   0.00000  Uiso   1.00
C137   C     0.87485   0.16648   0.09014   0.00000  Uiso   1.00
C138   C     0.74468   0.17600   0.43958   0.00000  Uiso   1.00
C139   C     0.73102   0.17235   0.49497   0.00000  Uiso   1.00
C140   C     0.76505   0.17064   0.02074   0.00000  Uiso   1.00
H141   H     0.82149   0.03894   0.33474   0.00000  Uiso   1.00
H142   H     0.84600   0.03958   0.16434   0.00000  Uiso   1.00
H143   H     0.94484   0.11184   0.29846   0.00000  Uiso   1.00
H144   H     0.69501   0.11180   0.29834   0.00000  Uiso   1.00
H145   H     0.97119   0.22097   0.20125   0.00000  Uiso   1.00
H146   H     0.81074   0.19913   0.09180   0.00000  Uiso   1.00
H147   H     0.71843   0.17238   0.42001   0.00000  Uiso   1.00
H148   H     0.69424   0.16625   0.01723   0.00000  Uiso   1.00
H149   H     0.88249   0.21572   0.36930   0.00000  Uiso   1.00
N150   N     0.71426   0.16668   0.25002   0.00000  Uiso   1.00
N151   N     0.95239   0.16665   0.25001   0.00000  Uiso   1.00
O152   O     0.79512   0.22775   0.25001   0.00000  Uiso   1.00
O153   O     0.87157   0.22774   0.25001   0.00000  Uiso   1.00
O154   O     0.77613   0.16666   0.32681   0.00000  Uiso   1.00
O155   O     0.85258   0.16665   0.32681   0.00000  Uiso   1.00
O156   O     0.79510   0.10559   0.25000   0.00000  Uiso   1.00
O157   O     0.87154   0.10558   0.25000   0.00000  Uiso   1.00
O158   O     0.81409   0.16668   0.17319   0.00000  Uiso   1.00
O159   O     0.89053   0.16667   0.17319   0.00000  Uiso   1.00
Zn160  Zn    0.78229   0.16667   0.25000   0.00000  Uiso   1.00
Zn161  Zn    0.88438   0.16666   0.25000   0.00000  Uiso   1.00
I162   I     0.95344   0.10223   0.09057   0.00000  Uiso   1.00
Cl163  Cl    0.85066   0.28569   0.13982   0.00000  Uiso   1.00
Cl164  Cl    0.73481   0.23653   0.18549   0.00000  Uiso   1.00
I165   I     0.97818   0.21155   0.38382   0.00000  Uiso   1.00
Cl166  Cl    0.97530   0.12124   0.45798   0.00000  Uiso   1.00
I167   I     0.74068   0.13986   0.09697   0.00000  Uiso   1.00
Cl168  Cl    0.81565   0.28520   0.35987   0.00000  Uiso   1.00
C169   C     0.16656   0.57982   0.24996   0.00000  Uiso   1.00
C170   C     0.14648   0.51384   0.49139   0.00000  Uiso   1.00
C171   C     0.15937   0.52082   0.43557   0.00000  Uiso   1.00
C172   C     0.18362   0.51218   0.01349   0.00000  Uiso   1.00
C173   C     0.23081   0.50663   0.48004   0.00000  Uiso   1.00
C174   C     0.24287   0.52294   0.42785   0.00000  Uiso   1.00
C175   C     0.20653   0.53297   0.40756   0.00000  Uiso   1.00
C176   C     0.17603   0.51679   0.06736   0.00000  Uiso   1.00
C177   C     0.24973   0.47973   0.05719   0.00000  Uiso   1.00
C178   C     0.12574   0.51329   0.40925   0.00000  Uiso   1.00
C179   C     0.15942   0.64516   0.29829   0.00000  Uiso   1.00
C180   C     0.14085   0.50439   0.35141   0.00000  Uiso   1.00
C181   C     0.16017   0.35510   0.29781   0.00000  Uiso   1.00
C182   C     0.16718   0.37619   0.24954   0.00000  Uiso   1.00
C183   C     0.17381   0.35545   0.20136   0.00000  Uiso   1.00
C184   C     0.17376   0.64546   0.20120   0.00000  Uiso   1.00
C185   C     0.16635   0.62404   0.24985   0.00000  Uiso   1.00
C186   C     0.30206   0.46953   0.27674   0.00000  Uiso   1.00
C187   C     0.01650   0.46948   0.27666   0.00000  Uiso   1.00
C188   C     0.03095   0.53036   0.22293   0.00000  Uiso   1.00
C189   C     0.31664   0.53023   0.22308   0.00000  Uiso   1.00
C190   C     0.16688   0.42022   0.24966   0.00000  Uiso   1.00
C191   C     0.19280   0.49911   0.14830   0.00000  Uiso   1.00
C192   C     0.26252   0.48520   0.00108   0.00000  Uiso   1.00
C193   C     0.20819   0.49981   0.09014   0.00000  Uiso   1.00
C194   C     0.07801   0.50933   0.43958   0.00000  Uiso   1.00
C195   C     0.06435   0.50568   0.49497   0.00000  Uiso   1.00
C196   C     0.09839   0.50398   0.02074   0.00000  Uiso   1.00
H197   H     0.15482   0.37227   0.33474   0.00000  Uiso   1.00
H198   H     0.17933   0.37291   0.16434   0.00000  Uiso   1.00
H199   H     0.27817   0.44517   0.29846   0.00000  Uiso   1.00
H200   H     0.02834   0.44513   0.29834   0.00000  Uiso   1.00
H201   H     0.30453   0.55430   0.20125   0.00000  Uiso   1.00
H202   H     0.14408   0.53246   0.09180   0.00000  Uiso   1.00
H203   H     0.05177   0.50571   0.42001   0.00000  Uiso   1.00
H204   H     0.02757   0.49959   0.01723   0.00000  Uiso   1.00
H205   H     0.21582   0.54905   0.36930   0.00000  Uiso   1.00
N206   N     0.04760   0.50001   0.25002   0.00000  Uiso   1.00
N207   N     0.28573   0.49998   0.25001   0.00000  Uiso   1.00
O208   O     0.12846   0.56108   0.25001   0.00000  Uiso   1.00
O209   O     0.20490   0.56107   0.25001   0.00000  Uiso   1.00
O210   O     0.10947   0.50000   0.32681   0.00000  Uiso   1.00
O211   O     0.18591   0.49999   0.32681   0.00000  Uiso   1.00
O212   O     0.12843   0.43893   0.25000   0.00000  Uiso   1.00
O213   O     0.20488   0.43892   0.25000   0.00000  Uiso   1.00
O214   O     0.14742   0.50001   0.17319   0.00000  Uiso   1.00
O215   O     0.22387   0.50000   0.17319   0.00000  Uiso   1.00
Zn216  Zn    0.11562   0.50001   0.25000   0.00000  Uiso   1.00
Zn217  Zn    0.21771   0.49999   0.25000   0.00000  Uiso   1.00
I218   I     0.28677   0.43556   0.09057   0.00000  Uiso   1.00
Cl219  Cl    0.18400   0.61902   0.13982   0.00000  Uiso   1.00
Cl220  Cl    0.06814   0.56987   0.18549   0.00000  Uiso   1.00
I221   I     0.31151   0.54489   0.38382   0.00000  Uiso   1.00
Cl222  Cl    0.30864   0.45457   0.45798   0.00000  Uiso   1.00
I223   I     0.07401   0.47319   0.09697   0.00000  Uiso   1.00
Cl224  Cl    0.14899   0.61854   0.35987   0.00000  Uiso   1.00
C225   C     0.49989   0.57982   0.24996   0.00000  Uiso   1.00
C226   C     0.47982   0.51384   0.49139   0.00000  Uiso   1.00
C227   C     0.49270   0.52082   0.43557   0.00000  Uiso   1.00
C228   C     0.51695   0.51218   0.01349   0.00000  Uiso   1.00
C229   C     0.56414   0.50663   0.48004   0.00000  Uiso   1.00
C230   C     0.57620   0.52294   0.42785   0.00000  Uiso   1.00
C231   C     0.53986   0.53297   0.40756   0.00000  Uiso   1.00
C232   C     0.50936   0.51679   0.06736   0.00000  Uiso   1.00
C233   C     0.58306   0.47973   0.05719   0.00000  Uiso   1.00
C234   C     0.45907   0.51329   0.40925   0.00000  Uiso   1.00
C235   C     0.49275   0.64516   0.29829   0.00000  Uiso   1.00
C236   C     0.47418   0.50439   0.35141   0.00000  Uiso   1.00
C237   C     0.49350   0.35510   0.29781   0.00000  Uiso   1.00
C238   C     0.50051   0.37619   0.24954   0.00000  Uiso   1.00
C239   C     0.50714   0.35545   0.20136   0.00000  Uiso   1.00
C240   C     0.50709   0.64546   0.20120   0.00000  Uiso   1.00
C241   C     0.49969   0.62404   0.24985   0.00000  Uiso   1.00
C242   C     0.63539   0.46953   0.27674   0.00000  Uiso   1.00
C243   C     0.34984   0.46948   0.27666   0.00000  Uiso   1.00
C244   C     0.36428   0.53036   0.22293   0.00000  Uiso   1.00
C245   C     0.64997   0.53023   0.22308   0.00000  Uiso   1.00
C246   C     0.50022   0.42022   0.24966   0.00000  Uiso   1.00
C247   C     0.52614   0.49911   0.14830   0.00000  Uiso   1.00
C248   C     0.59586   0.48520   0.00108   0.00000  Uiso   1.00
C249   C     0.54152   0.49981   0.09014   0.00000  Uiso   1.00
C250   C     0.41134   0.50933   0.43958   0.00000  Uiso   1.00
C251   C     0.39768   0.50568   0.49497   0.00000  Uiso   1.00
C252   C     0.43172   0.50398   0.02074   0.00000  Uiso   1.00
H253   H     0.48815   0.37227   0.33474   0.00000  Uiso   1.00
H254   H     0.51266   0.37291   0.16434   0.00000  Uiso   1.00
H255   H     0.61150   0.44517   0.29846   0.00000  Uiso   1.00
H256   H     0.36168   0.44513   0.29834   0.00000  Uiso   1.00
H257   H     0.63786   0.55430   0.20125   0.00000  Uiso   1.00
H258   H     0.47741   0.53246   0.09180   0.00000  Uiso   1.00
H259   H     0.38510   0.50571   0.42001   0.00000  Uiso   1.00
H260   H     0.36091   0.49959   0.01723   0.00000  Uiso   1.00
H261   H     0.54916   0.54905   0.36930   0.00000  Uiso   1.00
N262   N     0.38093   0.50001   0.25002   0.00000  Uiso   1.00
N263   N     0.61906   0.49998   0.25001   0.00000  Uiso   1.00
O264   O     0.46179   0.56108   0.25001   0.00000  Uiso   1.00
O265   O     0.53823   0.56107   0.25001   0.00000  Uiso   1.00
O266   O     0.44280   0.50000   0.32681   0.00000  Uiso   1.00
O267   O     0.51924   0.49999   0.32681   0.00000  Uiso   1.00
O268   O     0.46177   0.43893   0.25000   0.00000  Uiso   1.00
O269   O     0.53821   0.43892   0.25000   0.00000  Uiso   1.00
O270   O     0.48076   0.50001   0.17319   0.00000  Uiso   1.00
O271   O     0.55720   0.50000   0.17319   0.00000  Uiso   1.00
Zn272  Zn    0.44896   0.50001   0.25000   0.00000  Uiso   1.00
Zn273  Zn    0.55104   0.49999   0.25000   0.00000  Uiso   1.00
I274   I     0.62011   0.43556   0.09057   0.00000  Uiso   1.00
Cl275  Cl    0.51733   0.61902   0.13982   0.00000  Uiso   1.00
Cl276  Cl    0.40148   0.56987   0.18549   0.00000  Uiso   1.00
I277   I     0.64484   0.54489   0.38382   0.00000  Uiso   1.00
Cl278  Cl    0.64197   0.45457   0.45798   0.00000  Uiso   1.00
I279   I     0.40735   0.47319   0.09697   0.00000  Uiso   1.00
Cl280  Cl    0.48232   0.61854   0.35987   0.00000  Uiso   1.00
C281   C     0.83323   0.57982   0.24996   0.00000  Uiso   1.00
C282   C     0.81315   0.51384   0.49139   0.00000  Uiso   1.00
C283   C     0.82604   0.52082   0.43557   0.00000  Uiso   1.00
C284   C     0.85029   0.51218   0.01349   0.00000  Uiso   1.00
C285   C     0.89748   0.50663   0.48004   0.00000  Uiso   1.00
C286   C     0.90953   0.52294   0.42785   0.00000  Uiso   1.00
C287   C     0.87320   0.53297   0.40756   0.00000  Uiso   1.00
C288   C     0.84269   0.51679   0.06736   0.00000  Uiso   1.00
C289   C     0.91639   0.47973   0.05719   0.00000  Uiso   1.00
C290   C     0.79241   0.51329   0.40925   0.00000  Uiso   1.00
C291   C     0.82609   0.64516   0.29829   0.00000  Uiso   1.00
C292   C     0.80752   0.50439   0.35141   0.00000  Uiso   1.00
C293   C     0.82683   0.35510   0.29781   0.00000  Uiso   1.00
C294   C     0.83384   0.37619   0.24954   0.00000  Uiso   1.00
C295   C     0.84047   0.35545   0.20136   0.00000  Uiso   1.00
C296   C     0.84043   0.64546   0.20120   0.00000  Uiso   1.00
C297   C     0.83302   0.62404   0.24985   0.00000  Uiso   1.00
C298   C     0.96872   0.46953   0.27674   0.00000  Uiso   1.00
C299   C     0.68317   0.46948   0.27666   0.00000  Uiso   1.00
C300   C     0.69762   0.53036   0.22293   0.00000  Uiso   1.00
C301   C     0.98331   0.53023   0.22308   0.00000  Uiso   1.00
C302   C     0.83355   0.42022   0.24966   0.00000  Uiso   1.00
C303   C     0.85947   0.49911   0.14830   0.00000  Uiso   1.00
C304   C     0.92919   0.48520   0.00108   0.00000  Uiso   1.00
C305   C     0.87485   0.49981   0.09014   0.00000  Uiso   1.00
C306   C     0.74468   0.50933   0.43958   0.00000  Uiso   1.00
C307   C     0.73102   0.50568   0.49497   0.00000  Uiso   1.00
C308   C     0.76505   0.50398   0.02074   0.00000  Uiso   1.00
H309   H     0.82149   0.37227   0.33474   0.00000  Uiso   1.00
H310   H     0.84600   0.37291   0.16434   0.00000  Uiso   1.00
H311   H     0.94484   0.44517   0.29846   0.00000  Uiso   1.00
H312   H     0.69501   0.44513   0.29834   0.00000  Uiso   1.00
H313   H     0.97119   0.55430   0.20125   0.00000  Uiso   1.00
H314   H     0.81074   0.53246   0.09180   0.00000  Uiso   1.00
H315   H     0.71843   0.50571   0.42001   0.00000  Uiso   1.00
H316   H     0.69424   0.49959   0.01723   0.00000  Uiso   1.00
H317   H     0.88249   0.54905   0.36930   0.00000  Uiso   1.00
N318   N     0.71426   0.50001   0.25002   0.00000  Uiso   1.00
N319   N     0.95239   0.49998   0.25001   0.00000  Uiso   1.00
O320   O     0.79512   0.56108   0.25001   0.00000  Uiso   1.00
O321   O     0.87157   0.56107   0.25001   0.00000  Uiso   1.00
O322   O     0.77613   0.50000   0.32681   0.00000  Uiso   1.00
O323   O     0.85258   0.49999   0.32681   0.00000  Uiso   1.00
O324   O     0.79510   0.43893   0.25000   0.00000  Uiso   1.00
O325   O     0.87154   0.43892   0.25000   0.00000  Uiso   1.00
O326   O     0.81409   0.50001   0.17319   0.00000  Uiso   1.00
O327   O     0.89053   0.50000   0.17319   0.00000  Uiso   1.00
Zn328  Zn    0.78229   0.50001   0.25000   0.00000  Uiso   1.00
Zn329  Zn    0.88438   0.49999   0.25000   0.00000  Uiso   1.00
I330   I     0.95344   0.43556   0.09057   0.00000  Uiso   1.00
Cl331  Cl    0.85066   0.61902   0.13982   0.00000  Uiso   1.00
Cl332  Cl    0.73481   0.56987   0.18549   0.00000  Uiso   1.00
I333   I     0.97818   0.54489   0.38382   0.00000  Uiso   1.00
Cl334  Cl    0.97530   0.45457   0.45798   0.00000  Uiso   1.00
I335   I     0.74068   0.47319   0.09697   0.00000  Uiso   1.00
Cl336  Cl    0.81565   0.61854   0.35987   0.00000  Uiso   1.00
C337   C     0.16656   0.91315   0.24996   0.00000  Uiso   1.00
C338   C     0.14648   0.84717   0.49139   0.00000  Uiso   1.00
C339   C     0.15937   0.85415   0.43557   0.00000  Uiso   1.00
C340   C     0.18362   0.84551   0.01349   0.00000  Uiso   1.00
C341   C     0.23081   0.83996   0.48004   0.00000  Uiso   1.00
C342   C     0.24287   0.85627   0.42785   0.00000  Uiso   1.00
C343   C     0.20653   0.86631   0.40756   0.00000  Uiso   1.00
C344   C     0.17603   0.85012   0.06736   0.00000  Uiso   1.00
C345   C     0.24973   0.81306   0.05719   0.00000  Uiso   1.00
C346   C     0.12574   0.84662   0.40925   0.00000  Uiso   1.00
C347   C     0.15942   0.97849   0.29829   0.00000  Uiso   1.00
C348   C     0.14085   0.83772   0.35141   0.00000  Uiso   1.00
C349   C     0.16017   0.68843   0.29781   0.00000  Uiso   1.00
C350   C     0.16718   0.70952   0.24954   0.00000  Uiso   1.00
C351   C     0.17381   0.68878   0.20136   0.00000  Uiso   1.00
C352   C     0.17376   0.97879   0.20120   0.00000  Uiso   1.00
C353   C     0.16635   0.95737   0.24985   0.00000  Uiso   1.00
C354   C     0.30206   0.80286   0.27674   0.00000  Uiso   1.00
C355   C     0.01650   0.80282   0.27666   0.00000  Uiso   1.00
C356   C     0.03095   0.86369   0.22293   0.00000  Uiso   1.00
C357   C     0.31664   0.86356   0.22308   0.00000  Uiso   1.00
C358   C     0.16688   0.75355   0.24966   0.00000  Uiso   1.00
C359   C     0.19280   0.83244   0.14830   0.00000  Uiso   1.00
C360   C     0.26252   0.81854   0.00108   0.00000  Uiso   1.00
C361   C     0.20819   0.83315   0.09014   0.00000  Uiso   1.00
C362   C     0.07801   0.84267   0.43958   0.00000  Uiso   1.00
C363   C     0.06435   0.83901   0.49497   0.00000  Uiso   1.00
C364   C     0.09839   0.83731   0.02074   0.00000  Uiso   1.00
H365   H     0.15482   0.70560   0.33474   0.00000  Uiso   1.00
H366   H     0.17933   0.70624   0.16434   0.00000  Uiso   1.00
H367   H     0.27817   0.77851   0.29846   0.00000  Uiso   1.00
H368   H     0.02834   0.77847   0.29834   0.00000  Uiso   1.00
H369   H     0.30453   0.88764   0.20125   0.00000  Uiso   1.00
H370   H     0.14408   0.86579   0.09180   0.00000  Uiso   1.00
H371   H     0.05177   0.83904   0.42001   0.00000  Uiso   1.00
H372   H     0.02757   0.83292   0.01723   0.00000  Uiso   1.00
H373   H     0.21582   0.88239   0.36930   0.00000  Uiso   1.00
N374   N     0.04760   0.83334   0.25002   0.00000  Uiso   1.00
N375   N     0.28573   0.83331   0.25001   0.00000  Uiso   1.00
O376   O     0.12846   0.89442   0.25001   0.00000  Uiso   1.00
O377   O     0.20490   0.89441   0.25001   0.00000  Uiso   1.00
O378   O     0.10947   0.83333   0.32681   0.00000  Uiso   1.00
O379   O     0.18591   0.83332   0.32681   0.00000  Uiso   1.00
O380   O     0.12843   0.77226   0.25000   0.00000  Uiso   1.00
O381   O     0.20488   0.77225   0.25000   0.00000  Uiso   1.00
O382   O     0.14742   0.83335   0.17319   0.00000  Uiso   1.00
O383   O     0.22387   0.83334   0.17319   0.00000  Uiso   1.00
Zn384  Zn    0.11562   0.83334   0.25000   0.00000  Uiso   1.00
Zn385  Zn    0.21771   0.83333   0.25000   0.00000  Uiso   1.00
I386   I     0.28677   0.76889   0.09057   0.00000  Uiso   1.00
Cl387  Cl    0.18400   0.95236   0.13982   0.00000  Uiso   1.00
Cl388  Cl    0.06814   0.90320   0.18549   0.00000  Uiso   1.00
I389   I     0.31151   0.87822   0.38382   0.00000  Uiso   1.00
Cl390  Cl    0.30864   0.78791   0.45798   0.00000  Uiso   1.00
I391   I     0.07401   0.80652   0.09697   0.00000  Uiso   1.00
Cl392  Cl    0.14899   0.95187   0.35987   0.00000  Uiso   1.00
C393   C     0.49989   0.91315   0.24996   0.00000  Uiso   1.00
C394   C     0.47982   0.84717   0.49139   0.00000  Uiso   1.00
C395   C     0.49270   0.85415   0.43557   0.00000  Uiso   1.00
C396   C     0.51695   0.84551   0.01349   0.00000  Uiso   1.00
C397   C     0.56414   0.83996   0.48004   0.00000  Uiso   1.00
C398   C     0.57620   0.85627   0.42785   0.00000  Uiso   1.00
C399   C     0.53986   0.86631   0.40756   0.00000  Uiso   1.00
C400   C     0.50936   0.85012   0.06736   0.00000  Uiso   1.00
C401   C     0.58306   0.81306   0.05719   0.00000  Uiso   1.00
C402   C     0.45907   0.84662   0.40925   0.00000  Uiso   1.00
C403   C     0.49275   0.97849   0.29829   0.00000  Uiso   1.00
C404   C     0.47418   0.83772   0.35141   0.00000  Uiso   1.00
C405   C     0.49350   0.68843   0.29781   0.00000  Uiso   1.00
C406   C     0.50051   0.70952   0.24954   0.00000  Uiso   1.00
C407   C     0.50714   0.68878   0.20136   0.00000  Uiso   1.00
C408   C     0.50709   0.97879   0.20120   0.00000  Uiso   1.00
C409   C     0.49969   0.95737   0.24985   0.00000  Uiso   1.00
C410   C     0.63539   0.80286   0.27674   0.00000  Uiso   1.00
C411   C     0.34984   0.80282   0.27666   0.00000  Uiso   1.00
C412   C     0.36428   0.86369   0.22293   0.00000  Uiso   1.00
C413   C     0.64997   0.86356   0.22308   0.00000  Uiso   1.00
C414   C     0.50022   0.75355   0.24966   0.00000  Uiso   1.00
C415   C     0.52614   0.83244   0.14830   0.00000  Uiso   1.00
C416   C     0.59586   0.81854   0.00108   0.00000  Uiso   1.00
C417   C     0.54152   0.83315   0.09014   0.00000  Uiso   1.00
C418   C     0.41134   0.84267   0.43958   0.00000  Uiso   1.00
C419   C     0.39768   0.83901   0.49497   0.00000  Uiso   1.00
C420   C     0.43172   0.83731   0.02074   0.00000  Uiso   1.00
H421   H     0.48815   0.70560   0.33474   0.00000  Uiso   1.00
H422   H     0.51266   0.70624   0.16434   0.00000  Uiso   1.00
H423   H     0.61150   0.77851   0.29846   0.00000  Uiso   1.00
H424   H     0.36168   0.77847   0.29834   0.00000  Uiso   1.00
H425   H     0.63786   0.88764   0.20125   0.00000  Uiso   1.00
H426   H     0.47741   0.86579   0.09180   0.00000  Uiso   1.00
H427   H     0.38510   0.83904   0.42001   0.00000  Uiso   1.00
H428   H     0.36091   0.83292   0.01723   0.00000  Uiso   1.00
H429   H     0.54916   0.88239   0.36930   0.00000  Uiso   1.00
N430   N     0.38093   0.83334   0.25002   0.00000  Uiso   1.00
N431   N     0.61906   0.83331   0.25001   0.00000  Uiso   1.00
O432   O     0.46179   0.89442   0.25001   0.00000  Uiso   1.00
O433   O     0.53823   0.89441   0.25001   0.00000  Uiso   1.00
O434   O     0.44280   0.83333   0.32681   0.00000  Uiso   1.00
O435   O     0.51924   0.83332   0.32681   0.00000  Uiso   1.00
O436   O     0.46177   0.77226   0.25000   0.00000  Uiso   1.00
O437   O     0.53821   0.77225   0.25000   0.00000  Uiso   1.00
O438   O     0.48076   0.83335   0.17319   0.00000  Uiso   1.00
O439   O     0.55720   0.83334   0.17319   0.00000  Uiso   1.00
Zn440  Zn    0.44896   0.83334   0.25000   0.00000  Uiso   1.00
Zn441  Zn    0.55104   0.83333   0.25000   0.00000  Uiso   1.00
I442   I     0.62011   0.76889   0.09057   0.00000  Uiso   1.00
Cl443  Cl    0.51733   0.95236   0.13982   0.00000  Uiso   1.00
Cl444  Cl    0.40148   0.90320   0.18549   0.00000  Uiso   1.00
I445   I     0.64484   0.87822   0.38382   0.00000  Uiso   1.00
Cl446  Cl    0.64197   0.78791   0.45798   0.00000  Uiso   1.00
I447   I     0.40735   0.80652   0.09697   0.00000  Uiso   1.00
Cl448  Cl    0.48232   0.95187   0.35987   0.00000  Uiso   1.00
C449   C     0.83323   0.91315   0.24996   0.00000  Uiso   1.00
C450   C     0.81315   0.84717   0.49139   0.00000  Uiso   1.00
C451   C     0.82604   0.85415   0.43557   0.00000  Uiso   1.00
C452   C     0.85029   0.84551   0.01349   0.00000  Uiso   1.00
C453   C     0.89748   0.83996   0.48004   0.00000  Uiso   1.00
C454   C     0.90953   0.85627   0.42785   0.00000  Uiso   1.00
C455   C     0.87320   0.86631   0.40756   0.00000  Uiso   1.00
C456   C     0.84269   0.85012   0.06736   0.00000  Uiso   1.00
C457   C     0.91639   0.81306   0.05719   0.00000  Uiso   1.00
C458   C     0.79241   0.84662   0.40925   0.00000  Uiso   1.00
C459   C     0.82609   0.97849   0.29829   0.00000  Uiso   1.00
C460   C     0.80752   0.83772   0.35141   0.00000  Uiso   1.00
C461   C     0.82683   0.68843   0.29781   0.00000  Uiso   1.00
C462   C     0.83384   0.70952   0.24954   0.00000  Uiso   1.00
C463   C     0.84047   0.68878   0.20136   0.00000  Uiso   1.00
C464   C     0.84043   0.97879   0.20120   0.00000  Uiso   1.00
C465   C     0.83302   0.95737   0.24985   0.00000  Uiso   1.00
C466   C     0.96872   0.80286   0.27674   0.00000  Uiso   1.00
C467   C     0.68317   0.80282   0.27666   0.00000  Uiso   1.00
C468   C     0.69762   0.86369   0.22293   0.00000  Uiso   1.00
C469   C     0.98331   0.86356   0.22308   0.00000  Uiso   1.00
C470   C     0.83355   0.75355   0.24966   0.00000  Uiso   1.00
C471   C     0.85947   0.83244   0.14830   0.00000  Uiso   1.00
C472   C     0.92919   0.81854   0.00108   0.00000  Uiso   1.00
C473   C     0.87485   0.83315   0.09014   0.00000  Uiso   1.00
C474   C     0.74468   0.84267   0.43958   0.00000  Uiso   1.00
C475   C     0.73102   0.83901   0.49497   0.00000  Uiso   1.00
C476   C     0.76505   0.83731   0.02074   0.00000  Uiso   1.00
H477   H     0.82149   0.70560   0.33474   0.00000  Uiso   1.00
H478   H     0.84600   0.70624   0.16434   0.00000  Uiso   1.00
H479   H     0.94484   0.77851   0.29846   0.00000  Uiso   1.00
H480   H     0.69501   0.77847   0.29834   0.00000  Uiso   1.00
H481   H     0.97119   0.88764   0.20125   0.00000  Uiso   1.00
H482   H     0.81074   0.86579   0.09180   0.00000  Uiso   1.00
H483   H     0.71843   0.83904   0.42001   0.00000  Uiso   1.00
H484   H     0.69424   0.83292   0.01723   0.00000  Uiso   1.00
H485   H     0.88249   0.88239   0.36930   0.00000  Uiso   1.00
N486   N     0.71426   0.83334   0.25002   0.00000  Uiso   1.00
N487   N     0.95239   0.83331   0.25001   0.00000  Uiso   1.00
O488   O     0.79512   0.89442   0.25001   0.00000  Uiso   1.00
O489   O     0.87157   0.89441   0.25001   0.00000  Uiso   1.00
O490   O     0.77613   0.83333   0.32681   0.00000  Uiso   1.00
O491   O     0.85258   0.83332   0.32681   0.00000  Uiso   1.00
O492   O     0.79510   0.77226   0.25000   0.00000  Uiso   1.00
O493   O     0.87154   0.77225   0.25000   0.00000  Uiso   1.00
O494   O     0.81409   0.83335   0.17319   0.00000  Uiso   1.00
O495   O     0.89053   0.83334   0.17319   0.00000  Uiso   1.00
Zn496  Zn    0.78229   0.83334   0.25000   0.00000  Uiso   1.00
Zn497  Zn    0.88438   0.83333   0.25000   0.00000  Uiso   1.00
I498   I     0.95344   0.76889   0.09057   0.00000  Uiso   1.00
Cl499  Cl    0.85066   0.95236   0.13982   0.00000  Uiso   1.00
Cl500  Cl    0.73481   0.90320   0.18549   0.00000  Uiso   1.00
I501   I     0.97818   0.87822   0.38382   0.00000  Uiso   1.00
Cl502  Cl    0.97530   0.78791   0.45798   0.00000  Uiso   1.00
I503   I     0.74068   0.80652   0.09697   0.00000  Uiso   1.00
Cl504  Cl    0.81565   0.95187   0.35987   0.00000  Uiso   1.00
C505   C     0.16656   0.24649   0.74996   0.00000  Uiso   1.00
C506   C     0.14648   0.18051   0.99139   0.00000  Uiso   1.00
C507   C     0.15937   0.18749   0.93557   0.00000  Uiso   1.00
C508   C     0.18362   0.17885   0.51349   0.00000  Uiso   1.00
C509   C     0.23081   0.17330   0.98004   0.00000  Uiso   1.00
C510   C     0.24287   0.18961   0.92785   0.00000  Uiso   1.00
C511   C     0.20653   0.19964   0.90756   0.00000  Uiso   1.00
C512   C     0.17603   0.18345   0.56736   0.00000  Uiso   1.00
C513   C     0.24973   0.14639   0.55719   0.00000  Uiso   1.00
C514   C     0.12574   0.17995   0.90925   0.00000  Uiso   1.00
C515   C     0.15942   0.31182   0.79829   0.00000  Uiso   1.00
C516   C     0.14085   0.17105   0.85141   0.00000  Uiso   1.00
C517   C     0.16017   0.02176   0.79781   0.00000  Uiso   1.00
C518   C     0.16718   0.04286   0.74954   0.00000  Uiso   1.00
C519   C     0.17381   0.02212   0.70136   0.00000  Uiso   1.00
C520   C     0.17376   0.31212   0.70120   0.00000  Uiso   1.00
C521   C     0.16635   0.29070   0.74985   0.00000  Uiso   1.00
C522   C     0.30206   0.13619   0.77674   0.00000  Uiso   1.00
C523   C     0.01650   0.13615   0.77666   0.00000  Uiso   1.00
C524   C     0.03095   0.19703   0.72293   0.00000  Uiso   1.00
C525   C     0.31664   0.19689   0.72308   0.00000  Uiso   1.00
C526   C     0.16688   0.08689   0.74966   0.00000  Uiso   1.00
C527   C     0.19280   0.16577   0.64830   0.00000  Uiso   1.00
C528   C     0.26252   0.15187   0.50108   0.00000  Uiso   1.00
C529   C     0.20819   0.16648   0.59014   0.00000  Uiso   1.00
C530   C     0.07801   0.17600   0.93958   0.00000  Uiso   1.00
C531   C     0.06435   0.17235   0.99497   0.00000  Uiso   1.00
C532   C     0.09839   0.17064   0.52074   0.00000  Uiso   1.00
H533   H     0.15482   0.03894   0.83474   0.00000  Uiso   1.00
H534   H     0.17933   0.03958   0.66434   0.00000  Uiso   1.00
H535   H     0.27817   0.11184   0.79846   0.00000  Uiso   1.00
H536   H     0.02834   0.11180   0.79834   0.00000  Uiso   1.00
H537   H     0.30453   0.22097   0.70125   0.00000  Uiso   1.00
H538   H     0.14408   0.19913   0.59180   0.00000  Uiso   1.00
H539   H     0.05177   0.17238   0.92001   0.00000  Uiso   1.00
H540   H     0.02757   0.16625   0.51723   0.00000  Uiso   1.00
H541   H     0.21582   0.21572   0.86930   0.00000  Uiso   1.00
N542   N     0.04760   0.16668   0.75002   0.00000  Uiso   1.00
N543   N     0.28573   0.16665   0.75001   0.00000  Uiso   1.00
O544   O     0.12846   0.22775   0.75001   0.00000  Uiso   1.00
O545   O     0.20490   0.22774   0.75001   0.00000  Uiso   1.00
O546   O     0.10947   0.16666   0.82681   0.00000  Uiso   1.00
O547   O     0.18591   0.16665   0.82681   0.00000  Uiso   1.00
O548   O     0.12843   0.10559   0.75000   0.00000  Uiso   1.00
O549   O     0.20488   0.10558   0.75000   0.00000  Uiso   1.00
O550   O     0.14742   0.16668   0.67319   0.00000  Uiso   1.00
O551   O     0.22387   0.16667   0.67319   0.00000  Uiso   1.00
Zn552  Zn    0.11562   0.16667   0.75000   0.00000  Uiso   1.00
Zn553  Zn    0.21771   0.16666   0.75000   0.00000  Uiso   1.00
I554   I     0.28677   0.10223   0.59057   0.00000  Uiso   1.00
Cl555  Cl    0.18400   0.28569   0.63982   0.00000  Uiso   1.00
Cl556  Cl    0.06814   0.23653   0.68549   0.00000  Uiso   1.00
I557   I     0.31151   0.21155   0.88382   0.00000  Uiso   1.00
Cl558  Cl    0.30864   0.12124   0.95798   0.00000  Uiso   1.00
I559   I     0.07401   0.13986   0.59697   0.00000  Uiso   1.00
Cl560  Cl    0.14899   0.28520   0.85987   0.00000  Uiso   1.00
C561   C     0.49989   0.24649   0.74996   0.00000  Uiso   1.00
C562   C     0.47982   0.18051   0.99139   0.00000  Uiso   1.00
C563   C     0.49270   0.18749   0.93557   0.00000  Uiso   1.00
C564   C     0.51695   0.17885   0.51349   0.00000  Uiso   1.00
C565   C     0.56414   0.17330   0.98004   0.00000  Uiso   1.00
C566   C     0.57620   0.18961   0.92785   0.00000  Uiso   1.00
C567   C     0.53986   0.19964   0.90756   0.00000  Uiso   1.00
C568   C     0.50936   0.18345   0.56736   0.00000  Uiso   1.00
C569   C     0.58306   0.14639   0.55719   0.00000  Uiso   1.00
C570   C     0.45907   0.17995   0.90925   0.00000  Uiso   1.00
C571   C     0.49275   0.31182   0.79829   0.00000  Uiso   1.00
C572   C     0.47418   0.17105   0.85141   0.00000  Uiso   1.00
C573   C     0.49350   0.02176   0.79781   0.00000  Uiso   1.00
C574   C     0.50051   0.04286   0.74954   0.00000  Uiso   1.00
C575   C     0.50714   0.02212   0.70136   0.00000  Uiso   1.00
C576   C     0.50709   0.31212   0.70120   0.00000  Uiso   1.00
C577   C     0.49969   0.29070   0.74985   0.00000  Uiso   1.00
C578   C     0.63539   0.13619   0.77674   0.00000  Uiso   1.00
C579   C     0.34984   0.13615   0.77666   0.00000  Uiso   1.00
C580   C     0.36428   0.19703   0.72293   0.00000  Uiso   1.00
C581   C     0.64997   0.19689   0.72308   0.00000  Uiso   1.00
C582   C     0.50022   0.08689   0.74966   0.00000  Uiso   1.00
C583   C     0.52614   0.16577   0.64830   0.00000  Uiso   1.00
C584   C     0.59586   0.15187   0.50108   0.00000  Uiso   1.00
C585   C     0.54152   0.16648   0.59014   0.00000  Uiso   1.00
C586   C     0.41134   0.17600   0.93958   0.00000  Uiso   1.00
C587   C     0.39768   0.17235   0.99497   0.00000  Uiso   1.00
C588   C     0.43172   0.17064   0.52074   0.00000  Uiso   1.00
H589   H     0.48815   0.03894   0.83474   0.00000  Uiso   1.00
H590   H     0.51266   0.03958   0.66434   0.00000  Uiso   1.00
H591   H     0.61150   0.11184   0.79846   0.00000  Uiso   1.00
H592   H     0.36168   0.11180   0.79834   0.00000  Uiso   1.00
H593   H     0.63786   0.22097   0.70125   0.00000  Uiso   1.00
H594   H     0.47741   0.19913   0.59180   0.00000  Uiso   1.00
H595   H     0.38510   0.17238   0.92001   0.00000  Uiso   1.00
H596   H     0.36091   0.16625   0.51723   0.00000  Uiso   1.00
H597   H     0.54916   0.21572   0.86930   0.00000  Uiso   1.00
N598   N     0.38093   0.16668   0.75002   0.00000  Uiso   1.00
N599   N     0.61906   0.16665   0.75001   0.00000  Uiso   1.00
O600   O     0.46179   0.22775   0.75001   0.00000  Uiso   1.00
O601   O     0.53823   0.22774   0.75001   0.00000  Uiso   1.00
O602   O     0.44280   0.16666   0.82681   0.00000  Uiso   1.00
O603   O     0.51924   0.16665   0.82681   0.00000  Uiso   1.00
O604   O     0.46177   0.10559   0.75000   0.00000  Uiso   1.00
O605   O     0.53821   0.10558   0.75000   0.00000  Uiso   1.00
O606   O     0.48076   0.16668   0.67319   0.00000  Uiso   1.00
O607   O     0.55720   0.16667   0.67319   0.00000  Uiso   1.00
Zn608  Zn    0.44896   0.16667   0.75000   0.00000  Uiso   1.00
Zn609  Zn    0.55104   0.16666   0.75000   0.00000  Uiso   1.00
I610   I     0.62011   0.10223   0.59057   0.00000  Uiso   1.00
Cl611  Cl    0.51733   0.28569   0.63982   0.00000  Uiso   1.00
Cl612  Cl    0.40148   0.23653   0.68549   0.00000  Uiso   1.00
I613   I     0.64484   0.21155   0.88382   0.00000  Uiso   1.00
Cl614  Cl    0.64197   0.12124   0.95798   0.00000  Uiso   1.00
I615   I     0.40735   0.13986   0.59697   0.00000  Uiso   1.00
Cl616  Cl    0.48232   0.28520   0.85987   0.00000  Uiso   1.00
C617   C     0.83323   0.24649   0.74996   0.00000  Uiso   1.00
C618   C     0.81315   0.18051   0.99139   0.00000  Uiso   1.00
C619   C     0.82604   0.18749   0.93557   0.00000  Uiso   1.00
C620   C     0.85029   0.17885   0.51349   0.00000  Uiso   1.00
C621   C     0.89748   0.17330   0.98004   0.00000  Uiso   1.00
C622   C     0.90953   0.18961   0.92785   0.00000  Uiso   1.00
C623   C     0.87320   0.19964   0.90756   0.00000  Uiso   1.00
C624   C     0.84269   0.18345   0.56736   0.00000  Uiso   1.00
C625   C     0.91639   0.14639   0.55719   0.00000  Uiso   1.00
C626   C     0.79241   0.17995   0.90925   0.00000  Uiso   1.00
C627   C     0.82609   0.31182   0.79829   0.00000  Uiso   1.00
C628   C     0.80752   0.17105   0.85141   0.00000  Uiso   1.00
C629   C     0.82683   0.02176   0.79781   0.00000  Uiso   1.00
C630   C     0.83384   0.04286   0.74954   0.00000  Uiso   1.00
C631   C     0.84047   0.02212   0.70136   0.00000  Uiso   1.00
C632   C     0.84043   0.31212   0.70120   0.00000  Uiso   1.00
C633   C     0.83302   0.29070   0.74985   0.00000  Uiso   1.00
C634   C     0.96872   0.13619   0.77674   0.00000  Uiso   1.00
C635   C     0.68317   0.13615   0.77666   0.00000  Uiso   1.00
C636   C     0.69762   0.19703   0.72293   0.00000  Uiso   1.00
C637   C     0.98331   0.19689   0.72308   0.00000  Uiso   1.00
C638   C     0.83355   0.08689   0.74966   0.00000  Uiso   1.00
C639   C     0.85947   0.16577   0.64830   0.00000  Uiso   1.00
C640   C     0.92919   0.15187   0.50108   0.00000  Uiso   1.00
C641   C     0.87485   0.16648   0.59014   0.00000  Uiso   1.00
C642   C     0.74468   0.17600   0.93958   0.00000  Uiso   1.00
C643   C     0.73102   0.17235   0.99497   0.00000  Uiso   1.00
C644   C     0.76505   0.17064   0.52074   0.00000  Uiso   1.00
H645   H     0.82149   0.03894   0.83474   0.00000  Uiso   1.00
H646   H     0.84600   0.03958   0.66434   0.00000  Uiso   1.00
H647   H     0.94484   0.11184   0.79846   0.00000  Uiso   1.00
H648   H     0.69501   0.11180   0.79834   0.00000  Uiso   1.00
H649   H     0.97119   0.22097   0.70125   0.00000  Uiso   1.00
H650   H     0.81074   0.19913   0.59180   0.00000  Uiso   1.00
H651   H     0.71843   0.17238   0.92001   0.00000  Uiso   1.00
H652   H     0.69424   0.16625   0.51723   0.00000  Uiso   1.00
H653   H     0.88249   0.21572   0.86930   0.00000  Uiso   1.00
N654   N     0.71426   0.16668   0.75002   0.00000  Uiso   1.00
N655   N     0.95239   0.16665   0.75001   0.00000  Uiso   1.00
O656   O     0.79512   0.22775   0.75001   0.00000  Uiso   1.00
O657   O     0.87157   0.22774   0.75001   0.00000  Uiso   1.00
O658   O     0.77613   0.16666   0.82681   0.00000  Uiso   1.00
O659   O     0.85258   0.16665   0.82681   0.00000  Uiso   1.00
O660   O     0.79510   0.10559   0.75000   0.00000  Uiso   1.00
O661   O     0.87154   0.10558   0.75000   0.00000  Uiso   1.00
O662   O     0.81409   0.16668   0.67319   0.00000  Uiso   1.00
O663   O     0.89053   0.16667   0.67319   0.00000  Uiso   1.00
Zn664  Zn    0.78229   0.16667   0.75000   0.00000  Uiso   1.00
Zn665  Zn    0.88438   0.16666   0.75000   0.00000  Uiso   1.00
I666   I     0.95344   0.10223   0.59057   0.00000  Uiso   1.00
Cl667  Cl    0.85066   0.28569   0.63982   0.00000  Uiso   1.00
Cl668  Cl    0.73481   0.23653   0.68549   0.00000  Uiso   1.00
I669   I     0.97818   0.21155   0.88382   0.00000  Uiso   1.00
Cl670  Cl    0.97530   0.12124   0.95798   0.00000  Uiso   1.00
I671   I     0.74068   0.13986   0.59697   0.00000  Uiso   1.00
Cl672  Cl    0.81565   0.28520   0.85987   0.00000  Uiso   1.00
C673   C     0.16656   0.57982   0.74996   0.00000  Uiso   1.00
C674   C     0.14648   0.51384   0.99139   0.00000  Uiso   1.00
C675   C     0.15937   0.52082   0.93557   0.00000  Uiso   1.00
C676   C     0.18362   0.51218   0.51349   0.00000  Uiso   1.00
C677   C     0.23081   0.50663   0.98004   0.00000  Uiso   1.00
C678   C     0.24287   0.52294   0.92785   0.00000  Uiso   1.00
C679   C     0.20653   0.53297   0.90756   0.00000  Uiso   1.00
C680   C     0.17603   0.51679   0.56736   0.00000  Uiso   1.00
C681   C     0.24973   0.47973   0.55719   0.00000  Uiso   1.00
C682   C     0.12574   0.51329   0.90925   0.00000  Uiso   1.00
C683   C     0.15942   0.64516   0.79829   0.00000  Uiso   1.00
C684   C     0.14085   0.50439   0.85141   0.00000  Uiso   1.00
C685   C     0.16017   0.35510   0.79781   0.00000  Uiso   1.00
C686   C     0.16718   0.37619   0.74954   0.00000  Uiso   1.00
C687   C     0.17381   0.35545   0.70136   0.00000  Uiso   1.00
C688   C     0.17376   0.64546   0.70120   0.00000  Uiso   1.00
C689   C     0.16635   0.62404   0.74985   0.00000  Uiso   1.00
C690   C     0.30206   0.46953   0.77674   0.00000  Uiso   1.00
C691   C     0.01650   0.46948   0.77666   0.00000  Uiso   1.00
C692   C     0.03095   0.53036   0.72293   0.00000  Uiso   1.00
C693   C     0.31664   0.53023   0.72308   0.00000  Uiso   1.00
C694   C     0.16688   0.42022   0.74966   0.00000  Uiso   1.00
C695   C     0.19280   0.49911   0.64830   0.00000  Uiso   1.00
C696   C     0.26252   0.48520   0.50108   0.00000  Uiso   1.00
C697   C     0.20819   0.49981   0.59014   0.00000  Uiso   1.00
C698   C     0.07801   0.50933   0.93958   0.00000  Uiso   1.00
C699   C     0.06435   0.50568   0.99497   0.00000  Uiso   1.00
C700   C     0.09839   0.50398   0.52074   0.00000  Uiso   1.00
H701   H     0.15482   0.37227   0.83474   0.00000  Uiso   1.00
H702   H     0.17933   0.37291   0.66434   0.00000  Uiso   1.00
H703   H     0.27817   0.44517   0.79846   0.00000  Uiso   1.00
H704   H     0.02834   0.44513   0.79834   0.00000  Uiso   1.00
H705   H     0.30453   0.55430   0.70125   0.00000  Uiso   1.00
H706   H     0.14408   0.53246   0.59180   0.00000  Uiso   1.00
H707   H     0.05177   0.50571   0.92001   0.00000  Uiso   1.00
H708   H     0.02757   0.49959   0.51723   0.00000  Uiso   1.00
H709   H     0.21582   0.54905   0.86930   0.00000  Uiso   1.00
N710   N     0.04760   0.50001   0.75002   0.00000  Uiso   1.00
N711   N     0.28573   0.49998   0.75001   0.00000  Uiso   1.00
O712   O     0.12846   0.56108   0.75001   0.00000  Uiso   1.00
O713   O     0.20490   0.56107   0.75001   0.00000  Uiso   1.00
O714   O     0.10947   0.50000   0.82681   0.00000  Uiso   1.00
O715   O     0.18591   0.49999   0.82681   0.00000  Uiso   1.00
O716   O     0.12843   0.43893   0.75000   0.00000  Uiso   1.00
O717   O     0.20488   0.43892   0.75000   0.00000  Uiso   1.00
O718   O     0.14742   0.50001   0.67319   0.00000  Uiso   1.00
O719   O     0.22387   0.50000   0.67319   0.00000  Uiso   1.00
Zn720  Zn    0.11562   0.50001   0.75000   0.00000  Uiso   1.00
Zn721  Zn    0.21771   0.49999   0.75000   0.00000  Uiso   1.00
I722   I     0.28677   0.43556   0.59057   0.00000  Uiso   1.00
Cl723  Cl    0.18400   0.61902   0.63982   0.00000  Uiso   1.00
Cl724  Cl    0.06814   0.56987   0.68549   0.00000  Uiso   1.00
I725   I     0.31151   0.54489   0.88382   0.00000  Uiso   1.00
Cl726  Cl    0.30864   0.45457   0.95798   0.00000  Uiso   1.00
I727   I     0.07401   0.47319   0.59697   0.00000  Uiso   1.00
Cl728  Cl    0.14899   0.61854   0.85987   0.00000  Uiso   1.00
C729   C     0.49989   0.57982   0.74996   0.00000  Uiso   1.00
C730   C     0.47982   0.51384   0.99139   0.00000  Uiso   1.00
C731   C     0.49270   0.52082   0.93557   0.00000  Uiso   1.00
C732   C     0.51695   0.51218   0.51349   0.00000  Uiso   1.00
C733   C     0.56414   0.50663   0.98004   0.00000  Uiso   1.00
C734   C     0.57620   0.52294   0.92785   0.00000  Uiso   1.00
C735   C     0.53986   0.53297   0.90756   0.00000  Uiso   1.00
C736   C     0.50936   0.51679   0.56736   0.00000  Uiso   1.00
C737   C     0.58306   0.47973   0.55719   0.00000  Uiso   1.00
C738   C     0.45907   0.51329   0.90925   0.00000  Uiso   1.00
C739   C     0.49275   0.64516   0.79829   0.00000  Uiso   1.00
C740   C     0.47418   0.50439   0.85141   0.00000  Uiso   1.00
C741   C     0.49350   0.35510   0.79781   0.00000  Uiso   1.00
C742   C     0.50051   0.37619   0.74954   0.00000  Uiso   1.00
C743   C     0.50714   0.35545   0.70136   0.00000  Uiso   1.00
C744   C     0.50709   0.64546   0.70120   0.00000  Uiso   1.00
C745   C     0.49969   0.62404   0.74985   0.00000  Uiso   1.00
C746   C     0.63539   0.46953   0.77674   0.00000  Uiso   1.00
C747   C     0.34984   0.46948   0.77666   0.00000  Uiso   1.00
C748   C     0.36428   0.53036   0.72293   0.00000  Uiso   1.00
C749   C     0.64997   0.53023   0.72308   0.00000  Uiso   1.00
C750   C     0.50022   0.42022   0.74966   0.00000  Uiso   1.00
C751   C     0.52614   0.49911   0.64830   0.00000  Uiso   1.00
C752   C     0.59586   0.48520   0.50108   0.00000  Uiso   1.00
C753   C     0.54152   0.49981   0.59014   0.00000  Uiso   1.00
C754   C     0.41134   0.50933   0.93958   0.00000  Uiso   1.00
C755   C     0.39768   0.50568   0.99497   0.00000  Uiso   1.00
C756   C     0.43172   0.50398   0.52074   0.00000  Uiso   1.00
H757   H     0.48815   0.37227   0.83474   0.00000  Uiso   1.00
H758   H     0.51266   0.37291   0.66434   0.00000  Uiso   1.00
H759   H     0.61150   0.44517   0.79846   0.00000  Uiso   1.00
H760   H     0.36168   0.44513   0.79834   0.00000  Uiso   1.00
H761   H     0.63786   0.55430   0.70125   0.00000  Uiso   1.00
H762   H     0.47741   0.53246   0.59180   0.00000  Uiso   1.00
H763   H     0.38510   0.50571   0.92001   0.00000  Uiso   1.00
H764   H     0.36091   0.49959   0.51723   0.00000  Uiso   1.00
H765   H     0.54916   0.54905   0.86930   0.00000  Uiso   1.00
N766   N     0.38093   0.50001   0.75002   0.00000  Uiso   1.00
N767   N     0.61906   0.49998   0.75001   0.00000  Uiso   1.00
O768   O     0.46179   0.56108   0.75001   0.00000  Uiso   1.00
O769   O     0.53823   0.56107   0.75001   0.00000  Uiso   1.00
O770   O     0.44280   0.50000   0.82681   0.00000  Uiso   1.00
O771   O     0.51924   0.49999   0.82681   0.00000  Uiso   1.00
O772   O     0.46177   0.43893   0.75000   0.00000  Uiso   1.00
O773   O     0.53821   0.43892   0.75000   0.00000  Uiso   1.00
O774   O     0.48076   0.50001   0.67319   0.00000  Uiso   1.00
O775   O     0.55720   0.50000   0.67319   0.00000  Uiso   1.00
Zn776  Zn    0.44896   0.50001   0.75000   0.00000  Uiso   1.00
Zn777  Zn    0.55104   0.49999   0.75000   0.00000  Uiso   1.00
I778   I     0.62011   0.43556   0.59057   0.00000  Uiso   1.00
Cl779  Cl    0.51733   0.61902   0.63982   0.00000  Uiso   1.00
Cl780  Cl    0.40148   0.56987   0.68549   0.00000  Uiso   1.00
I781   I     0.64484   0.54489   0.88382   0.00000  Uiso   1.00
Cl782  Cl    0.64197   0.45457   0.95798   0.00000  Uiso   1.00
I783   I     0.40735   0.47319   0.59697   0.00000  Uiso   1.00
Cl784  Cl    0.48232   0.61854   0.85987   0.00000  Uiso   1.00
C785   C     0.83323   0.57982   0.74996   0.00000  Uiso   1.00
C786   C     0.81315   0.51384   0.99139   0.00000  Uiso   1.00
C787   C     0.82604   0.52082   0.93557   0.00000  Uiso   1.00
C788   C     0.85029   0.51218   0.51349   0.00000  Uiso   1.00
C789   C     0.89748   0.50663   0.98004   0.00000  Uiso   1.00
C790   C     0.90953   0.52294   0.92785   0.00000  Uiso   1.00
C791   C     0.87320   0.53297   0.90756   0.00000  Uiso   1.00
C792   C     0.84269   0.51679   0.56736   0.00000  Uiso   1.00
C793   C     0.91639   0.47973   0.55719   0.00000  Uiso   1.00
C794   C     0.79241   0.51329   0.90925   0.00000  Uiso   1.00
C795   C     0.82609   0.64516   0.79829   0.00000  Uiso   1.00
C796   C     0.80752   0.50439   0.85141   0.00000  Uiso   1.00
C797   C     0.82683   0.35510   0.79781   0.00000  Uiso   1.00
C798   C     0.83384   0.37619   0.74954   0.00000  Uiso   1.00
C799   C     0.84047   0.35545   0.70136   0.00000  Uiso   1.00
C800   C     0.84043   0.64546   0.70120   0.00000  Uiso   1.00
C801   C     0.83302   0.62404   0.74985   0.00000  Uiso   1.00
C802   C     0.96872   0.46953   0.77674   0.00000  Uiso   1.00
C803   C     0.68317   0.46948   0.77666   0.00000  Uiso   1.00
C804   C     0.69762   0.53036   0.72293   0.00000  Uiso   1.00
C805   C     0.98331   0.53023   0.72308   0.00000  Uiso   1.00
C806   C     0.83355   0.42022   0.74966   0.00000  Uiso   1.00
C807   C     0.85947   0.49911   0.64830   0.00000  Uiso   1.00
C808   C     0.92919   0.48520   0.50108   0.00000  Uiso   1.00
C809   C     0.87485   0.49981   0.59014   0.00000  Uiso   1.00
C810   C     0.74468   0.50933   0.93958   0.00000  Uiso   1.00
C811   C     0.73102   0.50568   0.99497   0.00000  Uiso   1.00
C812   C     0.76505   0.50398   0.52074   0.00000  Uiso   1.00
H813   H     0.82149   0.37227   0.83474   0.00000  Uiso   1.00
H814   H     0.84600   0.37291   0.66434   0.00000  Uiso   1.00
H815   H     0.94484   0.44517   0.79846   0.00000  Uiso   1.00
H816   H     0.69501   0.44513   0.79834   0.00000  Uiso   1.00
H817   H     0.97119   0.55430   0.70125   0.00000  Uiso   1.00
H818   H     0.81074   0.53246   0.59180   0.00000  Uiso   1.00
H819   H     0.71843   0.50571   0.92001   0.00000  Uiso   1.00
H820   H     0.69424   0.49959   0.51723   0.00000  Uiso   1.00
H821   H     0.88249   0.54905   0.86930   0.00000  Uiso   1.00
N822   N     0.71426   0.50001   0.75002   0.00000  Uiso   1.00
N823   N     0.95239   0.49998   0.75001   0.00000  Uiso   1.00
O824   O     0.79512   0.56108   0.75001   0.00000  Uiso   1.00
O825   O     0.87157   0.56107   0.75001   0.00000  Uiso   1.00
O826   O     0.77613   0.50000   0.82681   0.00000  Uiso   1.00
O827   O     0.85258   0.49999   0.82681   0.00000  Uiso   1.00
O828   O     0.79510   0.43893   0.75000   0.00000  Uiso   1.00
O829   O     0.87154   0.43892   0.75000   0.00000  Uiso   1.00
O830   O     0.81409   0.50001   0.67319   0.00000  Uiso   1.00
O831   O     0.89053   0.50000   0.67319   0.00000  Uiso   1.00
Zn832  Zn    0.78229   0.50001   0.75000   0.00000  Uiso   1.00
Zn833  Zn    0.88438   0.49999   0.75000   0.00000  Uiso   1.00
I834   I     0.95344   0.43556   0.59057   0.00000  Uiso   1.00
Cl835  Cl    0.85066   0.61902   0.63982   0.00000  Uiso   1.00
Cl836  Cl    0.73481   0.56987   0.68549   0.00000  Uiso   1.00
I837   I     0.97818   0.54489   0.88382   0.00000  Uiso   1.00
Cl838  Cl    0.97530   0.45457   0.95798   0.00000  Uiso   1.00
I839   I     0.74068   0.47319   0.59697   0.00000  Uiso   1.00
Cl840  Cl    0.81565   0.61854   0.85987   0.00000  Uiso   1.00
C841   C     0.16656   0.91315   0.74996   0.00000  Uiso   1.00
C842   C     0.14648   0.84717   0.99139   0.00000  Uiso   1.00
C843   C     0.15937   0.85415   0.93557   0.00000  Uiso   1.00
C844   C     0.18362   0.84551   0.51349   0.00000  Uiso   1.00
C845   C     0.23081   0.83996   0.98004   0.00000  Uiso   1.00
C846   C     0.24287   0.85627   0.92785   0.00000  Uiso   1.00
C847   C     0.20653   0.86631   0.90756   0.00000  Uiso   1.00
C848   C     0.17603   0.85012   0.56736   0.00000  Uiso   1.00
C849   C     0.24973   0.81306   0.55719   0.00000  Uiso   1.00
C850   C     0.12574   0.84662   0.90925   0.00000  Uiso   1.00
C851   C     0.15942   0.97849   0.79829   0.00000  Uiso   1.00
C852   C     0.14085   0.83772   0.85141   0.00000  Uiso   1.00
C853   C     0.16017   0.68843   0.79781   0.00000  Uiso   1.00
C854   C     0.16718   0.70952   0.74954   0.00000  Uiso   1.00
C855   C     0.17381   0.68878   0.70136   0.00000  Uiso   1.00
C856   C     0.17376   0.97879   0.70120   0.00000  Uiso   1.00
C857   C     0.16635   0.95737   0.74985   0.00000  Uiso   1.00
C858   C     0.30206   0.80286   0.77674   0.00000  Uiso   1.00
C859   C     0.01650   0.80282   0.77666   0.00000  Uiso   1.00
C860   C     0.03095   0.86369   0.72293   0.00000  Uiso   1.00
C861   C     0.31664   0.86356   0.72308   0.00000  Uiso   1.00
C862   C     0.16688   0.75355   0.74966   0.00000  Uiso   1.00
C863   C     0.19280   0.83244   0.64830   0.00000  Uiso   1.00
C864   C     0.26252   0.81854   0.50108   0.00000  Uiso   1.00
C865   C     0.20819   0.83315   0.59014   0.00000  Uiso   1.00
C866   C     0.07801   0.84267   0.93958   0.00000  Uiso   1.00
C867   C     0.06435   0.83901   0.99497   0.00000  Uiso   1.00
C868   C     0.09839   0.83731   0.52074   0.00000  Uiso   1.00
H869   H     0.15482   0.70560   0.83474   0.00000  Uiso   1.00
H870   H     0.17933   0.70624   0.66434   0.00000  Uiso   1.00
H871   H     0.27817   0.77851   0.79846   0.00000  Uiso   1.00
H872   H     0.02834   0.77847   0.79834   0.00000  Uiso   1.00
H873   H     0.30453   0.88764   0.70125   0.00000  Uiso   1.00
H874   H     0.14408   0.86579   0.59180   0.00000  Uiso   1.00
H875   H     0.05177   0.83904   0.92001   0.00000  Uiso   1.00
H876   H     0.02757   0.83292   0.51723   0.00000  Uiso   1.00
H877   H     0.21582   0.88239   0.86930   0.00000  Uiso   1.00
N878   N     0.04760   0.83334   0.75002   0.00000  Uiso   1.00
N879   N     0.28573   0.83331   0.75001   0.00000  Uiso   1.00
O880   O     0.12846   0.89442   0.75001   0.00000  Uiso   1.00
O881   O     0.20490   0.89441   0.75001   0.00000  Uiso   1.00
O882   O     0.10947   0.83333   0.82681   0.00000  Uiso   1.00
O883   O     0.18591   0.83332   0.82681   0.00000  Uiso   1.00
O884   O     0.12843   0.77226   0.75000   0.00000  Uiso   1.00
O885   O     0.20488   0.77225   0.75000   0.00000  Uiso   1.00
O886   O     0.14742   0.83335   0.67319   0.00000  Uiso   1.00
O887   O     0.22387   0.83334   0.67319   0.00000  Uiso   1.00
Zn888  Zn    0.11562   0.83334   0.75000   0.00000  Uiso   1.00
Zn889  Zn    0.21771   0.83333   0.75000   0.00000  Uiso   1.00
I890   I     0.28677   0.76889   0.59057   0.00000  Uiso   1.00
Cl891  Cl    0.18400   0.95236   0.63982   0.00000  Uiso   1.00
Cl892  Cl    0.06814   0.90320   0.68549   0.00000  Uiso   1.00
I893   I     0.31151   0.87822   0.88382   0.00000  Uiso   1.00
Cl894  Cl    0.30864   0.78791   0.95798   0.00000  Uiso   1.00
I895   I     0.07401   0.80652   0.59697   0.00000  Uiso   1.00
Cl896  Cl    0.14899   0.95187   0.85987   0.00000  Uiso   1.00
C897   C     0.49989   0.91315   0.74996   0.00000  Uiso   1.00
C898   C     0.47982   0.84717   0.99139   0.00000  Uiso   1.00
C899   C     0.49270   0.85415   0.93557   0.00000  Uiso   1.00
C900   C     0.51695   0.84551   0.51349   0.00000  Uiso   1.00
C901   C     0.56414   0.83996   0.98004   0.00000  Uiso   1.00
C902   C     0.57620   0.85627   0.92785   0.00000  Uiso   1.00
C903   C     0.53986   0.86631   0.90756   0.00000  Uiso   1.00
C904   C     0.50936   0.85012   0.56736   0.00000  Uiso   1.00
C905   C     0.58306   0.81306   0.55719   0.00000  Uiso   1.00
C906   C     0.45907   0.84662   0.90925   0.00000  Uiso   1.00
C907   C     0.49275   0.97849   0.79829   0.00000  Uiso   1.00
C908   C     0.47418   0.83772   0.85141   0.00000  Uiso   1.00
C909   C     0.49350   0.68843   0.79781   0.00000  Uiso   1.00
C910   C     0.50051   0.70952   0.74954   0.00000  Uiso   1.00
C911   C     0.50714   0.68878   0.70136   0.00000  Uiso   1.00
C912   C     0.50709   0.97879   0.70120   0.00000  Uiso   1.00
C913   C     0.49969   0.95737   0.74985   0.00000  Uiso   1.00
C914   C     0.63539   0.80286   0.77674   0.00000  Uiso   1.00
C915   C     0.34984   0.80282   0.77666   0.00000  Uiso   1.00
C916   C     0.36428   0.86369   0.72293   0.00000  Uiso   1.00
C917   C     0.64997   0.86356   0.72308   0.00000  Uiso   1.00
C918   C     0.50022   0.75355   0.74966   0.00000  Uiso   1.00
C919   C     0.52614   0.83244   0.64830   0.00000  Uiso   1.00
C920   C     0.59586   0.81854   0.50108   0.00000  Uiso   1.00
C921   C     0.54152   0.83315   0.59014   0.00000  Uiso   1.00
C922   C     0.41134   0.84267   0.93958   0.00000  Uiso   1.00
C923   C     0.39768   0.83901   0.99497   0.00000  Uiso   1.00
C924   C     0.43172   0.83731   0.52074   0.00000  Uiso   1.00
H925   H     0.48815   0.70560   0.83474   0.00000  Uiso   1.00
H926   H     0.51266   0.70624   0.66434   0.00000  Uiso   1.00
H927   H     0.61150   0.77851   0.79846   0.00000  Uiso   1.00
H928   H     0.36168   0.77847   0.79834   0.00000  Uiso   1.00
H929   H     0.63786   0.88764   0.70125   0.00000  Uiso   1.00
H930   H     0.47741   0.86579   0.59180   0.00000  Uiso   1.00
H931   H     0.38510   0.83904   0.92001   0.00000  Uiso   1.00
H932   H     0.36091   0.83292   0.51723   0.00000  Uiso   1.00
H933   H     0.54916   0.88239   0.86930   0.00000  Uiso   1.00
N934   N     0.38093   0.83334   0.75002   0.00000  Uiso   1.00
N935   N     0.61906   0.83331   0.75001   0.00000  Uiso   1.00
O936   O     0.46179   0.89442   0.75001   0.00000  Uiso   1.00
O937   O     0.53823   0.89441   0.75001   0.00000  Uiso   1.00
O938   O     0.44280   0.83333   0.82681   0.00000  Uiso   1.00
O939   O     0.51924   0.83332   0.82681   0.00000  Uiso   1.00
O940   O     0.46177   0.77226   0.75000   0.00000  Uiso   1.00
O941   O     0.53821   0.77225   0.75000   0.00000  Uiso   1.00
O942   O     0.48076   0.83335   0.67319   0.00000  Uiso   1.00
O943   O     0.55720   0.83334   0.67319   0.00000  Uiso   1.00
Zn944  Zn    0.44896   0.83334   0.75000   0.00000  Uiso   1.00
Zn945  Zn    0.55104   0.83333   0.75000   0.00000  Uiso   1.00
I946   I     0.62011   0.76889   0.59057   0.00000  Uiso   1.00
Cl947  Cl    0.51733   0.95236   0.63982   0.00000  Uiso   1.00
Cl948  Cl    0.40148   0.90320   0.68549   0.00000  Uiso   1.00
I949   I     0.64484   0.87822   0.88382   0.00000  Uiso   1.00
Cl950  Cl    0.64197   0.78791   0.95798   0.00000  Uiso   1.00
I951   I     0.40735   0.80652   0.59697   0.00000  Uiso   1.00
Cl952  Cl    0.48232   0.95187   0.85987   0.00000  Uiso   1.00
C953   C     0.83323   0.91315   0.74996   0.00000  Uiso   1.00
C954   C     0.81315   0.84717   0.99139   0.00000  Uiso   1.00
C955   C     0.82604   0.85415   0.93557   0.00000  Uiso   1.00
C956   C     0.85029   0.84551   0.51349   0.00000  Uiso   1.00
C957   C     0.89748   0.83996   0.98004   0.00000  Uiso   1.00
C958   C     0.90953   0.85627   0.92785   0.00000  Uiso   1.00
C959   C     0.87320   0.86631   0.90756   0.00000  Uiso   1.00
C960   C     0.84269   0.85012   0.56736   0.00000  Uiso   1.00
C961   C     0.91639   0.81306   0.55719   0.00000  Uiso   1.00
C962   C     0.79241   0.84662   0.90925   0.00000  Uiso   1.00
C963   C     0.82609   0.97849   0.79829   0.00000  Uiso   1.00
C964   C     0.80752   0.83772   0.85141   0.00000  Uiso   1.00
C965   C     0.82683   0.68843   0.79781   0.00000  Uiso   1.00
C966   C     0.83384   0.70952   0.74954   0.00000  Uiso   1.00
C967   C     0.84047   0.68878   0.70136   0.00000  Uiso   1.00
C968   C     0.84043   0.97879   0.70120   0.00000  Uiso   1.00
C969   C     0.83302   0.95737   0.74985   0.00000  Uiso   1.00
C970   C     0.96872   0.80286   0.77674   0.00000  Uiso   1.00
C971   C     0.68317   0.80282   0.77666   0.00000  Uiso   1.00
C972   C     0.69762   0.86369   0.72293   0.00000  Uiso   1.00
C973   C     0.98331   0.86356   0.72308   0.00000  Uiso   1.00
C974   C     0.83355   0.75355   0.74966   0.00000  Uiso   1.00
C975   C     0.85947   0.83244   0.64830   0.00000  Uiso   1.00
C976   C     0.92919   0.81854   0.50108   0.00000  Uiso   1.00
C977   C     0.87485   0.83315   0.59014   0.00000  Uiso   1.00
C978   C     0.74468   0.84267   0.93958   0.00000  Uiso   1.00
C979   C     0.73102   0.83901   0.99497   0.00000  Uiso   1.00
C980   C     0.76505   0.83731   0.52074   0.00000  Uiso   1.00
H981   H     0.82149   0.70560   0.83474   0.00000  Uiso   1.00
H982   H     0.84600   0.70624   0.66434   0.00000  Uiso   1.00
H983   H     0.94484   0.77851   0.79846   0.00000  Uiso   1.00
H984   H     0.69501   0.77847   0.79834   0.00000  Uiso   1.00
H985   H     0.97119   0.88764   0.70125   0.00000  Uiso   1.00
H986   H     0.81074   0.86579   0.59180   0.00000  Uiso   1.00
H987   H     0.71843   0.83904   0.92001   0.00000  Uiso   1.00
H988   H     0.69424   0.83292   0.51723   0.00000  Uiso   1.00
H989   H     0.88249   0.88239   0.86930   0.00000  Uiso   1.00
N990   N     0.71426   0.83334   0.75002   0.00000  Uiso   1.00
N991   N     0.95239   0.83331   0.75001   0.00000  Uiso   1.00
O992   O     0.79512   0.89442   0.75001   0.00000  Uiso   1.00
O993   O     0.87157   0.89441   0.75001   0.00000  Uiso   1.00
O994   O     0.77613   0.83333   0.82681   0.00000  Uiso   1.00
O995   O     0.85258   0.83332   0.82681   0.00000  Uiso   1.00
O996   O     0.79510   0.77226   0.75000   0.00000  Uiso   1.00
O997   O     0.87154   0.77225   0.75000   0.00000  Uiso   1.00
O998   O     0.81409   0.83335   0.67319   0.00000  Uiso   1.00
O999   O     0.89053   0.83334   0.67319   0.00000  Uiso   1.00
Zn1000 Zn    0.78229   0.83334   0.75000   0.00000  Uiso   1.00
Zn1001 Zn    0.88438   0.83333   0.75000   0.00000  Uiso   1.00
I1002  I     0.95344   0.76889   0.59057   0.00000  Uiso   1.00
Cl1003 Cl    0.85066   0.95236   0.63982   0.00000  Uiso   1.00
Cl1004 Cl    0.73481   0.90320   0.68549   0.00000  Uiso   1.00
I1005  I     0.97818   0.87822   0.88382   0.00000  Uiso   1.00
Cl1006 Cl    0.97530   0.78791   0.95798   0.00000  Uiso   1.00
I1007  I     0.74068   0.80652   0.59697   0.00000  Uiso   1.00
Cl1008 Cl    0.81565   0.95187   0.85987   0.00000  Uiso   1.00
loop_
_geom_bond_atom_site_label_1
_geom_bond_atom_site_label_2
_geom_bond_distance
_geom_bond_site_symmetry_2
_ccdc_geom_bond_type
C1     C17     1.405   .     S
C1     O40     1.286   .     A
C1     O41     1.285   .     A
C2     C3      1.411   .     A
C2     C508    1.409   .     S
C2     C532    1.427   .     S
C3     C10     1.414   .     A
C3     C7      1.414   .     A
C4     C8      1.372   .     A
C4     C506    1.409   1_554 S
C4     C509    1.407   1_554 S
C5     C6      1.401   .     A
C5     C508    1.407   .     S
C5     C528    1.411   .     S
C6     C7      1.389   .     A
C6     I53     2.118   .     S
C7     H37     1.081   .     S
C8     C25     1.390   .     A
C8     H34     1.081   .     S
C9     C24     1.412   .     A
C9     C25     1.412   .     A
C9     I50     2.134   .     S
C10    C26     1.394   .     A
C10    C12     1.472   .     S
C11    Cl56    1.762   .     S
C11    C17     1.401   .     A
C11    C181    1.375   .     S
C12    O42     1.308   .     A
C12    O43     1.295   .     A
C13    C14     1.389   .     A
C13    H29     1.085   .     S
C13    C347    1.375   1_545 S
C14    C22     1.399   .     S
C14    C15     1.390   .     A
C15    H30     1.085   .     S
C15    C352    1.376   1_545 S
C16    Cl51    1.764   .     S
C16    C17     1.401   .     A
C16    C183    1.376   .     S
C18    N39     1.370   .     A
C18    H31     1.082   .     S
C18    C75     1.423   .     S
C19    N38     1.369   .     A
C19    H32     1.082   .     S
C19    C130    1.423   1_455 S
C20    N38     1.378   .     A
C20    Cl52    1.752   .     S
C20    C133    1.419   1_455 S
C21    N39     1.362   .     A
C21    H33     1.082   .     S
C21    C76     1.419   .     S
C22    O44     1.285   .     A
C22    O45     1.285   .     A
C23    C25     1.451   .     S
C23    O47     1.298   .     A
C23    O46     1.298   .     A
C24    C509    1.411   1_554 S
C24    Cl558   1.763   1_554 S
C26    C27     1.387   .     A
C26    H35     1.075   .     S
C27    C532    1.393   .     S
C27    H540    1.080   .     S
C28    I55     2.135   .     S
C28    C531    1.393   1_554 S
C28    C506    1.427   1_554 S
H36    C531    1.080   1_554 S
N38    Zn48    2.027   .     S
N39    Zn49    2.027   .     S
O40    Zn48    1.980   .     S
O41    Zn49    1.975   .     S
O42    Zn48    1.973   .     S
O43    Zn49    1.937   .     S
O44    Zn48    1.975   .     S
O45    Zn49    1.980   .     S
O46    Zn48    1.937   .     S
O47    Zn49    1.973   .     S
Cl54   C528    1.763   .     S
C57    C73     1.405   .     S
C57    O96     1.286   .     A
C57    O97     1.285   .     A
C58    C59     1.411   .     A
C58    C564    1.409   .     S
C58    C588    1.427   .     S
C59    C66     1.414   .     A
C59    C63     1.414   .     A
C60    C64     1.372   .     A
C60    C562    1.409   1_554 S
C60    C565    1.407   1_554 S
C61    C62     1.401   .     A
C61    C564    1.407   .     S
C61    C584    1.411   .     S
C62    C63     1.389   .     A
C62    I109    2.118   .     S
C63    H93     1.081   .     S
C64    C81     1.390   .     A
C64    H90     1.081   .     S
C65    C80     1.412   .     A
C65    C81     1.412   .     A
C65    I106    2.134   .     S
C66    C82     1.394   .     A
C66    C68     1.472   .     S
C67    Cl112   1.762   .     S
C67    C73     1.401   .     A
C67    C237    1.375   .     S
C68    O98     1.308   .     A
C68    O99     1.295   .     A
C69    C70     1.389   .     A
C69    H85     1.085   .     S
C69    C403    1.375   1_545 S
C70    C78     1.399   .     S
C70    C71     1.390   .     A
C71    H86     1.085   .     S
C71    C408    1.376   1_545 S
C72    Cl107   1.764   .     S
C72    C73     1.401   .     A
C72    C239    1.376   .     S
C74    N95     1.370   .     A
C74    H87     1.082   .     S
C74    C131    1.423   .     S
C75    N94     1.369   .     A
C75    H88     1.082   .     S
C76    N94     1.378   .     A
C76    Cl108   1.752   .     S
C77    N95     1.362   .     A
C77    H89     1.082   .     S
C77    C132    1.419   .     S
C78    O100    1.285   .     A
C78    O101    1.285   .     A
C79    C81     1.451   .     S
C79    O103    1.298   .     A
C79    O102    1.298   .     A
C80    C565    1.411   1_554 S
C80    Cl614   1.763   1_554 S
C82    C83     1.387   .     A
C82    H91     1.075   .     S
C83    C588    1.393   .     S
C83    H596    1.080   .     S
C84    I111    2.135   .     S
C84    C587    1.393   1_554 S
C84    C562    1.427   1_554 S
H92    C587    1.080   1_554 S
N94    Zn104   2.027   .     S
N95    Zn105   2.027   .     S
O96    Zn104   1.980   .     S
O97    Zn105   1.975   .     S
O98    Zn104   1.973   .     S
O99    Zn105   1.937   .     S
O100   Zn104   1.975   .     S
O101   Zn105   1.980   .     S
O102   Zn104   1.937   .     S
O103   Zn105   1.973   .     S
Cl110  C584    1.763   .     S
C113   C129    1.405   .     S
C113   O152    1.286   .     A
C113   O153    1.285   .     A
C114   C115    1.411   .     A
C114   C620    1.409   .     S
C114   C644    1.427   .     S
C115   C122    1.414   .     A
C115   C119    1.414   .     A
C116   C120    1.372   .     A
C116   C618    1.409   1_554 S
C116   C621    1.407   1_554 S
C117   C118    1.401   .     A
C117   C620    1.407   .     S
C117   C640    1.411   .     S
C118   C119    1.389   .     A
C118   I165    2.118   .     S
C119   H149    1.081   .     S
C120   C137    1.390   .     A
C120   H146    1.081   .     S
C121   C136    1.412   .     A
C121   C137    1.412   .     A
C121   I162    2.134   .     S
C122   C138    1.394   .     A
C122   C124    1.472   .     S
C123   Cl168   1.762   .     S
C123   C129    1.401   .     A
C123   C293    1.375   .     S
C124   O154    1.308   .     A
C124   O155    1.295   .     A
C125   C126    1.389   .     A
C125   H141    1.085   .     S
C125   C459    1.375   1_545 S
C126   C134    1.399   .     S
C126   C127    1.390   .     A
C127   H142    1.085   .     S
C127   C464    1.376   1_545 S
C128   Cl163   1.764   .     S
C128   C129    1.401   .     A
C128   C295    1.376   .     S
C130   N151    1.370   .     A
C130   H143    1.082   .     S
C130   C19     1.423   1_655 S
C131   N150    1.369   .     A
C131   H144    1.082   .     S
C132   N150    1.378   .     A
C132   Cl164   1.752   .     S
C133   N151    1.362   .     A
C133   H145    1.082   .     S
C133   C20     1.419   1_655 S
C134   O156    1.285   .     A
C134   O157    1.285   .     A
C135   C137    1.451   .     S
C135   O159    1.298   .     A
C135   O158    1.298   .     A
C136   C621    1.411   1_554 S
C136   Cl670   1.763   1_554 S
C138   C139    1.387   .     A
C138   H147    1.075   .     S
C139   C644    1.393   .     S
C139   H652    1.080   .     S
C140   I167    2.135   .     S
C140   C643    1.393   1_554 S
C140   C618    1.427   1_554 S
H148   C643    1.080   1_554 S
N150   Zn160   2.027   .     S
N151   Zn161   2.027   .     S
O152   Zn160   1.980   .     S
O153   Zn161   1.975   .     S
O154   Zn160   1.973   .     S
O155   Zn161   1.937   .     S
O156   Zn160   1.975   .     S
O157   Zn161   1.980   .     S
O158   Zn160   1.937   .     S
O159   Zn161   1.973   .     S
Cl166  C640    1.763   .     S
C169   C185    1.405   .     S
C169   O208    1.286   .     A
C169   O209    1.285   .     A
C170   C171    1.411   .     A
C170   C676    1.409   .     S
C170   C700    1.427   .     S
C171   C178    1.414   .     A
C171   C175    1.414   .     A
C172   C176    1.372   .     A
C172   C674    1.409   1_554 S
C172   C677    1.407   1_554 S
C173   C174    1.401   .     A
C173   C676    1.407   .     S
C173   C696    1.411   .     S
C174   C175    1.389   .     A
C174   I221    2.118   .     S
C175   H205    1.081   .     S
C176   C193    1.390   .     A
C176   H202    1.081   .     S
C177   C192    1.412   .     A
C177   C193    1.412   .     A
C177   I218    2.134   .     S
C178   C194    1.394   .     A
C178   C180    1.472   .     S
C179   Cl224   1.762   .     S
C179   C185    1.401   .     A
C179   C349    1.375   .     S
C180   O210    1.308   .     A
C180   O211    1.295   .     A
C181   C182    1.389   .     A
C181   H197    1.085   .     S
C182   C190    1.399   .     S
C182   C183    1.390   .     A
C183   H198    1.085   .     S
C184   Cl219   1.764   .     S
C184   C185    1.401   .     A
C184   C351    1.376   .     S
C186   N207    1.370   .     A
C186   H199    1.082   .     S
C186   C243    1.423   .     S
C187   N206    1.369   .     A
C187   H200    1.082   .     S
C187   C298    1.423   1_455 S
C188   N206    1.378   .     A
C188   Cl220   1.752   .     S
C188   C301    1.419   1_455 S
C189   N207    1.362   .     A
C189   H201    1.082   .     S
C189   C244    1.419   .     S
C190   O212    1.285   .     A
C190   O213    1.285   .     A
C191   C193    1.451   .     S
C191   O215    1.298   .     A
C191   O214    1.298   .     A
C192   C677    1.411   1_554 S
C192   Cl726   1.763   1_554 S
C194   C195    1.387   .     A
C194   H203    1.075   .     S
C195   C700    1.393   .     S
C195   H708    1.080   .     S
C196   I223    2.135   .     S
C196   C699    1.393   1_554 S
C196   C674    1.427   1_554 S
H204   C699    1.080   1_554 S
N206   Zn216   2.027   .     S
N207   Zn217   2.027   .     S
O208   Zn216   1.980   .     S
O209   Zn217   1.975   .     S
O210   Zn216   1.973   .     S
O211   Zn217   1.937   .     S
O212   Zn216   1.975   .     S
O213   Zn217   1.980   .     S
O214   Zn216   1.937   .     S
O215   Zn217   1.973   .     S
Cl222  C696    1.763   .     S
C225   C241    1.405   .     S
C225   O264    1.286   .     A
C225   O265    1.285   .     A
C226   C227    1.411   .     A
C226   C732    1.409   .     S
C226   C756    1.427   .     S
C227   C234    1.414   .     A
C227   C231    1.414   .     A
C228   C232    1.372   .     A
C228   C730    1.409   1_554 S
C228   C733    1.407   1_554 S
C229   C230    1.401   .     A
C229   C732    1.407   .     S
C229   C752    1.411   .     S
C230   C231    1.389   .     A
C230   I277    2.118   .     S
C231   H261    1.081   .     S
C232   C249    1.390   .     A
C232   H258    1.081   .     S
C233   C248    1.412   .     A
C233   C249    1.412   .     A
C233   I274    2.134   .     S
C234   C250    1.394   .     A
C234   C236    1.472   .     S
C235   Cl280   1.762   .     S
C235   C241    1.401   .     A
C235   C405    1.375   .     S
C236   O266    1.308   .     A
C236   O267    1.295   .     A
C237   C238    1.389   .     A
C237   H253    1.085   .     S
C238   C246    1.399   .     S
C238   C239    1.390   .     A
C239   H254    1.085   .     S
C240   Cl275   1.764   .     S
C240   C241    1.401   .     A
C240   C407    1.376   .     S
C242   N263    1.370   .     A
C242   H255    1.082   .     S
C242   C299    1.423   .     S
C243   N262    1.369   .     A
C243   H256    1.082   .     S
C244   N262    1.378   .     A
C244   Cl276   1.752   .     S
C245   N263    1.362   .     A
C245   H257    1.082   .     S
C245   C300    1.419   .     S
C246   O268    1.285   .     A
C246   O269    1.285   .     A
C247   C249    1.451   .     S
C247   O271    1.298   .     A
C247   O270    1.298   .     A
C248   C733    1.411   1_554 S
C248   Cl782   1.763   1_554 S
C250   C251    1.387   .     A
C250   H259    1.075   .     S
C251   C756    1.393   .     S
C251   H764    1.080   .     S
C252   I279    2.135   .     S
C252   C755    1.393   1_554 S
C252   C730    1.427   1_554 S
H260   C755    1.080   1_554 S
N262   Zn272   2.027   .     S
N263   Zn273   2.027   .     S
O264   Zn272   1.980   .     S
O265   Zn273   1.975   .     S
O266   Zn272   1.973   .     S
O267   Zn273   1.937   .     S
O268   Zn272   1.975   .     S
O269   Zn273   1.980   .     S
O270   Zn272   1.937   .     S
O271   Zn273   1.973   .     S
Cl278  C752    1.763   .     S
C281   C297    1.405   .     S
C281   O320    1.286   .     A
C281   O321    1.285   .     A
C282   C283    1.411   .     A
C282   C788    1.409   .     S
C282   C812    1.427   .     S
C283   C290    1.414   .     A
C283   C287    1.414   .     A
C284   C288    1.372   .     A
C284   C786    1.409   1_554 S
C284   C789    1.407   1_554 S
C285   C286    1.401   .     A
C285   C788    1.407   .     S
C285   C808    1.411   .     S
C286   C287    1.389   .     A
C286   I333    2.118   .     S
C287   H317    1.081   .     S
C288   C305    1.390   .     A
C288   H314    1.081   .     S
C289   C304    1.412   .     A
C289   C305    1.412   .     A
C289   I330    2.134   .     S
C290   C306    1.394   .     A
C290   C292    1.472   .     S
C291   Cl336   1.762   .     S
C291   C297    1.401   .     A
C291   C461    1.375   .     S
C292   O322    1.308   .     A
C292   O323    1.295   .     A
C293   C294    1.389   .     A
C293   H309    1.085   .     S
C294   C302    1.399   .     S
C294   C295    1.390   .     A
C295   H310    1.085   .     S
C296   Cl331   1.764   .     S
C296   C297    1.401   .     A
C296   C463    1.376   .     S
C298   N319    1.370   .     A
C298   H311    1.082   .     S
C298   C187    1.423   1_655 S
C299   N318    1.369   .     A
C299   H312    1.082   .     S
C300   N318    1.378   .     A
C300   Cl332   1.752   .     S
C301   N319    1.362   .     A
C301   H313    1.082   .     S
C301   C188    1.419   1_655 S
C302   O324    1.285   .     A
C302   O325    1.285   .     A
C303   C305    1.451   .     S
C303   O327    1.298   .     A
C303   O326    1.298   .     A
C304   C789    1.411   1_554 S
C304   Cl838   1.763   1_554 S
C306   C307    1.387   .     A
C306   H315    1.075   .     S
C307   C812    1.393   .     S
C307   H820    1.080   .     S
C308   I335    2.135   .     S
C308   C811    1.393   1_554 S
C308   C786    1.427   1_554 S
H316   C811    1.080   1_554 S
N318   Zn328   2.027   .     S
N319   Zn329   2.027   .     S
O320   Zn328   1.980   .     S
O321   Zn329   1.975   .     S
O322   Zn328   1.973   .     S
O323   Zn329   1.937   .     S
O324   Zn328   1.975   .     S
O325   Zn329   1.980   .     S
O326   Zn328   1.937   .     S
O327   Zn329   1.973   .     S
Cl334  C808    1.763   .     S
C337   C353    1.405   .     S
C337   O376    1.286   .     A
C337   O377    1.285   .     A
C338   C339    1.411   .     A
C338   C844    1.409   .     S
C338   C868    1.427   .     S
C339   C346    1.414   .     A
C339   C343    1.414   .     A
C340   C344    1.372   .     A
C340   C842    1.409   1_554 S
C340   C845    1.407   1_554 S
C341   C342    1.401   .     A
C341   C844    1.407   .     S
C341   C864    1.411   .     S
C342   C343    1.389   .     A
C342   I389    2.118   .     S
C343   H373    1.081   .     S
C344   C361    1.390   .     A
C344   H370    1.081   .     S
C345   C360    1.412   .     A
C345   C361    1.412   .     A
C345   I386    2.134   .     S
C346   C362    1.394   .     A
C346   C348    1.472   .     S
C347   Cl392   1.762   .     S
C347   C353    1.401   .     A
C347   C13     1.375   1_565 S
C348   O378    1.308   .     A
C348   O379    1.295   .     A
C349   C350    1.389   .     A
C349   H365    1.085   .     S
C350   C358    1.399   .     S
C350   C351    1.390   .     A
C351   H366    1.085   .     S
C352   Cl387   1.764   .     S
C352   C353    1.401   .     A
C352   C15     1.376   1_565 S
C354   N375    1.370   .     A
C354   H367    1.082   .     S
C354   C411    1.423   .     S
C355   N374    1.369   .     A
C355   H368    1.082   .     S
C355   C466    1.423   1_455 S
C356   N374    1.378   .     A
C356   Cl388   1.752   .     S
C356   C469    1.419   1_455 S
C357   N375    1.362   .     A
C357   H369    1.082   .     S
C357   C412    1.419   .     S
C358   O380    1.285   .     A
C358   O381    1.285   .     A
C359   C361    1.451   .     S
C359   O383    1.298   .     A
C359   O382    1.298   .     A
C360   C845    1.411   1_554 S
C360   Cl894   1.763   1_554 S
C362   C363    1.387   .     A
C362   H371    1.075   .     S
C363   C868    1.393   .     S
C363   H876    1.080   .     S
C364   I391    2.135   .     S
C364   C867    1.393   1_554 S
C364   C842    1.427   1_554 S
H372   C867    1.080   1_554 S
N374   Zn384   2.027   .     S
N375   Zn385   2.027   .     S
O376   Zn384   1.980   .     S
O377   Zn385   1.975   .     S
O378   Zn384   1.973   .     S
O379   Zn385   1.937   .     S
O380   Zn384   1.975   .     S
O381   Zn385   1.980   .     S
O382   Zn384   1.937   .     S
O383   Zn385   1.973   .     S
Cl390  C864    1.763   .     S
C393   C409    1.405   .     S
C393   O432    1.286   .     A
C393   O433    1.285   .     A
C394   C395    1.411   .     A
C394   C900    1.409   .     S
C394   C924    1.427   .     S
C395   C402    1.414   .     A
C395   C399    1.414   .     A
C396   C400    1.372   .     A
C396   C898    1.409   1_554 S
C396   C901    1.407   1_554 S
C397   C398    1.401   .     A
C397   C900    1.407   .     S
C397   C920    1.411   .     S
C398   C399    1.389   .     A
C398   I445    2.118   .     S
C399   H429    1.081   .     S
C400   C417    1.390   .     A
C400   H426    1.081   .     S
C401   C416    1.412   .     A
C401   C417    1.412   .     A
C401   I442    2.134   .     S
C402   C418    1.394   .     A
C402   C404    1.472   .     S
C403   Cl448   1.762   .     S
C403   C409    1.401   .     A
C403   C69     1.375   1_565 S
C404   O434    1.308   .     A
C404   O435    1.295   .     A
C405   C406    1.389   .     A
C405   H421    1.085   .     S
C406   C414    1.399   .     S
C406   C407    1.390   .     A
C407   H422    1.085   .     S
C408   Cl443   1.764   .     S
C408   C409    1.401   .     A
C408   C71     1.376   1_565 S
C410   N431    1.370   .     A
C410   H423    1.082   .     S
C410   C467    1.423   .     S
C411   N430    1.369   .     A
C411   H424    1.082   .     S
C412   N430    1.378   .     A
C412   Cl444   1.752   .     S
C413   N431    1.362   .     A
C413   H425    1.082   .     S
C413   C468    1.419   .     S
C414   O436    1.285   .     A
C414   O437    1.285   .     A
C415   C417    1.451   .     S
C415   O439    1.298   .     A
C415   O438    1.298   .     A
C416   C901    1.411   1_554 S
C416   Cl950   1.763   1_554 S
C418   C419    1.387   .     A
C418   H427    1.075   .     S
C419   C924    1.393   .     S
C419   H932    1.080   .     S
C420   I447    2.135   .     S
C420   C923    1.393   1_554 S
C420   C898    1.427   1_554 S
H428   C923    1.080   1_554 S
N430   Zn440   2.027   .     S
N431   Zn441   2.027   .     S
O432   Zn440   1.980   .     S
O433   Zn441   1.975   .     S
O434   Zn440   1.973   .     S
O435   Zn441   1.937   .     S
O436   Zn440   1.975   .     S
O437   Zn441   1.980   .     S
O438   Zn440   1.937   .     S
O439   Zn441   1.973   .     S
Cl446  C920    1.763   .     S
C449   C465    1.405   .     S
C449   O488    1.286   .     A
C449   O489    1.285   .     A
C450   C451    1.411   .     A
C450   C956    1.409   .     S
C450   C980    1.427   .     S
C451   C458    1.414   .     A
C451   C455    1.414   .     A
C452   C456    1.372   .     A
C452   C954    1.409   1_554 S
C452   C957    1.407   1_554 S
C453   C454    1.401   .     A
C453   C956    1.407   .     S
C453   C976    1.411   .     S
C454   C455    1.389   .     A
C454   I501    2.118   .     S
C455   H485    1.081   .     S
C456   C473    1.390   .     A
C456   H482    1.081   .     S
C457   C472    1.412   .     A
C457   C473    1.412   .     A
C457   I498    2.134   .     S
C458   C474    1.394   .     A
C458   C460    1.472   .     S
C459   Cl504   1.762   .     S
C459   C465    1.401   .     A
C459   C125    1.375   1_565 S
C460   O490    1.308   .     A
C460   O491    1.295   .     A
C461   C462    1.389   .     A
C461   H477    1.085   .     S
C462   C470    1.399   .     S
C462   C463    1.390   .     A
C463   H478    1.085   .     S
C464   Cl499   1.764   .     S
C464   C465    1.401   .     A
C464   C127    1.376   1_565 S
C466   N487    1.370   .     A
C466   H479    1.082   .     S
C466   C355    1.423   1_655 S
C467   N486    1.369   .     A
C467   H480    1.082   .     S
C468   N486    1.378   .     A
C468   Cl500   1.752   .     S
C469   N487    1.362   .     A
C469   H481    1.082   .     S
C469   C356    1.419   1_655 S
C470   O492    1.285   .     A
C470   O493    1.285   .     A
C471   C473    1.451   .     S
C471   O495    1.298   .     A
C471   O494    1.298   .     A
C472   C957    1.411   1_554 S
C472   Cl1006  1.763   1_554 S
C474   C475    1.387   .     A
C474   H483    1.075   .     S
C475   C980    1.393   .     S
C475   H988    1.080   .     S
C476   I503    2.135   .     S
C476   C979    1.393   1_554 S
C476   C954    1.427   1_554 S
H484   C979    1.080   1_554 S
N486   Zn496   2.027   .     S
N487   Zn497   2.027   .     S
O488   Zn496   1.980   .     S
O489   Zn497   1.975   .     S
O490   Zn496   1.973   .     S
O491   Zn497   1.937   .     S
O492   Zn496   1.975   .     S
O493   Zn497   1.980   .     S
O494   Zn496   1.937   .     S
O495   Zn497   1.973   .     S
Cl502  C976    1.763   .     S
C505   C521    1.405   .     S
C505   O544    1.286   .     A
C505   O545    1.285   .     A
C506   C507    1.411   .     A
C506   C4      1.409   1_556 S
C506   C28     1.427   1_556 S
C507   C514    1.414   .     A
C507   C511    1.414   .     A
C508   C512    1.372   .     A
C509   C510    1.401   .     A
C509   C4      1.407   1_556 S
C509   C24     1.411   1_556 S
C510   C511    1.389   .     A
C510   I557    2.118   .     S
C511   H541    1.081   .     S
C512   C529    1.390   .     A
C512   H538    1.081   .     S
C513   C528    1.412   .     A
C513   C529    1.412   .     A
C513   I554    2.134   .     S
C514   C530    1.394   .     A
C514   C516    1.472   .     S
C515   Cl560   1.762   .     S
C515   C521    1.401   .     A
C515   C685    1.375   .     S
C516   O546    1.308   .     A
C516   O547    1.295   .     A
C517   C518    1.389   .     A
C517   H533    1.085   .     S
C517   C851    1.375   1_545 S
C518   C526    1.399   .     S
C518   C519    1.390   .     A
C519   H534    1.085   .     S
C519   C856    1.376   1_545 S
C520   Cl555   1.764   .     S
C520   C521    1.401   .     A
C520   C687    1.376   .     S
C522   N543    1.370   .     A
C522   H535    1.082   .     S
C522   C579    1.423   .     S
C523   N542    1.369   .     A
C523   H536    1.082   .     S
C523   C634    1.423   1_455 S
C524   N542    1.378   .     A
C524   Cl556   1.752   .     S
C524   C637    1.419   1_455 S
C525   N543    1.362   .     A
C525   H537    1.082   .     S
C525   C580    1.419   .     S
C526   O548    1.285   .     A
C526   O549    1.285   .     A
C527   C529    1.451   .     S
C527   O551    1.298   .     A
C527   O550    1.298   .     A
C530   C531    1.387   .     A
C530   H539    1.075   .     S
C531   C28     1.393   1_556 S
C531   H36     1.080   1_556 S
C532   I559    2.135   .     S
N542   Zn552   2.027   .     S
N543   Zn553   2.027   .     S
O544   Zn552   1.980   .     S
O545   Zn553   1.975   .     S
O546   Zn552   1.973   .     S
O547   Zn553   1.937   .     S
O548   Zn552   1.975   .     S
O549   Zn553   1.980   .     S
O550   Zn552   1.937   .     S
O551   Zn553   1.973   .     S
Cl558  C24     1.763   1_556 S
C561   C577    1.405   .     S
C561   O600    1.286   .     A
C561   O601    1.285   .     A
C562   C563    1.411   .     A
C562   C60     1.409   1_556 S
C562   C84     1.427   1_556 S
C563   C570    1.414   .     A
C563   C567    1.414   .     A
C564   C568    1.372   .     A
C565   C566    1.401   .     A
C565   C60     1.407   1_556 S
C565   C80     1.411   1_556 S
C566   C567    1.389   .     A
C566   I613    2.118   .     S
C567   H597    1.081   .     S
C568   C585    1.390   .     A
C568   H594    1.081   .     S
C569   C584    1.412   .     A
C569   C585    1.412   .     A
C569   I610    2.134   .     S
C570   C586    1.394   .     A
C570   C572    1.472   .     S
C571   Cl616   1.762   .     S
C571   C577    1.401   .     A
C571   C741    1.375   .     S
C572   O602    1.308   .     A
C572   O603    1.295   .     A
C573   C574    1.389   .     A
C573   H589    1.085   .     S
C573   C907    1.375   1_545 S
C574   C582    1.399   .     S
C574   C575    1.390   .     A
C575   H590    1.085   .     S
C575   C912    1.376   1_545 S
C576   Cl611   1.764   .     S
C576   C577    1.401   .     A
C576   C743    1.376   .     S
C578   N599    1.370   .     A
C578   H591    1.082   .     S
C578   C635    1.423   .     S
C579   N598    1.369   .     A
C579   H592    1.082   .     S
C580   N598    1.378   .     A
C580   Cl612   1.752   .     S
C581   N599    1.362   .     A
C581   H593    1.082   .     S
C581   C636    1.419   .     S
C582   O604    1.285   .     A
C582   O605    1.285   .     A
C583   C585    1.451   .     S
C583   O607    1.298   .     A
C583   O606    1.298   .     A
C586   C587    1.387   .     A
C586   H595    1.075   .     S
C587   C84     1.393   1_556 S
C587   H92     1.080   1_556 S
C588   I615    2.135   .     S
N598   Zn608   2.027   .     S
N599   Zn609   2.027   .     S
O600   Zn608   1.980   .     S
O601   Zn609   1.975   .     S
O602   Zn608   1.973   .     S
O603   Zn609   1.937   .     S
O604   Zn608   1.975   .     S
O605   Zn609   1.980   .     S
O606   Zn608   1.937   .     S
O607   Zn609   1.973   .     S
Cl614  C80     1.763   1_556 S
C617   C633    1.405   .     S
C617   O656    1.286   .     A
C617   O657    1.285   .     A
C618   C619    1.411   .     A
C618   C116    1.409   1_556 S
C618   C140    1.427   1_556 S
C619   C626    1.414   .     A
C619   C623    1.414   .     A
C620   C624    1.372   .     A
C621   C622    1.401   .     A
C621   C116    1.407   1_556 S
C621   C136    1.411   1_556 S
C622   C623    1.389   .     A
C622   I669    2.118   .     S
C623   H653    1.081   .     S
C624   C641    1.390   .     A
C624   H650    1.081   .     S
C625   C640    1.412   .     A
C625   C641    1.412   .     A
C625   I666    2.134   .     S
C626   C642    1.394   .     A
C626   C628    1.472   .     S
C627   Cl672   1.762   .     S
C627   C633    1.401   .     A
C627   C797    1.375   .     S
C628   O658    1.308   .     A
C628   O659    1.295   .     A
C629   C630    1.389   .     A
C629   H645    1.085   .     S
C629   C963    1.375   1_545 S
C630   C638    1.399   .     S
C630   C631    1.390   .     A
C631   H646    1.085   .     S
C631   C968    1.376   1_545 S
C632   Cl667   1.764   .     S
C632   C633    1.401   .     A
C632   C799    1.376   .     S
C634   N655    1.370   .     A
C634   H647    1.082   .     S
C634   C523    1.423   1_655 S
C635   N654    1.369   .     A
C635   H648    1.082   .     S
C636   N654    1.378   .     A
C636   Cl668   1.752   .     S
C637   N655    1.362   .     A
C637   H649    1.082   .     S
C637   C524    1.419   1_655 S
C638   O660    1.285   .     A
C638   O661    1.285   .     A
C639   C641    1.451   .     S
C639   O663    1.298   .     A
C639   O662    1.298   .     A
C642   C643    1.387   .     A
C642   H651    1.075   .     S
C643   C140    1.393   1_556 S
C643   H148    1.080   1_556 S
C644   I671    2.135   .     S
N654   Zn664   2.027   .     S
N655   Zn665   2.027   .     S
O656   Zn664   1.980   .     S
O657   Zn665   1.975   .     S
O658   Zn664   1.973   .     S
O659   Zn665   1.937   .     S
O660   Zn664   1.975   .     S
O661   Zn665   1.980   .     S
O662   Zn664   1.937   .     S
O663   Zn665   1.973   .     S
Cl670  C136    1.763   1_556 S
C673   C689    1.405   .     S
C673   O712    1.286   .     A
C673   O713    1.285   .     A
C674   C675    1.411   .     A
C674   C172    1.409   1_556 S
C674   C196    1.427   1_556 S
C675   C682    1.414   .     A
C675   C679    1.414   .     A
C676   C680    1.372   .     A
C677   C678    1.401   .     A
C677   C172    1.407   1_556 S
C677   C192    1.411   1_556 S
C678   C679    1.389   .     A
C678   I725    2.118   .     S
C679   H709    1.081   .     S
C680   C697    1.390   .     A
C680   H706    1.081   .     S
C681   C696    1.412   .     A
C681   C697    1.412   .     A
C681   I722    2.134   .     S
C682   C698    1.394   .     A
C682   C684    1.472   .     S
C683   Cl728   1.762   .     S
C683   C689    1.401   .     A
C683   C853    1.375   .     S
C684   O714    1.308   .     A
C684   O715    1.295   .     A
C685   C686    1.389   .     A
C685   H701    1.085   .     S
C686   C694    1.399   .     S
C686   C687    1.390   .     A
C687   H702    1.085   .     S
C688   Cl723   1.764   .     S
C688   C689    1.401   .     A
C688   C855    1.376   .     S
C690   N711    1.370   .     A
C690   H703    1.082   .     S
C690   C747    1.423   .     S
C691   N710    1.369   .     A
C691   H704    1.082   .     S
C691   C802    1.423   1_455 S
C692   N710    1.378   .     A
C692   Cl724   1.752   .     S
C692   C805    1.419   1_455 S
C693   N711    1.362   .     A
C693   H705    1.082   .     S
C693   C748    1.419   .     S
C694   O716    1.285   .     A
C694   O717    1.285   .     A
C695   C697    1.451   .     S
C695   O719    1.298   .     A
C695   O718    1.298   .     A
C698   C699    1.387   .     A
C698   H707    1.075   .     S
C699   C196    1.393   1_556 S
C699   H204    1.080   1_556 S
C700   I727    2.135   .     S
N710   Zn720   2.027   .     S
N711   Zn721   2.027   .     S
O712   Zn720   1.980   .     S
O713   Zn721   1.975   .     S
O714   Zn720   1.973   .     S
O715   Zn721   1.937   .     S
O716   Zn720   1.975   .     S
O717   Zn721   1.980   .     S
O718   Zn720   1.937   .     S
O719   Zn721   1.973   .     S
Cl726  C192    1.763   1_556 S
C729   C745    1.405   .     S
C729   O768    1.286   .     A
C729   O769    1.285   .     A
C730   C731    1.411   .     A
C730   C228    1.409   1_556 S
C730   C252    1.427   1_556 S
C731   C738    1.414   .     A
C731   C735    1.414   .     A
C732   C736    1.372   .     A
C733   C734    1.401   .     A
C733   C228    1.407   1_556 S
C733   C248    1.411   1_556 S
C734   C735    1.389   .     A
C734   I781    2.118   .     S
C735   H765    1.081   .     S
C736   C753    1.390   .     A
C736   H762    1.081   .     S
C737   C752    1.412   .     A
C737   C753    1.412   .     A
C737   I778    2.134   .     S
C738   C754    1.394   .     A
C738   C740    1.472   .     S
C739   Cl784   1.762   .     S
C739   C745    1.401   .     A
C739   C909    1.375   .     S
C740   O770    1.308   .     A
C740   O771    1.295   .     A
C741   C742    1.389   .     A
C741   H757    1.085   .     S
C742   C750    1.399   .     S
C742   C743    1.390   .     A
C743   H758    1.085   .     S
C744   Cl779   1.764   .     S
C744   C745    1.401   .     A
C744   C911    1.376   .     S
C746   N767    1.370   .     A
C746   H759    1.082   .     S
C746   C803    1.423   .     S
C747   N766    1.369   .     A
C747   H760    1.082   .     S
C748   N766    1.378   .     A
C748   Cl780   1.752   .     S
C749   N767    1.362   .     A
C749   H761    1.082   .     S
C749   C804    1.419   .     S
C750   O772    1.285   .     A
C750   O773    1.285   .     A
C751   C753    1.451   .     S
C751   O775    1.298   .     A
C751   O774    1.298   .     A
C754   C755    1.387   .     A
C754   H763    1.075   .     S
C755   C252    1.393   1_556 S
C755   H260    1.080   1_556 S
C756   I783    2.135   .     S
N766   Zn776   2.027   .     S
N767   Zn777   2.027   .     S
O768   Zn776   1.980   .     S
O769   Zn777   1.975   .     S
O770   Zn776   1.973   .     S
O771   Zn777   1.937   .     S
O772   Zn776   1.975   .     S
O773   Zn777   1.980   .     S
O774   Zn776   1.937   .     S
O775   Zn777   1.973   .     S
Cl782  C248    1.763   1_556 S
C785   C801    1.405   .     S
C785   O824    1.286   .     A
C785   O825    1.285   .     A
C786   C787    1.411   .     A
C786   C284    1.409   1_556 S
C786   C308    1.427   1_556 S
C787   C794    1.414   .     A
C787   C791    1.414   .     A
C788   C792    1.372   .     A
C789   C790    1.401   .     A
C789   C284    1.407   1_556 S
C789   C304    1.411   1_556 S
C790   C791    1.389   .     A
C790   I837    2.118   .     S
C791   H821    1.081   .     S
C792   C809    1.390   .     A
C792   H818    1.081   .     S
C793   C808    1.412   .     A
C793   C809    1.412   .     A
C793   I834    2.134   .     S
C794   C810    1.394   .     A
C794   C796    1.472   .     S
C795   Cl840   1.762   .     S
C795   C801    1.401   .     A
C795   C965    1.375   .     S
C796   O826    1.308   .     A
C796   O827    1.295   .     A
C797   C798    1.389   .     A
C797   H813    1.085   .     S
C798   C806    1.399   .     S
C798   C799    1.390   .     A
C799   H814    1.085   .     S
C800   Cl835   1.764   .     S
C800   C801    1.401   .     A
C800   C967    1.376   .     S
C802   N823    1.370   .     A
C802   H815    1.082   .     S
C802   C691    1.423   1_655 S
C803   N822    1.369   .     A
C803   H816    1.082   .     S
C804   N822    1.378   .     A
C804   Cl836   1.752   .     S
C805   N823    1.362   .     A
C805   H817    1.082   .     S
C805   C692    1.419   1_655 S
C806   O828    1.285   .     A
C806   O829    1.285   .     A
C807   C809    1.451   .     S
C807   O831    1.298   .     A
C807   O830    1.298   .     A
C810   C811    1.387   .     A
C810   H819    1.075   .     S
C811   C308    1.393   1_556 S
C811   H316    1.080   1_556 S
C812   I839    2.135   .     S
N822   Zn832   2.027   .     S
N823   Zn833   2.027   .     S
O824   Zn832   1.980   .     S
O825   Zn833   1.975   .     S
O826   Zn832   1.973   .     S
O827   Zn833   1.937   .     S
O828   Zn832   1.975   .     S
O829   Zn833   1.980   .     S
O830   Zn832   1.937   .     S
O831   Zn833   1.973   .     S
Cl838  C304    1.763   1_556 S
C841   C857    1.405   .     S
C841   O880    1.286   .     A
C841   O881    1.285   .     A
C842   C843    1.411   .     A
C842   C340    1.409   1_556 S
C842   C364    1.427   1_556 S
C843   C850    1.414   .     A
C843   C847    1.414   .     A
C844   C848    1.372   .     A
C845   C846    1.401   .     A
C845   C340    1.407   1_556 S
C845   C360    1.411   1_556 S
C846   C847    1.389   .     A
C846   I893    2.118   .     S
C847   H877    1.081   .     S
C848   C865    1.390   .     A
C848   H874    1.081   .     S
C849   C864    1.412   .     A
C849   C865    1.412   .     A
C849   I890    2.134   .     S
C850   C866    1.394   .     A
C850   C852    1.472   .     S
C851   Cl896   1.762   .     S
C851   C857    1.401   .     A
C851   C517    1.375   1_565 S
C852   O882    1.308   .     A
C852   O883    1.295   .     A
C853   C854    1.389   .     A
C853   H869    1.085   .     S
C854   C862    1.399   .     S
C854   C855    1.390   .     A
C855   H870    1.085   .     S
C856   Cl891   1.764   .     S
C856   C857    1.401   .     A
C856   C519    1.376   1_565 S
C858   N879    1.370   .     A
C858   H871    1.082   .     S
C858   C915    1.423   .     S
C859   N878    1.369   .     A
C859   H872    1.082   .     S
C859   C970    1.423   1_455 S
C860   N878    1.378   .     A
C860   Cl892   1.752   .     S
C860   C973    1.419   1_455 S
C861   N879    1.362   .     A
C861   H873    1.082   .     S
C861   C916    1.419   .     S
C862   O884    1.285   .     A
C862   O885    1.285   .     A
C863   C865    1.451   .     S
C863   O887    1.298   .     A
C863   O886    1.298   .     A
C866   C867    1.387   .     A
C866   H875    1.075   .     S
C867   C364    1.393   1_556 S
C867   H372    1.080   1_556 S
C868   I895    2.135   .     S
N878   Zn888   2.027   .     S
N879   Zn889   2.027   .     S
O880   Zn888   1.980   .     S
O881   Zn889   1.975   .     S
O882   Zn888   1.973   .     S
O883   Zn889   1.937   .     S
O884   Zn888   1.975   .     S
O885   Zn889   1.980   .     S
O886   Zn888   1.937   .     S
O887   Zn889   1.973   .     S
Cl894  C360    1.763   1_556 S
C897   C913    1.405   .     S
C897   O936    1.286   .     A
C897   O937    1.285   .     A
C898   C899    1.411   .     A
C898   C396    1.409   1_556 S
C898   C420    1.427   1_556 S
C899   C906    1.414   .     A
C899   C903    1.414   .     A
C900   C904    1.372   .     A
C901   C902    1.401   .     A
C901   C396    1.407   1_556 S
C901   C416    1.411   1_556 S
C902   C903    1.389   .     A
C902   I949    2.118   .     S
C903   H933    1.081   .     S
C904   C921    1.390   .     A
C904   H930    1.081   .     S
C905   C920    1.412   .     A
C905   C921    1.412   .     A
C905   I946    2.134   .     S
C906   C922    1.394   .     A
C906   C908    1.472   .     S
C907   Cl952   1.762   .     S
C907   C913    1.401   .     A
C907   C573    1.375   1_565 S
C908   O938    1.308   .     A
C908   O939    1.295   .     A
C909   C910    1.389   .     A
C909   H925    1.085   .     S
C910   C918    1.399   .     S
C910   C911    1.390   .     A
C911   H926    1.085   .     S
C912   Cl947   1.764   .     S
C912   C913    1.401   .     A
C912   C575    1.376   1_565 S
C914   N935    1.370   .     A
C914   H927    1.082   .     S
C914   C971    1.423   .     S
C915   N934    1.369   .     A
C915   H928    1.082   .     S
C916   N934    1.378   .     A
C916   Cl948   1.752   .     S
C917   N935    1.362   .     A
C917   H929    1.082   .     S
C917   C972    1.419   .     S
C918   O940    1.285   .     A
C918   O941    1.285   .     A
C919   C921    1.451   .     S
C919   O943    1.298   .     A
C919   O942    1.298   .     A
C922   C923    1.387   .     A
C922   H931    1.075   .     S
C923   C420    1.393   1_556 S
C923   H428    1.080   1_556 S
C924   I951    2.135   .     S
N934   Zn944   2.027   .     S
N935   Zn945   2.027   .     S
O936   Zn944   1.980   .     S
O937   Zn945   1.975   .     S
O938   Zn944   1.973   .     S
O939   Zn945   1.937   .     S
O940   Zn944   1.975   .     S
O941   Zn945   1.980   .     S
O942   Zn944   1.937   .     S
O943   Zn945   1.973   .     S
Cl950  C416    1.763   1_556 S
C953   C969    1.405   .     S
C953   O992    1.286   .     A
C953   O993    1.285   .     A
C954   C955    1.411   .     A
C954   C452    1.409   1_556 S
C954   C476    1.427   1_556 S
C955   C962    1.414   .     A
C955   C959    1.414   .     A
C956   C960    1.372   .     A
C957   C958    1.401   .     A
C957   C452    1.407   1_556 S
C957   C472    1.411   1_556 S
C958   C959    1.389   .     A
C958   I1005   2.118   .     S
C959   H989    1.081   .     S
C960   C977    1.390   .     A
C960   H986    1.081   .     S
C961   C976    1.412   .     A
C961   C977    1.412   .     A
C961   I1002   2.134   .     S
C962   C978    1.394   .     A
C962   C964    1.472   .     S
C963   Cl1008  1.762   .     S
C963   C969    1.401   .     A
C963   C629    1.375   1_565 S
C964   O994    1.308   .     A
C964   O995    1.295   .     A
C965   C966    1.389   .     A
C965   H981    1.085   .     S
C966   C974    1.399   .     S
C966   C967    1.390   .     A
C967   H982    1.085   .     S
C968   Cl1003  1.764   .     S
C968   C969    1.401   .     A
C968   C631    1.376   1_565 S
C970   N991    1.370   .     A
C970   H983    1.082   .     S
C970   C859    1.423   1_655 S
C971   N990    1.369   .     A
C971   H984    1.082   .     S
C972   N990    1.378   .     A
C972   Cl1004  1.752   .     S
C973   N991    1.362   .     A
C973   H985    1.082   .     S
C973   C860    1.419   1_655 S
C974   O996    1.285   .     A
C974   O997    1.285   .     A
C975   C977    1.451   .     S
C975   O999    1.298   .     A
C975   O998    1.298   .     A
C978   C979    1.387   .     A
C978   H987    1.075   .     S
C979   C476    1.393   1_556 S
C979   H484    1.080   1_556 S
C980   I1007   2.135   .     S
N990   Zn1000  2.027   .     S
N991   Zn1001  2.027   .     S
O992   Zn1000  1.980   .     S
O993   Zn1001  1.975   .     S
O994   Zn1000  1.973   .     S
O995   Zn1001  1.937   .     S
O996   Zn1000  1.975   .     S
O997   Zn1001  1.980   .     S
O998   Zn1000  1.937   .     S
O999   Zn1001  1.973   .     S
Cl1006 C472    1.763   1_556 S
