data_str_m1_o10_o16_pcu_sym.148
_audit_creation_date              2020-01-03
_audit_creation_method            'Materials Studio'
_symmetry_space_group_name_H-M    'P1'
_symmetry_Int_Tables_number       1
_symmetry_cell_setting            triclinic
loop_
_symmetry_equiv_pos_as_xyz
  x,y,z
_cell_length_a                    32.6729
_cell_length_b                    32.5640
_cell_length_c                    30.9374
_cell_angle_alpha                 96.4378
_cell_angle_beta                  75.2912
_cell_angle_gamma                 99.0021
loop_
_atom_site_label
_atom_site_type_symbol
_atom_site_fract_x
_atom_site_fract_y
_atom_site_fract_z
_atom_site_U_iso_or_equiv
_atom_site_adp_type
_atom_site_occupancy
Zn1    Zn    0.19338   0.13994   0.28734   0.00000  Uiso   1.00
Zn2    Zn    0.13379   0.12458   0.21875   0.00000  Uiso   1.00
Zn3    Zn    0.21056   0.19775   0.20657   0.00000  Uiso   1.00
Zn4    Zn    0.12893   0.20439   0.28733   0.00000  Uiso   1.00
O5     O     0.16667   0.16667   0.25000   0.00000  Uiso   1.00
O6     O     0.07071   0.18878   0.28213   0.00000  Uiso   1.00
O7     O     0.25491   0.15226   0.27013   0.00000  Uiso   1.00
O8     O     0.13760   0.06944   0.23413   0.00000  Uiso   1.00
O9     O     0.20345   0.25620   0.21360   0.00000  Uiso   1.00
O10    O     0.15451   0.12637   0.15458   0.00000  Uiso   1.00
O11    O     0.12940   0.20391   0.34968   0.00000  Uiso   1.00
O12    O     0.20824   0.17759   0.14606   0.00000  Uiso   1.00
O13    O     0.17451   0.15880   0.34968   0.00000  Uiso   1.00
O14    O     0.17930   0.08019   0.28213   0.00000  Uiso   1.00
O15    O     0.14632   0.26085   0.27013   0.00000  Uiso   1.00
O16    O     0.07412   0.13291   0.23413   0.00000  Uiso   1.00
O17    O     0.26693   0.19272   0.21360   0.00000  Uiso   1.00
C18    C     0.05309   0.15965   0.25916   0.00000  Uiso   1.00
C19    C     0.28068   0.17356   0.24015   0.00000  Uiso   1.00
C20    C     0.15578   0.05587   0.26053   0.00000  Uiso   1.00
C21    C     0.17658   0.27783   0.23960   0.00000  Uiso   1.00
C22    C     0.18555   0.14742   0.12938   0.00000  Uiso   1.00
C23    C     0.14835   0.18426   0.37092   0.00000  Uiso   1.00
C24    C     0.20018   0.08782   0.01646   0.00000  Uiso   1.00
H25    H     0.16652   0.06458   0.44736   0.00000  Uiso   1.00
C26    C     0.19187   0.13824   0.08120   0.00000  Uiso   1.00
C27    C     0.13845   0.23553   0.43612   0.00000  Uiso   1.00
C28    C     0.14363   0.25010   0.47901   0.00000  Uiso   1.00
C29    C     0.15691   0.22376   0.00371   0.00000  Uiso   1.00
C30    C     0.16049   0.18138   0.48891   0.00000  Uiso   1.00
C31    C     0.15073   0.16581   0.44739   0.00000  Uiso   1.00
C32    C     0.17435   0.15430   0.01367   0.00000  Uiso   1.00
C33    C     0.18165   0.11355   0.49483   0.00000  Uiso   1.00
C34    C     0.16651   0.09747   0.45709   0.00000  Uiso   1.00
C35    C     0.14822   0.12243   0.43471   0.00000  Uiso   1.00
C36    C     0.17972   0.16591   0.05726   0.00000  Uiso   1.00
C37    C     0.20280   0.09928   0.06104   0.00000  Uiso   1.00
C38    C     0.14345   0.19428   0.41950   0.00000  Uiso   1.00
H39    H     0.17088   0.19475   0.07525   0.00000  Uiso   1.00
H40    H     0.13348   0.25716   0.41442   0.00000  Uiso   1.00
H41    H     0.16484   0.23795   0.03420   0.00000  Uiso   1.00
C42    C     0.32609   0.17719   0.23830   0.00000  Uiso   1.00
H43    H     0.01434   0.20016   0.21749   0.00000  Uiso   1.00
C44    C     0.00796   0.15437   0.26298   0.00000  Uiso   1.00
C45    C     0.18130   0.32259   0.23472   0.00000  Uiso   1.00
C46    C     0.15322   0.01172   0.26297   0.00000  Uiso   1.00
H47    H     0.12770   0.33087   0.28902   0.00000  Uiso   1.00
O48    O     0.21857   0.07366   0.08397   0.00000  Uiso   1.00
C49    C     0.18473   0.04553   0.10721   0.00000  Uiso   1.00
H50    H     0.15402   0.04335   0.09692   0.00000  Uiso   1.00
H51    H     0.17908   0.05426   0.14371   0.00000  Uiso   1.00
H52    H     0.19451   0.01388   0.10143   0.00000  Uiso   1.00
N53    N     0.31632   0.11942   0.28612   0.00000  Uiso   1.00
O54    O     0.32020   0.11406   0.32586   0.00000  Uiso   1.00
O55    O     0.29889   0.08828   0.26372   0.00000  Uiso   1.00
N56    N     0.21545   0.00783   0.19986   0.00000  Uiso   1.00
O57    O     0.22874   0.31973   0.16212   0.00000  Uiso   1.00
O58    O     0.23590   0.04462   0.20687   0.00000  Uiso   1.00
N59    N     0.21744   0.05122   0.49272   0.00000  Uiso   1.00
O60    O     0.23971   0.05275   0.45143   0.00000  Uiso   1.00
O61    O     0.21443   0.01756   0.01292   0.00000  Uiso   1.00
O62    O     0.14206   0.29144   0.49560   0.00000  Uiso   1.00
C63    C     0.10617   0.30658   0.48881   0.00000  Uiso   1.00
H64    H     0.07671   0.28357   0.49645   0.00000  Uiso   1.00
H65    H     0.11252   0.31620   0.45419   0.00000  Uiso   1.00
H66    H     0.10027   0.00149   0.01188   0.00000  Uiso   1.00
O67    O     0.12390   0.10631   0.40380   0.00000  Uiso   1.00
C68    C     0.12881   0.06495   0.38652   0.00000  Uiso   1.00
H69    H     0.11245   0.05743   0.35875   0.00000  Uiso   1.00
H70    H     0.11293   0.04275   0.41236   0.00000  Uiso   1.00
H71    H     0.16301   0.06112   0.37242   0.00000  Uiso   1.00
Zn72   Zn    0.52672   0.13994   0.28734   0.00000  Uiso   1.00
Zn73   Zn    0.46713   0.12458   0.21875   0.00000  Uiso   1.00
Zn74   Zn    0.54389   0.19775   0.20657   0.00000  Uiso   1.00
Zn75   Zn    0.46226   0.20439   0.28733   0.00000  Uiso   1.00
O76    O     0.50000   0.16667   0.25000   0.00000  Uiso   1.00
O77    O     0.40405   0.18878   0.28213   0.00000  Uiso   1.00
O78    O     0.58824   0.15226   0.27013   0.00000  Uiso   1.00
O79    O     0.47093   0.06944   0.23413   0.00000  Uiso   1.00
O80    O     0.53678   0.25620   0.21360   0.00000  Uiso   1.00
O81    O     0.48784   0.12637   0.15458   0.00000  Uiso   1.00
O82    O     0.46274   0.20391   0.34968   0.00000  Uiso   1.00
O83    O     0.54157   0.17759   0.14606   0.00000  Uiso   1.00
O84    O     0.50785   0.15880   0.34968   0.00000  Uiso   1.00
O85    O     0.51264   0.08019   0.28213   0.00000  Uiso   1.00
O86    O     0.47965   0.26085   0.27013   0.00000  Uiso   1.00
O87    O     0.40745   0.13291   0.23413   0.00000  Uiso   1.00
O88    O     0.60026   0.19272   0.21360   0.00000  Uiso   1.00
C89    C     0.38642   0.15965   0.25916   0.00000  Uiso   1.00
C90    C     0.61401   0.17356   0.24015   0.00000  Uiso   1.00
C91    C     0.48912   0.05587   0.26053   0.00000  Uiso   1.00
C92    C     0.50991   0.27783   0.23960   0.00000  Uiso   1.00
C93    C     0.51889   0.14742   0.12938   0.00000  Uiso   1.00
C94    C     0.48168   0.18426   0.37092   0.00000  Uiso   1.00
C95    C     0.53351   0.08782   0.01646   0.00000  Uiso   1.00
H96    H     0.49985   0.06458   0.44736   0.00000  Uiso   1.00
C97    C     0.52521   0.13824   0.08120   0.00000  Uiso   1.00
C98    C     0.47178   0.23553   0.43612   0.00000  Uiso   1.00
C99    C     0.47696   0.25010   0.47901   0.00000  Uiso   1.00
C100   C     0.49024   0.22376   0.00371   0.00000  Uiso   1.00
C101   C     0.49383   0.18138   0.48891   0.00000  Uiso   1.00
C102   C     0.48407   0.16581   0.44739   0.00000  Uiso   1.00
C103   C     0.50768   0.15430   0.01367   0.00000  Uiso   1.00
C104   C     0.51499   0.11355   0.49483   0.00000  Uiso   1.00
C105   C     0.49984   0.09747   0.45709   0.00000  Uiso   1.00
C106   C     0.48155   0.12243   0.43471   0.00000  Uiso   1.00
C107   C     0.51306   0.16591   0.05726   0.00000  Uiso   1.00
C108   C     0.53613   0.09928   0.06104   0.00000  Uiso   1.00
C109   C     0.47678   0.19428   0.41950   0.00000  Uiso   1.00
H110   H     0.50421   0.19475   0.07525   0.00000  Uiso   1.00
H111   H     0.46681   0.25716   0.41442   0.00000  Uiso   1.00
H112   H     0.49817   0.23795   0.03420   0.00000  Uiso   1.00
C113   C     0.65942   0.17719   0.23830   0.00000  Uiso   1.00
H114   H     0.34767   0.20016   0.21749   0.00000  Uiso   1.00
C115   C     0.34129   0.15437   0.26298   0.00000  Uiso   1.00
C116   C     0.51463   0.32259   0.23472   0.00000  Uiso   1.00
C117   C     0.48656   0.01172   0.26297   0.00000  Uiso   1.00
H118   H     0.46104   0.33087   0.28902   0.00000  Uiso   1.00
O119   O     0.55190   0.07366   0.08397   0.00000  Uiso   1.00
C120   C     0.51806   0.04553   0.10721   0.00000  Uiso   1.00
H121   H     0.48735   0.04335   0.09692   0.00000  Uiso   1.00
H122   H     0.51242   0.05426   0.14371   0.00000  Uiso   1.00
H123   H     0.52784   0.01388   0.10143   0.00000  Uiso   1.00
N124   N     0.64965   0.11942   0.28612   0.00000  Uiso   1.00
O125   O     0.65354   0.11406   0.32586   0.00000  Uiso   1.00
O126   O     0.63222   0.08828   0.26372   0.00000  Uiso   1.00
N127   N     0.54879   0.00783   0.19986   0.00000  Uiso   1.00
O128   O     0.56208   0.31973   0.16212   0.00000  Uiso   1.00
O129   O     0.56923   0.04462   0.20687   0.00000  Uiso   1.00
N130   N     0.55078   0.05122   0.49272   0.00000  Uiso   1.00
O131   O     0.57304   0.05275   0.45143   0.00000  Uiso   1.00
O132   O     0.54776   0.01756   0.01292   0.00000  Uiso   1.00
O133   O     0.47539   0.29144   0.49560   0.00000  Uiso   1.00
C134   C     0.43950   0.30658   0.48881   0.00000  Uiso   1.00
H135   H     0.41004   0.28357   0.49645   0.00000  Uiso   1.00
H136   H     0.44585   0.31620   0.45419   0.00000  Uiso   1.00
H137   H     0.43360   0.00149   0.01188   0.00000  Uiso   1.00
O138   O     0.45724   0.10631   0.40380   0.00000  Uiso   1.00
C139   C     0.46215   0.06495   0.38652   0.00000  Uiso   1.00
H140   H     0.44579   0.05743   0.35875   0.00000  Uiso   1.00
H141   H     0.44626   0.04275   0.41236   0.00000  Uiso   1.00
H142   H     0.49635   0.06112   0.37242   0.00000  Uiso   1.00
Zn143  Zn    0.86005   0.13994   0.28734   0.00000  Uiso   1.00
Zn144  Zn    0.80046   0.12458   0.21875   0.00000  Uiso   1.00
Zn145  Zn    0.87723   0.19775   0.20657   0.00000  Uiso   1.00
Zn146  Zn    0.79560   0.20439   0.28733   0.00000  Uiso   1.00
O147   O     0.83333   0.16667   0.25000   0.00000  Uiso   1.00
O148   O     0.73738   0.18878   0.28213   0.00000  Uiso   1.00
O149   O     0.92158   0.15226   0.27013   0.00000  Uiso   1.00
O150   O     0.80426   0.06944   0.23413   0.00000  Uiso   1.00
O151   O     0.87012   0.25620   0.21360   0.00000  Uiso   1.00
O152   O     0.82118   0.12637   0.15458   0.00000  Uiso   1.00
O153   O     0.79607   0.20391   0.34968   0.00000  Uiso   1.00
O154   O     0.87491   0.17759   0.14606   0.00000  Uiso   1.00
O155   O     0.84118   0.15880   0.34968   0.00000  Uiso   1.00
O156   O     0.84597   0.08019   0.28213   0.00000  Uiso   1.00
O157   O     0.81298   0.26085   0.27013   0.00000  Uiso   1.00
O158   O     0.74078   0.13291   0.23413   0.00000  Uiso   1.00
O159   O     0.93360   0.19272   0.21360   0.00000  Uiso   1.00
C160   C     0.71975   0.15965   0.25916   0.00000  Uiso   1.00
C161   C     0.94735   0.17356   0.24015   0.00000  Uiso   1.00
C162   C     0.82245   0.05587   0.26053   0.00000  Uiso   1.00
C163   C     0.84324   0.27783   0.23960   0.00000  Uiso   1.00
C164   C     0.85222   0.14742   0.12938   0.00000  Uiso   1.00
C165   C     0.81501   0.18426   0.37092   0.00000  Uiso   1.00
C166   C     0.86685   0.08782   0.01646   0.00000  Uiso   1.00
H167   H     0.83319   0.06458   0.44736   0.00000  Uiso   1.00
C168   C     0.85854   0.13824   0.08120   0.00000  Uiso   1.00
C169   C     0.80511   0.23553   0.43612   0.00000  Uiso   1.00
C170   C     0.81029   0.25010   0.47901   0.00000  Uiso   1.00
C171   C     0.82358   0.22376   0.00371   0.00000  Uiso   1.00
C172   C     0.82716   0.18138   0.48891   0.00000  Uiso   1.00
C173   C     0.81740   0.16581   0.44739   0.00000  Uiso   1.00
C174   C     0.84101   0.15430   0.01367   0.00000  Uiso   1.00
C175   C     0.84832   0.11355   0.49483   0.00000  Uiso   1.00
C176   C     0.83318   0.09747   0.45709   0.00000  Uiso   1.00
C177   C     0.81489   0.12243   0.43471   0.00000  Uiso   1.00
C178   C     0.84639   0.16591   0.05726   0.00000  Uiso   1.00
C179   C     0.86946   0.09928   0.06104   0.00000  Uiso   1.00
C180   C     0.81012   0.19428   0.41950   0.00000  Uiso   1.00
H181   H     0.83754   0.19475   0.07525   0.00000  Uiso   1.00
H182   H     0.80014   0.25716   0.41442   0.00000  Uiso   1.00
H183   H     0.83150   0.23795   0.03420   0.00000  Uiso   1.00
C184   C     0.99275   0.17719   0.23830   0.00000  Uiso   1.00
H185   H     0.68101   0.20016   0.21749   0.00000  Uiso   1.00
C186   C     0.67463   0.15437   0.26298   0.00000  Uiso   1.00
C187   C     0.84796   0.32259   0.23472   0.00000  Uiso   1.00
C188   C     0.81989   0.01172   0.26297   0.00000  Uiso   1.00
H189   H     0.79437   0.33087   0.28902   0.00000  Uiso   1.00
O190   O     0.88524   0.07366   0.08397   0.00000  Uiso   1.00
C191   C     0.85139   0.04553   0.10721   0.00000  Uiso   1.00
H192   H     0.82068   0.04335   0.09692   0.00000  Uiso   1.00
H193   H     0.84575   0.05426   0.14371   0.00000  Uiso   1.00
H194   H     0.86118   0.01388   0.10143   0.00000  Uiso   1.00
N195   N     0.98299   0.11942   0.28612   0.00000  Uiso   1.00
O196   O     0.98687   0.11406   0.32586   0.00000  Uiso   1.00
O197   O     0.96556   0.08828   0.26372   0.00000  Uiso   1.00
N198   N     0.88212   0.00783   0.19986   0.00000  Uiso   1.00
O199   O     0.89541   0.31973   0.16212   0.00000  Uiso   1.00
O200   O     0.90256   0.04462   0.20687   0.00000  Uiso   1.00
N201   N     0.88411   0.05122   0.49272   0.00000  Uiso   1.00
O202   O     0.90638   0.05275   0.45143   0.00000  Uiso   1.00
O203   O     0.88110   0.01756   0.01292   0.00000  Uiso   1.00
O204   O     0.80873   0.29144   0.49560   0.00000  Uiso   1.00
C205   C     0.77283   0.30658   0.48881   0.00000  Uiso   1.00
H206   H     0.74338   0.28357   0.49645   0.00000  Uiso   1.00
H207   H     0.77919   0.31620   0.45419   0.00000  Uiso   1.00
H208   H     0.76694   0.00149   0.01188   0.00000  Uiso   1.00
O209   O     0.79057   0.10631   0.40380   0.00000  Uiso   1.00
C210   C     0.79548   0.06495   0.38652   0.00000  Uiso   1.00
H211   H     0.77912   0.05743   0.35875   0.00000  Uiso   1.00
H212   H     0.77959   0.04275   0.41236   0.00000  Uiso   1.00
H213   H     0.82968   0.06112   0.37242   0.00000  Uiso   1.00
Zn214  Zn    0.19338   0.47327   0.28734   0.00000  Uiso   1.00
Zn215  Zn    0.13379   0.45791   0.21875   0.00000  Uiso   1.00
Zn216  Zn    0.21056   0.53109   0.20657   0.00000  Uiso   1.00
Zn217  Zn    0.12893   0.53773   0.28733   0.00000  Uiso   1.00
O218   O     0.16667   0.50000   0.25000   0.00000  Uiso   1.00
O219   O     0.07071   0.52211   0.28213   0.00000  Uiso   1.00
O220   O     0.25491   0.48559   0.27013   0.00000  Uiso   1.00
O221   O     0.13760   0.40277   0.23413   0.00000  Uiso   1.00
O222   O     0.20345   0.58953   0.21360   0.00000  Uiso   1.00
O223   O     0.15451   0.45970   0.15458   0.00000  Uiso   1.00
O224   O     0.12940   0.53724   0.34968   0.00000  Uiso   1.00
O225   O     0.20824   0.51092   0.14606   0.00000  Uiso   1.00
O226   O     0.17451   0.49213   0.34968   0.00000  Uiso   1.00
O227   O     0.17930   0.41352   0.28213   0.00000  Uiso   1.00
O228   O     0.14632   0.59418   0.27013   0.00000  Uiso   1.00
O229   O     0.07412   0.46625   0.23413   0.00000  Uiso   1.00
O230   O     0.26693   0.52605   0.21360   0.00000  Uiso   1.00
C231   C     0.05309   0.49298   0.25916   0.00000  Uiso   1.00
C232   C     0.28068   0.50689   0.24015   0.00000  Uiso   1.00
C233   C     0.15578   0.38920   0.26053   0.00000  Uiso   1.00
C234   C     0.17658   0.61116   0.23960   0.00000  Uiso   1.00
C235   C     0.18555   0.48076   0.12938   0.00000  Uiso   1.00
C236   C     0.14835   0.51759   0.37092   0.00000  Uiso   1.00
C237   C     0.20018   0.42115   0.01646   0.00000  Uiso   1.00
H238   H     0.16652   0.39792   0.44736   0.00000  Uiso   1.00
C239   C     0.19187   0.47158   0.08120   0.00000  Uiso   1.00
C240   C     0.13845   0.56886   0.43612   0.00000  Uiso   1.00
C241   C     0.14363   0.58343   0.47901   0.00000  Uiso   1.00
C242   C     0.15691   0.55710   0.00371   0.00000  Uiso   1.00
C243   C     0.16049   0.51472   0.48891   0.00000  Uiso   1.00
C244   C     0.15073   0.49915   0.44739   0.00000  Uiso   1.00
C245   C     0.17435   0.48764   0.01367   0.00000  Uiso   1.00
C246   C     0.18165   0.44688   0.49483   0.00000  Uiso   1.00
C247   C     0.16651   0.43080   0.45709   0.00000  Uiso   1.00
C248   C     0.14822   0.45576   0.43471   0.00000  Uiso   1.00
C249   C     0.17972   0.49924   0.05726   0.00000  Uiso   1.00
C250   C     0.20280   0.43262   0.06104   0.00000  Uiso   1.00
C251   C     0.14345   0.52761   0.41950   0.00000  Uiso   1.00
H252   H     0.17088   0.52808   0.07525   0.00000  Uiso   1.00
H253   H     0.13348   0.59049   0.41442   0.00000  Uiso   1.00
H254   H     0.16484   0.57129   0.03420   0.00000  Uiso   1.00
C255   C     0.32609   0.51052   0.23830   0.00000  Uiso   1.00
H256   H     0.01434   0.53349   0.21749   0.00000  Uiso   1.00
C257   C     0.00796   0.48770   0.26298   0.00000  Uiso   1.00
C258   C     0.18130   0.65592   0.23472   0.00000  Uiso   1.00
C259   C     0.15322   0.34506   0.26297   0.00000  Uiso   1.00
H260   H     0.12770   0.66421   0.28902   0.00000  Uiso   1.00
O261   O     0.21857   0.40699   0.08397   0.00000  Uiso   1.00
C262   C     0.18473   0.37887   0.10721   0.00000  Uiso   1.00
H263   H     0.15402   0.37668   0.09692   0.00000  Uiso   1.00
H264   H     0.17908   0.38760   0.14371   0.00000  Uiso   1.00
H265   H     0.19451   0.34722   0.10143   0.00000  Uiso   1.00
N266   N     0.31632   0.45275   0.28612   0.00000  Uiso   1.00
O267   O     0.32020   0.44739   0.32586   0.00000  Uiso   1.00
O268   O     0.29889   0.42161   0.26372   0.00000  Uiso   1.00
N269   N     0.21545   0.34116   0.19986   0.00000  Uiso   1.00
O270   O     0.22874   0.65307   0.16212   0.00000  Uiso   1.00
O271   O     0.23590   0.37795   0.20687   0.00000  Uiso   1.00
N272   N     0.21744   0.38455   0.49272   0.00000  Uiso   1.00
O273   O     0.23971   0.38608   0.45143   0.00000  Uiso   1.00
O274   O     0.21443   0.35090   0.01292   0.00000  Uiso   1.00
O275   O     0.14206   0.62477   0.49560   0.00000  Uiso   1.00
C276   C     0.10617   0.63991   0.48881   0.00000  Uiso   1.00
H277   H     0.07671   0.61690   0.49645   0.00000  Uiso   1.00
H278   H     0.11252   0.64953   0.45419   0.00000  Uiso   1.00
H279   H     0.10027   0.33483   0.01188   0.00000  Uiso   1.00
O280   O     0.12390   0.43964   0.40380   0.00000  Uiso   1.00
C281   C     0.12881   0.39829   0.38652   0.00000  Uiso   1.00
H282   H     0.11245   0.39076   0.35875   0.00000  Uiso   1.00
H283   H     0.11293   0.37608   0.41236   0.00000  Uiso   1.00
H284   H     0.16301   0.39446   0.37242   0.00000  Uiso   1.00
Zn285  Zn    0.52672   0.47327   0.28734   0.00000  Uiso   1.00
Zn286  Zn    0.46713   0.45791   0.21875   0.00000  Uiso   1.00
Zn287  Zn    0.54389   0.53109   0.20657   0.00000  Uiso   1.00
Zn288  Zn    0.46226   0.53773   0.28733   0.00000  Uiso   1.00
O289   O     0.50000   0.50000   0.25000   0.00000  Uiso   1.00
O290   O     0.40405   0.52211   0.28213   0.00000  Uiso   1.00
O291   O     0.58824   0.48559   0.27013   0.00000  Uiso   1.00
O292   O     0.47093   0.40277   0.23413   0.00000  Uiso   1.00
O293   O     0.53678   0.58953   0.21360   0.00000  Uiso   1.00
O294   O     0.48784   0.45970   0.15458   0.00000  Uiso   1.00
O295   O     0.46274   0.53724   0.34968   0.00000  Uiso   1.00
O296   O     0.54157   0.51092   0.14606   0.00000  Uiso   1.00
O297   O     0.50785   0.49213   0.34968   0.00000  Uiso   1.00
O298   O     0.51264   0.41352   0.28213   0.00000  Uiso   1.00
O299   O     0.47965   0.59418   0.27013   0.00000  Uiso   1.00
O300   O     0.40745   0.46625   0.23413   0.00000  Uiso   1.00
O301   O     0.60026   0.52605   0.21360   0.00000  Uiso   1.00
C302   C     0.38642   0.49298   0.25916   0.00000  Uiso   1.00
C303   C     0.61401   0.50689   0.24015   0.00000  Uiso   1.00
C304   C     0.48912   0.38920   0.26053   0.00000  Uiso   1.00
C305   C     0.50991   0.61116   0.23960   0.00000  Uiso   1.00
C306   C     0.51889   0.48076   0.12938   0.00000  Uiso   1.00
C307   C     0.48168   0.51759   0.37092   0.00000  Uiso   1.00
C308   C     0.53351   0.42115   0.01646   0.00000  Uiso   1.00
H309   H     0.49985   0.39792   0.44736   0.00000  Uiso   1.00
C310   C     0.52521   0.47158   0.08120   0.00000  Uiso   1.00
C311   C     0.47178   0.56886   0.43612   0.00000  Uiso   1.00
C312   C     0.47696   0.58343   0.47901   0.00000  Uiso   1.00
C313   C     0.49024   0.55710   0.00371   0.00000  Uiso   1.00
C314   C     0.49383   0.51472   0.48891   0.00000  Uiso   1.00
C315   C     0.48407   0.49915   0.44739   0.00000  Uiso   1.00
C316   C     0.50768   0.48764   0.01367   0.00000  Uiso   1.00
C317   C     0.51499   0.44688   0.49483   0.00000  Uiso   1.00
C318   C     0.49984   0.43080   0.45709   0.00000  Uiso   1.00
C319   C     0.48155   0.45576   0.43471   0.00000  Uiso   1.00
C320   C     0.51306   0.49924   0.05726   0.00000  Uiso   1.00
C321   C     0.53613   0.43262   0.06104   0.00000  Uiso   1.00
C322   C     0.47678   0.52761   0.41950   0.00000  Uiso   1.00
H323   H     0.50421   0.52808   0.07525   0.00000  Uiso   1.00
H324   H     0.46681   0.59049   0.41442   0.00000  Uiso   1.00
H325   H     0.49817   0.57129   0.03420   0.00000  Uiso   1.00
C326   C     0.65942   0.51052   0.23830   0.00000  Uiso   1.00
H327   H     0.34767   0.53349   0.21749   0.00000  Uiso   1.00
C328   C     0.34129   0.48770   0.26298   0.00000  Uiso   1.00
C329   C     0.51463   0.65592   0.23472   0.00000  Uiso   1.00
C330   C     0.48656   0.34506   0.26297   0.00000  Uiso   1.00
H331   H     0.46104   0.66421   0.28902   0.00000  Uiso   1.00
O332   O     0.55190   0.40699   0.08397   0.00000  Uiso   1.00
C333   C     0.51806   0.37887   0.10721   0.00000  Uiso   1.00
H334   H     0.48735   0.37668   0.09692   0.00000  Uiso   1.00
H335   H     0.51242   0.38760   0.14371   0.00000  Uiso   1.00
H336   H     0.52784   0.34722   0.10143   0.00000  Uiso   1.00
N337   N     0.64965   0.45275   0.28612   0.00000  Uiso   1.00
O338   O     0.65354   0.44739   0.32586   0.00000  Uiso   1.00
O339   O     0.63222   0.42161   0.26372   0.00000  Uiso   1.00
N340   N     0.54879   0.34116   0.19986   0.00000  Uiso   1.00
O341   O     0.56208   0.65307   0.16212   0.00000  Uiso   1.00
O342   O     0.56923   0.37795   0.20687   0.00000  Uiso   1.00
N343   N     0.55078   0.38455   0.49272   0.00000  Uiso   1.00
O344   O     0.57304   0.38608   0.45143   0.00000  Uiso   1.00
O345   O     0.54776   0.35090   0.01292   0.00000  Uiso   1.00
O346   O     0.47539   0.62477   0.49560   0.00000  Uiso   1.00
C347   C     0.43950   0.63991   0.48881   0.00000  Uiso   1.00
H348   H     0.41004   0.61690   0.49645   0.00000  Uiso   1.00
H349   H     0.44585   0.64953   0.45419   0.00000  Uiso   1.00
H350   H     0.43360   0.33483   0.01188   0.00000  Uiso   1.00
O351   O     0.45724   0.43964   0.40380   0.00000  Uiso   1.00
C352   C     0.46215   0.39829   0.38652   0.00000  Uiso   1.00
H353   H     0.44579   0.39076   0.35875   0.00000  Uiso   1.00
H354   H     0.44626   0.37608   0.41236   0.00000  Uiso   1.00
H355   H     0.49635   0.39446   0.37242   0.00000  Uiso   1.00
Zn356  Zn    0.86005   0.47327   0.28734   0.00000  Uiso   1.00
Zn357  Zn    0.80046   0.45791   0.21875   0.00000  Uiso   1.00
Zn358  Zn    0.87723   0.53109   0.20657   0.00000  Uiso   1.00
Zn359  Zn    0.79560   0.53773   0.28733   0.00000  Uiso   1.00
O360   O     0.83333   0.50000   0.25000   0.00000  Uiso   1.00
O361   O     0.73738   0.52211   0.28213   0.00000  Uiso   1.00
O362   O     0.92158   0.48559   0.27013   0.00000  Uiso   1.00
O363   O     0.80426   0.40277   0.23413   0.00000  Uiso   1.00
O364   O     0.87012   0.58953   0.21360   0.00000  Uiso   1.00
O365   O     0.82118   0.45970   0.15458   0.00000  Uiso   1.00
O366   O     0.79607   0.53724   0.34968   0.00000  Uiso   1.00
O367   O     0.87491   0.51092   0.14606   0.00000  Uiso   1.00
O368   O     0.84118   0.49213   0.34968   0.00000  Uiso   1.00
O369   O     0.84597   0.41352   0.28213   0.00000  Uiso   1.00
O370   O     0.81298   0.59418   0.27013   0.00000  Uiso   1.00
O371   O     0.74078   0.46625   0.23413   0.00000  Uiso   1.00
O372   O     0.93360   0.52605   0.21360   0.00000  Uiso   1.00
C373   C     0.71975   0.49298   0.25916   0.00000  Uiso   1.00
C374   C     0.94735   0.50689   0.24015   0.00000  Uiso   1.00
C375   C     0.82245   0.38920   0.26053   0.00000  Uiso   1.00
C376   C     0.84324   0.61116   0.23960   0.00000  Uiso   1.00
C377   C     0.85222   0.48076   0.12938   0.00000  Uiso   1.00
C378   C     0.81501   0.51759   0.37092   0.00000  Uiso   1.00
C379   C     0.86685   0.42115   0.01646   0.00000  Uiso   1.00
H380   H     0.83319   0.39792   0.44736   0.00000  Uiso   1.00
C381   C     0.85854   0.47158   0.08120   0.00000  Uiso   1.00
C382   C     0.80511   0.56886   0.43612   0.00000  Uiso   1.00
C383   C     0.81029   0.58343   0.47901   0.00000  Uiso   1.00
C384   C     0.82358   0.55710   0.00371   0.00000  Uiso   1.00
C385   C     0.82716   0.51472   0.48891   0.00000  Uiso   1.00
C386   C     0.81740   0.49915   0.44739   0.00000  Uiso   1.00
C387   C     0.84101   0.48764   0.01367   0.00000  Uiso   1.00
C388   C     0.84832   0.44688   0.49483   0.00000  Uiso   1.00
C389   C     0.83318   0.43080   0.45709   0.00000  Uiso   1.00
C390   C     0.81489   0.45576   0.43471   0.00000  Uiso   1.00
C391   C     0.84639   0.49924   0.05726   0.00000  Uiso   1.00
C392   C     0.86946   0.43262   0.06104   0.00000  Uiso   1.00
C393   C     0.81012   0.52761   0.41950   0.00000  Uiso   1.00
H394   H     0.83754   0.52808   0.07525   0.00000  Uiso   1.00
H395   H     0.80014   0.59049   0.41442   0.00000  Uiso   1.00
H396   H     0.83150   0.57129   0.03420   0.00000  Uiso   1.00
C397   C     0.99275   0.51052   0.23830   0.00000  Uiso   1.00
H398   H     0.68101   0.53349   0.21749   0.00000  Uiso   1.00
C399   C     0.67463   0.48770   0.26298   0.00000  Uiso   1.00
C400   C     0.84796   0.65592   0.23472   0.00000  Uiso   1.00
C401   C     0.81989   0.34506   0.26297   0.00000  Uiso   1.00
H402   H     0.79437   0.66421   0.28902   0.00000  Uiso   1.00
O403   O     0.88524   0.40699   0.08397   0.00000  Uiso   1.00
C404   C     0.85139   0.37887   0.10721   0.00000  Uiso   1.00
H405   H     0.82068   0.37668   0.09692   0.00000  Uiso   1.00
H406   H     0.84575   0.38760   0.14371   0.00000  Uiso   1.00
H407   H     0.86118   0.34722   0.10143   0.00000  Uiso   1.00
N408   N     0.98299   0.45275   0.28612   0.00000  Uiso   1.00
O409   O     0.98687   0.44739   0.32586   0.00000  Uiso   1.00
O410   O     0.96556   0.42161   0.26372   0.00000  Uiso   1.00
N411   N     0.88212   0.34116   0.19986   0.00000  Uiso   1.00
O412   O     0.89541   0.65307   0.16212   0.00000  Uiso   1.00
O413   O     0.90256   0.37795   0.20687   0.00000  Uiso   1.00
N414   N     0.88411   0.38455   0.49272   0.00000  Uiso   1.00
O415   O     0.90638   0.38608   0.45143   0.00000  Uiso   1.00
O416   O     0.88110   0.35090   0.01292   0.00000  Uiso   1.00
O417   O     0.80873   0.62477   0.49560   0.00000  Uiso   1.00
C418   C     0.77283   0.63991   0.48881   0.00000  Uiso   1.00
H419   H     0.74338   0.61690   0.49645   0.00000  Uiso   1.00
H420   H     0.77919   0.64953   0.45419   0.00000  Uiso   1.00
H421   H     0.76694   0.33483   0.01188   0.00000  Uiso   1.00
O422   O     0.79057   0.43964   0.40380   0.00000  Uiso   1.00
C423   C     0.79548   0.39829   0.38652   0.00000  Uiso   1.00
H424   H     0.77912   0.39076   0.35875   0.00000  Uiso   1.00
H425   H     0.77959   0.37608   0.41236   0.00000  Uiso   1.00
H426   H     0.82968   0.39446   0.37242   0.00000  Uiso   1.00
Zn427  Zn    0.19338   0.80661   0.28734   0.00000  Uiso   1.00
Zn428  Zn    0.13379   0.79124   0.21875   0.00000  Uiso   1.00
Zn429  Zn    0.21056   0.86442   0.20657   0.00000  Uiso   1.00
Zn430  Zn    0.12893   0.87106   0.28733   0.00000  Uiso   1.00
O431   O     0.16667   0.83333   0.25000   0.00000  Uiso   1.00
O432   O     0.07071   0.85544   0.28213   0.00000  Uiso   1.00
O433   O     0.25491   0.81892   0.27013   0.00000  Uiso   1.00
O434   O     0.13760   0.73610   0.23413   0.00000  Uiso   1.00
O435   O     0.20345   0.92286   0.21360   0.00000  Uiso   1.00
O436   O     0.15451   0.79304   0.15458   0.00000  Uiso   1.00
O437   O     0.12940   0.87058   0.34968   0.00000  Uiso   1.00
O438   O     0.20824   0.84425   0.14606   0.00000  Uiso   1.00
O439   O     0.17451   0.82546   0.34968   0.00000  Uiso   1.00
O440   O     0.17930   0.74686   0.28213   0.00000  Uiso   1.00
O441   O     0.14632   0.92751   0.27013   0.00000  Uiso   1.00
O442   O     0.07412   0.79958   0.23413   0.00000  Uiso   1.00
O443   O     0.26693   0.85939   0.21360   0.00000  Uiso   1.00
C444   C     0.05309   0.82632   0.25916   0.00000  Uiso   1.00
C445   C     0.28068   0.84023   0.24015   0.00000  Uiso   1.00
C446   C     0.15578   0.72253   0.26053   0.00000  Uiso   1.00
C447   C     0.17658   0.94450   0.23960   0.00000  Uiso   1.00
C448   C     0.18555   0.81409   0.12938   0.00000  Uiso   1.00
C449   C     0.14835   0.85093   0.37092   0.00000  Uiso   1.00
C450   C     0.20018   0.75449   0.01646   0.00000  Uiso   1.00
H451   H     0.16652   0.73125   0.44736   0.00000  Uiso   1.00
C452   C     0.19187   0.80491   0.08120   0.00000  Uiso   1.00
C453   C     0.13845   0.90219   0.43612   0.00000  Uiso   1.00
C454   C     0.14363   0.91676   0.47901   0.00000  Uiso   1.00
C455   C     0.15691   0.89043   0.00371   0.00000  Uiso   1.00
C456   C     0.16049   0.84805   0.48891   0.00000  Uiso   1.00
C457   C     0.15073   0.83248   0.44739   0.00000  Uiso   1.00
C458   C     0.17435   0.82097   0.01367   0.00000  Uiso   1.00
C459   C     0.18165   0.78021   0.49483   0.00000  Uiso   1.00
C460   C     0.16651   0.76413   0.45709   0.00000  Uiso   1.00
C461   C     0.14822   0.78909   0.43471   0.00000  Uiso   1.00
C462   C     0.17972   0.83258   0.05726   0.00000  Uiso   1.00
C463   C     0.20280   0.76595   0.06104   0.00000  Uiso   1.00
C464   C     0.14345   0.86094   0.41950   0.00000  Uiso   1.00
H465   H     0.17088   0.86142   0.07525   0.00000  Uiso   1.00
H466   H     0.13348   0.92382   0.41442   0.00000  Uiso   1.00
H467   H     0.16484   0.90462   0.03420   0.00000  Uiso   1.00
C468   C     0.32609   0.84385   0.23830   0.00000  Uiso   1.00
H469   H     0.01434   0.86682   0.21749   0.00000  Uiso   1.00
C470   C     0.00796   0.82103   0.26298   0.00000  Uiso   1.00
C471   C     0.18130   0.98925   0.23472   0.00000  Uiso   1.00
C472   C     0.15322   0.67839   0.26297   0.00000  Uiso   1.00
H473   H     0.12770   0.99754   0.28902   0.00000  Uiso   1.00
O474   O     0.21857   0.74033   0.08397   0.00000  Uiso   1.00
C475   C     0.18473   0.71220   0.10721   0.00000  Uiso   1.00
H476   H     0.15402   0.71001   0.09692   0.00000  Uiso   1.00
H477   H     0.17908   0.72093   0.14371   0.00000  Uiso   1.00
H478   H     0.19451   0.68055   0.10143   0.00000  Uiso   1.00
N479   N     0.31632   0.78608   0.28612   0.00000  Uiso   1.00
O480   O     0.32020   0.78073   0.32586   0.00000  Uiso   1.00
O481   O     0.29889   0.75495   0.26372   0.00000  Uiso   1.00
N482   N     0.21545   0.67449   0.19986   0.00000  Uiso   1.00
O483   O     0.22874   0.98640   0.16212   0.00000  Uiso   1.00
O484   O     0.23590   0.71128   0.20687   0.00000  Uiso   1.00
N485   N     0.21744   0.71789   0.49272   0.00000  Uiso   1.00
O486   O     0.23971   0.71942   0.45143   0.00000  Uiso   1.00
O487   O     0.21443   0.68423   0.01292   0.00000  Uiso   1.00
O488   O     0.14206   0.95810   0.49560   0.00000  Uiso   1.00
C489   C     0.10617   0.97324   0.48881   0.00000  Uiso   1.00
H490   H     0.07671   0.95024   0.49645   0.00000  Uiso   1.00
H491   H     0.11252   0.98286   0.45419   0.00000  Uiso   1.00
H492   H     0.10027   0.66816   0.01188   0.00000  Uiso   1.00
O493   O     0.12390   0.77297   0.40380   0.00000  Uiso   1.00
C494   C     0.12881   0.73162   0.38652   0.00000  Uiso   1.00
H495   H     0.11245   0.72410   0.35875   0.00000  Uiso   1.00
H496   H     0.11293   0.70941   0.41236   0.00000  Uiso   1.00
H497   H     0.16301   0.72779   0.37242   0.00000  Uiso   1.00
Zn498  Zn    0.52672   0.80661   0.28734   0.00000  Uiso   1.00
Zn499  Zn    0.46713   0.79124   0.21875   0.00000  Uiso   1.00
Zn500  Zn    0.54389   0.86442   0.20657   0.00000  Uiso   1.00
Zn501  Zn    0.46226   0.87106   0.28733   0.00000  Uiso   1.00
O502   O     0.50000   0.83333   0.25000   0.00000  Uiso   1.00
O503   O     0.40405   0.85544   0.28213   0.00000  Uiso   1.00
O504   O     0.58824   0.81892   0.27013   0.00000  Uiso   1.00
O505   O     0.47093   0.73610   0.23413   0.00000  Uiso   1.00
O506   O     0.53678   0.92286   0.21360   0.00000  Uiso   1.00
O507   O     0.48784   0.79304   0.15458   0.00000  Uiso   1.00
O508   O     0.46274   0.87058   0.34968   0.00000  Uiso   1.00
O509   O     0.54157   0.84425   0.14606   0.00000  Uiso   1.00
O510   O     0.50785   0.82546   0.34968   0.00000  Uiso   1.00
O511   O     0.51264   0.74686   0.28213   0.00000  Uiso   1.00
O512   O     0.47965   0.92751   0.27013   0.00000  Uiso   1.00
O513   O     0.40745   0.79958   0.23413   0.00000  Uiso   1.00
O514   O     0.60026   0.85939   0.21360   0.00000  Uiso   1.00
C515   C     0.38642   0.82632   0.25916   0.00000  Uiso   1.00
C516   C     0.61401   0.84023   0.24015   0.00000  Uiso   1.00
C517   C     0.48912   0.72253   0.26053   0.00000  Uiso   1.00
C518   C     0.50991   0.94450   0.23960   0.00000  Uiso   1.00
C519   C     0.51889   0.81409   0.12938   0.00000  Uiso   1.00
C520   C     0.48168   0.85093   0.37092   0.00000  Uiso   1.00
C521   C     0.53351   0.75449   0.01646   0.00000  Uiso   1.00
H522   H     0.49985   0.73125   0.44736   0.00000  Uiso   1.00
C523   C     0.52521   0.80491   0.08120   0.00000  Uiso   1.00
C524   C     0.47178   0.90219   0.43612   0.00000  Uiso   1.00
C525   C     0.47696   0.91676   0.47901   0.00000  Uiso   1.00
C526   C     0.49024   0.89043   0.00371   0.00000  Uiso   1.00
C527   C     0.49383   0.84805   0.48891   0.00000  Uiso   1.00
C528   C     0.48407   0.83248   0.44739   0.00000  Uiso   1.00
C529   C     0.50768   0.82097   0.01367   0.00000  Uiso   1.00
C530   C     0.51499   0.78021   0.49483   0.00000  Uiso   1.00
C531   C     0.49984   0.76413   0.45709   0.00000  Uiso   1.00
C532   C     0.48155   0.78909   0.43471   0.00000  Uiso   1.00
C533   C     0.51306   0.83258   0.05726   0.00000  Uiso   1.00
C534   C     0.53613   0.76595   0.06104   0.00000  Uiso   1.00
C535   C     0.47678   0.86094   0.41950   0.00000  Uiso   1.00
H536   H     0.50421   0.86142   0.07525   0.00000  Uiso   1.00
H537   H     0.46681   0.92382   0.41442   0.00000  Uiso   1.00
H538   H     0.49817   0.90462   0.03420   0.00000  Uiso   1.00
C539   C     0.65942   0.84385   0.23830   0.00000  Uiso   1.00
H540   H     0.34767   0.86682   0.21749   0.00000  Uiso   1.00
C541   C     0.34129   0.82103   0.26298   0.00000  Uiso   1.00
C542   C     0.51463   0.98925   0.23472   0.00000  Uiso   1.00
C543   C     0.48656   0.67839   0.26297   0.00000  Uiso   1.00
H544   H     0.46104   0.99754   0.28902   0.00000  Uiso   1.00
O545   O     0.55190   0.74033   0.08397   0.00000  Uiso   1.00
C546   C     0.51806   0.71220   0.10721   0.00000  Uiso   1.00
H547   H     0.48735   0.71001   0.09692   0.00000  Uiso   1.00
H548   H     0.51242   0.72093   0.14371   0.00000  Uiso   1.00
H549   H     0.52784   0.68055   0.10143   0.00000  Uiso   1.00
N550   N     0.64965   0.78608   0.28612   0.00000  Uiso   1.00
O551   O     0.65354   0.78073   0.32586   0.00000  Uiso   1.00
O552   O     0.63222   0.75495   0.26372   0.00000  Uiso   1.00
N553   N     0.54879   0.67449   0.19986   0.00000  Uiso   1.00
O554   O     0.56208   0.98640   0.16212   0.00000  Uiso   1.00
O555   O     0.56923   0.71128   0.20687   0.00000  Uiso   1.00
N556   N     0.55078   0.71789   0.49272   0.00000  Uiso   1.00
O557   O     0.57304   0.71942   0.45143   0.00000  Uiso   1.00
O558   O     0.54776   0.68423   0.01292   0.00000  Uiso   1.00
O559   O     0.47539   0.95810   0.49560   0.00000  Uiso   1.00
C560   C     0.43950   0.97324   0.48881   0.00000  Uiso   1.00
H561   H     0.41004   0.95024   0.49645   0.00000  Uiso   1.00
H562   H     0.44585   0.98286   0.45419   0.00000  Uiso   1.00
H563   H     0.43360   0.66816   0.01188   0.00000  Uiso   1.00
O564   O     0.45724   0.77297   0.40380   0.00000  Uiso   1.00
C565   C     0.46215   0.73162   0.38652   0.00000  Uiso   1.00
H566   H     0.44579   0.72410   0.35875   0.00000  Uiso   1.00
H567   H     0.44626   0.70941   0.41236   0.00000  Uiso   1.00
H568   H     0.49635   0.72779   0.37242   0.00000  Uiso   1.00
Zn569  Zn    0.86005   0.80661   0.28734   0.00000  Uiso   1.00
Zn570  Zn    0.80046   0.79124   0.21875   0.00000  Uiso   1.00
Zn571  Zn    0.87723   0.86442   0.20657   0.00000  Uiso   1.00
Zn572  Zn    0.79560   0.87106   0.28733   0.00000  Uiso   1.00
O573   O     0.83333   0.83333   0.25000   0.00000  Uiso   1.00
O574   O     0.73738   0.85544   0.28213   0.00000  Uiso   1.00
O575   O     0.92158   0.81892   0.27013   0.00000  Uiso   1.00
O576   O     0.80426   0.73610   0.23413   0.00000  Uiso   1.00
O577   O     0.87012   0.92286   0.21360   0.00000  Uiso   1.00
O578   O     0.82118   0.79304   0.15458   0.00000  Uiso   1.00
O579   O     0.79607   0.87058   0.34968   0.00000  Uiso   1.00
O580   O     0.87491   0.84425   0.14606   0.00000  Uiso   1.00
O581   O     0.84118   0.82546   0.34968   0.00000  Uiso   1.00
O582   O     0.84597   0.74686   0.28213   0.00000  Uiso   1.00
O583   O     0.81298   0.92751   0.27013   0.00000  Uiso   1.00
O584   O     0.74078   0.79958   0.23413   0.00000  Uiso   1.00
O585   O     0.93360   0.85939   0.21360   0.00000  Uiso   1.00
C586   C     0.71975   0.82632   0.25916   0.00000  Uiso   1.00
C587   C     0.94735   0.84023   0.24015   0.00000  Uiso   1.00
C588   C     0.82245   0.72253   0.26053   0.00000  Uiso   1.00
C589   C     0.84324   0.94450   0.23960   0.00000  Uiso   1.00
C590   C     0.85222   0.81409   0.12938   0.00000  Uiso   1.00
C591   C     0.81501   0.85093   0.37092   0.00000  Uiso   1.00
C592   C     0.86685   0.75449   0.01646   0.00000  Uiso   1.00
H593   H     0.83319   0.73125   0.44736   0.00000  Uiso   1.00
C594   C     0.85854   0.80491   0.08120   0.00000  Uiso   1.00
C595   C     0.80511   0.90219   0.43612   0.00000  Uiso   1.00
C596   C     0.81029   0.91676   0.47901   0.00000  Uiso   1.00
C597   C     0.82358   0.89043   0.00371   0.00000  Uiso   1.00
C598   C     0.82716   0.84805   0.48891   0.00000  Uiso   1.00
C599   C     0.81740   0.83248   0.44739   0.00000  Uiso   1.00
C600   C     0.84101   0.82097   0.01367   0.00000  Uiso   1.00
C601   C     0.84832   0.78021   0.49483   0.00000  Uiso   1.00
C602   C     0.83318   0.76413   0.45709   0.00000  Uiso   1.00
C603   C     0.81489   0.78909   0.43471   0.00000  Uiso   1.00
C604   C     0.84639   0.83258   0.05726   0.00000  Uiso   1.00
C605   C     0.86946   0.76595   0.06104   0.00000  Uiso   1.00
C606   C     0.81012   0.86094   0.41950   0.00000  Uiso   1.00
H607   H     0.83754   0.86142   0.07525   0.00000  Uiso   1.00
H608   H     0.80014   0.92382   0.41442   0.00000  Uiso   1.00
H609   H     0.83150   0.90462   0.03420   0.00000  Uiso   1.00
C610   C     0.99275   0.84385   0.23830   0.00000  Uiso   1.00
H611   H     0.68101   0.86682   0.21749   0.00000  Uiso   1.00
C612   C     0.67463   0.82103   0.26298   0.00000  Uiso   1.00
C613   C     0.84796   0.98925   0.23472   0.00000  Uiso   1.00
C614   C     0.81989   0.67839   0.26297   0.00000  Uiso   1.00
H615   H     0.79437   0.99754   0.28902   0.00000  Uiso   1.00
O616   O     0.88524   0.74033   0.08397   0.00000  Uiso   1.00
C617   C     0.85139   0.71220   0.10721   0.00000  Uiso   1.00
H618   H     0.82068   0.71001   0.09692   0.00000  Uiso   1.00
H619   H     0.84575   0.72093   0.14371   0.00000  Uiso   1.00
H620   H     0.86118   0.68055   0.10143   0.00000  Uiso   1.00
N621   N     0.98299   0.78608   0.28612   0.00000  Uiso   1.00
O622   O     0.98687   0.78073   0.32586   0.00000  Uiso   1.00
O623   O     0.96556   0.75495   0.26372   0.00000  Uiso   1.00
N624   N     0.88212   0.67449   0.19986   0.00000  Uiso   1.00
O625   O     0.89541   0.98640   0.16212   0.00000  Uiso   1.00
O626   O     0.90256   0.71128   0.20687   0.00000  Uiso   1.00
N627   N     0.88411   0.71789   0.49272   0.00000  Uiso   1.00
O628   O     0.90638   0.71942   0.45143   0.00000  Uiso   1.00
O629   O     0.88110   0.68423   0.01292   0.00000  Uiso   1.00
O630   O     0.80873   0.95810   0.49560   0.00000  Uiso   1.00
C631   C     0.77283   0.97324   0.48881   0.00000  Uiso   1.00
H632   H     0.74338   0.95024   0.49645   0.00000  Uiso   1.00
H633   H     0.77919   0.98286   0.45419   0.00000  Uiso   1.00
H634   H     0.76694   0.66816   0.01188   0.00000  Uiso   1.00
O635   O     0.79057   0.77297   0.40380   0.00000  Uiso   1.00
C636   C     0.79548   0.73162   0.38652   0.00000  Uiso   1.00
H637   H     0.77912   0.72410   0.35875   0.00000  Uiso   1.00
H638   H     0.77959   0.70941   0.41236   0.00000  Uiso   1.00
H639   H     0.82968   0.72779   0.37242   0.00000  Uiso   1.00
Zn640  Zn    0.19338   0.13994   0.78734   0.00000  Uiso   1.00
Zn641  Zn    0.13379   0.12458   0.71875   0.00000  Uiso   1.00
Zn642  Zn    0.21056   0.19775   0.70657   0.00000  Uiso   1.00
Zn643  Zn    0.12893   0.20439   0.78733   0.00000  Uiso   1.00
O644   O     0.16667   0.16667   0.75000   0.00000  Uiso   1.00
O645   O     0.07071   0.18878   0.78213   0.00000  Uiso   1.00
O646   O     0.25491   0.15226   0.77013   0.00000  Uiso   1.00
O647   O     0.13760   0.06944   0.73413   0.00000  Uiso   1.00
O648   O     0.20345   0.25620   0.71360   0.00000  Uiso   1.00
O649   O     0.15451   0.12637   0.65458   0.00000  Uiso   1.00
O650   O     0.12940   0.20391   0.84968   0.00000  Uiso   1.00
O651   O     0.20824   0.17759   0.64606   0.00000  Uiso   1.00
O652   O     0.17451   0.15880   0.84968   0.00000  Uiso   1.00
O653   O     0.17930   0.08019   0.78213   0.00000  Uiso   1.00
O654   O     0.14632   0.26085   0.77013   0.00000  Uiso   1.00
O655   O     0.07412   0.13291   0.73413   0.00000  Uiso   1.00
O656   O     0.26693   0.19272   0.71360   0.00000  Uiso   1.00
C657   C     0.05309   0.15965   0.75916   0.00000  Uiso   1.00
C658   C     0.28068   0.17356   0.74015   0.00000  Uiso   1.00
C659   C     0.15578   0.05587   0.76053   0.00000  Uiso   1.00
C660   C     0.17658   0.27783   0.73960   0.00000  Uiso   1.00
C661   C     0.18555   0.14742   0.62938   0.00000  Uiso   1.00
C662   C     0.14835   0.18426   0.87092   0.00000  Uiso   1.00
C663   C     0.20018   0.08782   0.51646   0.00000  Uiso   1.00
H664   H     0.16652   0.06458   0.94736   0.00000  Uiso   1.00
C665   C     0.19187   0.13824   0.58120   0.00000  Uiso   1.00
C666   C     0.13845   0.23553   0.93612   0.00000  Uiso   1.00
C667   C     0.14363   0.25010   0.97901   0.00000  Uiso   1.00
C668   C     0.15691   0.22376   0.50371   0.00000  Uiso   1.00
C669   C     0.16049   0.18138   0.98891   0.00000  Uiso   1.00
C670   C     0.15073   0.16581   0.94739   0.00000  Uiso   1.00
C671   C     0.17435   0.15430   0.51367   0.00000  Uiso   1.00
C672   C     0.18165   0.11355   0.99483   0.00000  Uiso   1.00
C673   C     0.16651   0.09747   0.95709   0.00000  Uiso   1.00
C674   C     0.14822   0.12243   0.93471   0.00000  Uiso   1.00
C675   C     0.17972   0.16591   0.55726   0.00000  Uiso   1.00
C676   C     0.20280   0.09928   0.56104   0.00000  Uiso   1.00
C677   C     0.14345   0.19428   0.91950   0.00000  Uiso   1.00
H678   H     0.17088   0.19475   0.57525   0.00000  Uiso   1.00
H679   H     0.13348   0.25716   0.91442   0.00000  Uiso   1.00
H680   H     0.16484   0.23795   0.53420   0.00000  Uiso   1.00
C681   C     0.32609   0.17719   0.73830   0.00000  Uiso   1.00
H682   H     0.01434   0.20016   0.71749   0.00000  Uiso   1.00
C683   C     0.00796   0.15437   0.76298   0.00000  Uiso   1.00
C684   C     0.18130   0.32259   0.73472   0.00000  Uiso   1.00
C685   C     0.15322   0.01172   0.76297   0.00000  Uiso   1.00
H686   H     0.12770   0.33087   0.78902   0.00000  Uiso   1.00
O687   O     0.21857   0.07366   0.58397   0.00000  Uiso   1.00
C688   C     0.18473   0.04553   0.60721   0.00000  Uiso   1.00
H689   H     0.15402   0.04335   0.59692   0.00000  Uiso   1.00
H690   H     0.17908   0.05426   0.64371   0.00000  Uiso   1.00
H691   H     0.19451   0.01388   0.60143   0.00000  Uiso   1.00
N692   N     0.31632   0.11942   0.78612   0.00000  Uiso   1.00
O693   O     0.32020   0.11406   0.82586   0.00000  Uiso   1.00
O694   O     0.29889   0.08828   0.76372   0.00000  Uiso   1.00
N695   N     0.21545   0.00783   0.69986   0.00000  Uiso   1.00
O696   O     0.22874   0.31973   0.66212   0.00000  Uiso   1.00
O697   O     0.23590   0.04462   0.70687   0.00000  Uiso   1.00
N698   N     0.21744   0.05122   0.99272   0.00000  Uiso   1.00
O699   O     0.23971   0.05275   0.95143   0.00000  Uiso   1.00
O700   O     0.21443   0.01756   0.51292   0.00000  Uiso   1.00
O701   O     0.14206   0.29144   0.99560   0.00000  Uiso   1.00
C702   C     0.10617   0.30658   0.98881   0.00000  Uiso   1.00
H703   H     0.07671   0.28357   0.99645   0.00000  Uiso   1.00
H704   H     0.11252   0.31620   0.95419   0.00000  Uiso   1.00
H705   H     0.10027   0.00149   0.51188   0.00000  Uiso   1.00
O706   O     0.12390   0.10631   0.90380   0.00000  Uiso   1.00
C707   C     0.12881   0.06495   0.88652   0.00000  Uiso   1.00
H708   H     0.11245   0.05743   0.85875   0.00000  Uiso   1.00
H709   H     0.11293   0.04275   0.91236   0.00000  Uiso   1.00
H710   H     0.16301   0.06112   0.87242   0.00000  Uiso   1.00
Zn711  Zn    0.52672   0.13994   0.78734   0.00000  Uiso   1.00
Zn712  Zn    0.46713   0.12458   0.71875   0.00000  Uiso   1.00
Zn713  Zn    0.54389   0.19775   0.70657   0.00000  Uiso   1.00
Zn714  Zn    0.46226   0.20439   0.78733   0.00000  Uiso   1.00
O715   O     0.50000   0.16667   0.75000   0.00000  Uiso   1.00
O716   O     0.40405   0.18878   0.78213   0.00000  Uiso   1.00
O717   O     0.58824   0.15226   0.77013   0.00000  Uiso   1.00
O718   O     0.47093   0.06944   0.73413   0.00000  Uiso   1.00
O719   O     0.53678   0.25620   0.71360   0.00000  Uiso   1.00
O720   O     0.48784   0.12637   0.65458   0.00000  Uiso   1.00
O721   O     0.46274   0.20391   0.84968   0.00000  Uiso   1.00
O722   O     0.54157   0.17759   0.64606   0.00000  Uiso   1.00
O723   O     0.50785   0.15880   0.84968   0.00000  Uiso   1.00
O724   O     0.51264   0.08019   0.78213   0.00000  Uiso   1.00
O725   O     0.47965   0.26085   0.77013   0.00000  Uiso   1.00
O726   O     0.40745   0.13291   0.73413   0.00000  Uiso   1.00
O727   O     0.60026   0.19272   0.71360   0.00000  Uiso   1.00
C728   C     0.38642   0.15965   0.75916   0.00000  Uiso   1.00
C729   C     0.61401   0.17356   0.74015   0.00000  Uiso   1.00
C730   C     0.48912   0.05587   0.76053   0.00000  Uiso   1.00
C731   C     0.50991   0.27783   0.73960   0.00000  Uiso   1.00
C732   C     0.51889   0.14742   0.62938   0.00000  Uiso   1.00
C733   C     0.48168   0.18426   0.87092   0.00000  Uiso   1.00
C734   C     0.53351   0.08782   0.51646   0.00000  Uiso   1.00
H735   H     0.49985   0.06458   0.94736   0.00000  Uiso   1.00
C736   C     0.52521   0.13824   0.58120   0.00000  Uiso   1.00
C737   C     0.47178   0.23553   0.93612   0.00000  Uiso   1.00
C738   C     0.47696   0.25010   0.97901   0.00000  Uiso   1.00
C739   C     0.49024   0.22376   0.50371   0.00000  Uiso   1.00
C740   C     0.49383   0.18138   0.98891   0.00000  Uiso   1.00
C741   C     0.48407   0.16581   0.94739   0.00000  Uiso   1.00
C742   C     0.50768   0.15430   0.51367   0.00000  Uiso   1.00
C743   C     0.51499   0.11355   0.99483   0.00000  Uiso   1.00
C744   C     0.49984   0.09747   0.95709   0.00000  Uiso   1.00
C745   C     0.48155   0.12243   0.93471   0.00000  Uiso   1.00
C746   C     0.51306   0.16591   0.55726   0.00000  Uiso   1.00
C747   C     0.53613   0.09928   0.56104   0.00000  Uiso   1.00
C748   C     0.47678   0.19428   0.91950   0.00000  Uiso   1.00
H749   H     0.50421   0.19475   0.57525   0.00000  Uiso   1.00
H750   H     0.46681   0.25716   0.91442   0.00000  Uiso   1.00
H751   H     0.49817   0.23795   0.53420   0.00000  Uiso   1.00
C752   C     0.65942   0.17719   0.73830   0.00000  Uiso   1.00
H753   H     0.34767   0.20016   0.71749   0.00000  Uiso   1.00
C754   C     0.34129   0.15437   0.76298   0.00000  Uiso   1.00
C755   C     0.51463   0.32259   0.73472   0.00000  Uiso   1.00
C756   C     0.48656   0.01172   0.76297   0.00000  Uiso   1.00
H757   H     0.46104   0.33087   0.78902   0.00000  Uiso   1.00
O758   O     0.55190   0.07366   0.58397   0.00000  Uiso   1.00
C759   C     0.51806   0.04553   0.60721   0.00000  Uiso   1.00
H760   H     0.48735   0.04335   0.59692   0.00000  Uiso   1.00
H761   H     0.51242   0.05426   0.64371   0.00000  Uiso   1.00
H762   H     0.52784   0.01388   0.60143   0.00000  Uiso   1.00
N763   N     0.64965   0.11942   0.78612   0.00000  Uiso   1.00
O764   O     0.65354   0.11406   0.82586   0.00000  Uiso   1.00
O765   O     0.63222   0.08828   0.76372   0.00000  Uiso   1.00
N766   N     0.54879   0.00783   0.69986   0.00000  Uiso   1.00
O767   O     0.56208   0.31973   0.66212   0.00000  Uiso   1.00
O768   O     0.56923   0.04462   0.70687   0.00000  Uiso   1.00
N769   N     0.55078   0.05122   0.99272   0.00000  Uiso   1.00
O770   O     0.57304   0.05275   0.95143   0.00000  Uiso   1.00
O771   O     0.54776   0.01756   0.51292   0.00000  Uiso   1.00
O772   O     0.47539   0.29144   0.99560   0.00000  Uiso   1.00
C773   C     0.43950   0.30658   0.98881   0.00000  Uiso   1.00
H774   H     0.41004   0.28357   0.99645   0.00000  Uiso   1.00
H775   H     0.44585   0.31620   0.95419   0.00000  Uiso   1.00
H776   H     0.43360   0.00149   0.51188   0.00000  Uiso   1.00
O777   O     0.45724   0.10631   0.90380   0.00000  Uiso   1.00
C778   C     0.46215   0.06495   0.88652   0.00000  Uiso   1.00
H779   H     0.44579   0.05743   0.85875   0.00000  Uiso   1.00
H780   H     0.44626   0.04275   0.91236   0.00000  Uiso   1.00
H781   H     0.49635   0.06112   0.87242   0.00000  Uiso   1.00
Zn782  Zn    0.86005   0.13994   0.78734   0.00000  Uiso   1.00
Zn783  Zn    0.80046   0.12458   0.71875   0.00000  Uiso   1.00
Zn784  Zn    0.87723   0.19775   0.70657   0.00000  Uiso   1.00
Zn785  Zn    0.79560   0.20439   0.78733   0.00000  Uiso   1.00
O786   O     0.83333   0.16667   0.75000   0.00000  Uiso   1.00
O787   O     0.73738   0.18878   0.78213   0.00000  Uiso   1.00
O788   O     0.92158   0.15226   0.77013   0.00000  Uiso   1.00
O789   O     0.80426   0.06944   0.73413   0.00000  Uiso   1.00
O790   O     0.87012   0.25620   0.71360   0.00000  Uiso   1.00
O791   O     0.82118   0.12637   0.65458   0.00000  Uiso   1.00
O792   O     0.79607   0.20391   0.84968   0.00000  Uiso   1.00
O793   O     0.87491   0.17759   0.64606   0.00000  Uiso   1.00
O794   O     0.84118   0.15880   0.84968   0.00000  Uiso   1.00
O795   O     0.84597   0.08019   0.78213   0.00000  Uiso   1.00
O796   O     0.81298   0.26085   0.77013   0.00000  Uiso   1.00
O797   O     0.74078   0.13291   0.73413   0.00000  Uiso   1.00
O798   O     0.93360   0.19272   0.71360   0.00000  Uiso   1.00
C799   C     0.71975   0.15965   0.75916   0.00000  Uiso   1.00
C800   C     0.94735   0.17356   0.74015   0.00000  Uiso   1.00
C801   C     0.82245   0.05587   0.76053   0.00000  Uiso   1.00
C802   C     0.84324   0.27783   0.73960   0.00000  Uiso   1.00
C803   C     0.85222   0.14742   0.62938   0.00000  Uiso   1.00
C804   C     0.81501   0.18426   0.87092   0.00000  Uiso   1.00
C805   C     0.86685   0.08782   0.51646   0.00000  Uiso   1.00
H806   H     0.83319   0.06458   0.94736   0.00000  Uiso   1.00
C807   C     0.85854   0.13824   0.58120   0.00000  Uiso   1.00
C808   C     0.80511   0.23553   0.93612   0.00000  Uiso   1.00
C809   C     0.81029   0.25010   0.97901   0.00000  Uiso   1.00
C810   C     0.82358   0.22376   0.50371   0.00000  Uiso   1.00
C811   C     0.82716   0.18138   0.98891   0.00000  Uiso   1.00
C812   C     0.81740   0.16581   0.94739   0.00000  Uiso   1.00
C813   C     0.84101   0.15430   0.51367   0.00000  Uiso   1.00
C814   C     0.84832   0.11355   0.99483   0.00000  Uiso   1.00
C815   C     0.83318   0.09747   0.95709   0.00000  Uiso   1.00
C816   C     0.81489   0.12243   0.93471   0.00000  Uiso   1.00
C817   C     0.84639   0.16591   0.55726   0.00000  Uiso   1.00
C818   C     0.86946   0.09928   0.56104   0.00000  Uiso   1.00
C819   C     0.81012   0.19428   0.91950   0.00000  Uiso   1.00
H820   H     0.83754   0.19475   0.57525   0.00000  Uiso   1.00
H821   H     0.80014   0.25716   0.91442   0.00000  Uiso   1.00
H822   H     0.83150   0.23795   0.53420   0.00000  Uiso   1.00
C823   C     0.99275   0.17719   0.73830   0.00000  Uiso   1.00
H824   H     0.68101   0.20016   0.71749   0.00000  Uiso   1.00
C825   C     0.67463   0.15437   0.76298   0.00000  Uiso   1.00
C826   C     0.84796   0.32259   0.73472   0.00000  Uiso   1.00
C827   C     0.81989   0.01172   0.76297   0.00000  Uiso   1.00
H828   H     0.79437   0.33087   0.78902   0.00000  Uiso   1.00
O829   O     0.88524   0.07366   0.58397   0.00000  Uiso   1.00
C830   C     0.85139   0.04553   0.60721   0.00000  Uiso   1.00
H831   H     0.82068   0.04335   0.59692   0.00000  Uiso   1.00
H832   H     0.84575   0.05426   0.64371   0.00000  Uiso   1.00
H833   H     0.86118   0.01388   0.60143   0.00000  Uiso   1.00
N834   N     0.98299   0.11942   0.78612   0.00000  Uiso   1.00
O835   O     0.98687   0.11406   0.82586   0.00000  Uiso   1.00
O836   O     0.96556   0.08828   0.76372   0.00000  Uiso   1.00
N837   N     0.88212   0.00783   0.69986   0.00000  Uiso   1.00
O838   O     0.89541   0.31973   0.66212   0.00000  Uiso   1.00
O839   O     0.90256   0.04462   0.70687   0.00000  Uiso   1.00
N840   N     0.88411   0.05122   0.99272   0.00000  Uiso   1.00
O841   O     0.90638   0.05275   0.95143   0.00000  Uiso   1.00
O842   O     0.88110   0.01756   0.51292   0.00000  Uiso   1.00
O843   O     0.80873   0.29144   0.99560   0.00000  Uiso   1.00
C844   C     0.77283   0.30658   0.98881   0.00000  Uiso   1.00
H845   H     0.74338   0.28357   0.99645   0.00000  Uiso   1.00
H846   H     0.77919   0.31620   0.95419   0.00000  Uiso   1.00
H847   H     0.76694   0.00149   0.51188   0.00000  Uiso   1.00
O848   O     0.79057   0.10631   0.90380   0.00000  Uiso   1.00
C849   C     0.79548   0.06495   0.88652   0.00000  Uiso   1.00
H850   H     0.77912   0.05743   0.85875   0.00000  Uiso   1.00
H851   H     0.77959   0.04275   0.91236   0.00000  Uiso   1.00
H852   H     0.82968   0.06112   0.87242   0.00000  Uiso   1.00
Zn853  Zn    0.19338   0.47327   0.78734   0.00000  Uiso   1.00
Zn854  Zn    0.13379   0.45791   0.71875   0.00000  Uiso   1.00
Zn855  Zn    0.21056   0.53109   0.70657   0.00000  Uiso   1.00
Zn856  Zn    0.12893   0.53773   0.78733   0.00000  Uiso   1.00
O857   O     0.16667   0.50000   0.75000   0.00000  Uiso   1.00
O858   O     0.07071   0.52211   0.78213   0.00000  Uiso   1.00
O859   O     0.25491   0.48559   0.77013   0.00000  Uiso   1.00
O860   O     0.13760   0.40277   0.73413   0.00000  Uiso   1.00
O861   O     0.20345   0.58953   0.71360   0.00000  Uiso   1.00
O862   O     0.15451   0.45970   0.65458   0.00000  Uiso   1.00
O863   O     0.12940   0.53724   0.84968   0.00000  Uiso   1.00
O864   O     0.20824   0.51092   0.64606   0.00000  Uiso   1.00
O865   O     0.17451   0.49213   0.84968   0.00000  Uiso   1.00
O866   O     0.17930   0.41352   0.78213   0.00000  Uiso   1.00
O867   O     0.14632   0.59418   0.77013   0.00000  Uiso   1.00
O868   O     0.07412   0.46625   0.73413   0.00000  Uiso   1.00
O869   O     0.26693   0.52605   0.71360   0.00000  Uiso   1.00
C870   C     0.05309   0.49298   0.75916   0.00000  Uiso   1.00
C871   C     0.28068   0.50689   0.74015   0.00000  Uiso   1.00
C872   C     0.15578   0.38920   0.76053   0.00000  Uiso   1.00
C873   C     0.17658   0.61116   0.73960   0.00000  Uiso   1.00
C874   C     0.18555   0.48076   0.62938   0.00000  Uiso   1.00
C875   C     0.14835   0.51759   0.87092   0.00000  Uiso   1.00
C876   C     0.20018   0.42115   0.51646   0.00000  Uiso   1.00
H877   H     0.16652   0.39792   0.94736   0.00000  Uiso   1.00
C878   C     0.19187   0.47158   0.58120   0.00000  Uiso   1.00
C879   C     0.13845   0.56886   0.93612   0.00000  Uiso   1.00
C880   C     0.14363   0.58343   0.97901   0.00000  Uiso   1.00
C881   C     0.15691   0.55710   0.50371   0.00000  Uiso   1.00
C882   C     0.16049   0.51472   0.98891   0.00000  Uiso   1.00
C883   C     0.15073   0.49915   0.94739   0.00000  Uiso   1.00
C884   C     0.17435   0.48764   0.51367   0.00000  Uiso   1.00
C885   C     0.18165   0.44688   0.99483   0.00000  Uiso   1.00
C886   C     0.16651   0.43080   0.95709   0.00000  Uiso   1.00
C887   C     0.14822   0.45576   0.93471   0.00000  Uiso   1.00
C888   C     0.17972   0.49924   0.55726   0.00000  Uiso   1.00
C889   C     0.20280   0.43262   0.56104   0.00000  Uiso   1.00
C890   C     0.14345   0.52761   0.91950   0.00000  Uiso   1.00
H891   H     0.17088   0.52808   0.57525   0.00000  Uiso   1.00
H892   H     0.13348   0.59049   0.91442   0.00000  Uiso   1.00
H893   H     0.16484   0.57129   0.53420   0.00000  Uiso   1.00
C894   C     0.32609   0.51052   0.73830   0.00000  Uiso   1.00
H895   H     0.01434   0.53349   0.71749   0.00000  Uiso   1.00
C896   C     0.00796   0.48770   0.76298   0.00000  Uiso   1.00
C897   C     0.18130   0.65592   0.73472   0.00000  Uiso   1.00
C898   C     0.15322   0.34506   0.76297   0.00000  Uiso   1.00
H899   H     0.12770   0.66421   0.78902   0.00000  Uiso   1.00
O900   O     0.21857   0.40699   0.58397   0.00000  Uiso   1.00
C901   C     0.18473   0.37887   0.60721   0.00000  Uiso   1.00
H902   H     0.15402   0.37668   0.59692   0.00000  Uiso   1.00
H903   H     0.17908   0.38760   0.64371   0.00000  Uiso   1.00
H904   H     0.19451   0.34722   0.60143   0.00000  Uiso   1.00
N905   N     0.31632   0.45275   0.78612   0.00000  Uiso   1.00
O906   O     0.32020   0.44739   0.82586   0.00000  Uiso   1.00
O907   O     0.29889   0.42161   0.76372   0.00000  Uiso   1.00
N908   N     0.21545   0.34116   0.69986   0.00000  Uiso   1.00
O909   O     0.22874   0.65307   0.66212   0.00000  Uiso   1.00
O910   O     0.23590   0.37795   0.70687   0.00000  Uiso   1.00
N911   N     0.21744   0.38455   0.99272   0.00000  Uiso   1.00
O912   O     0.23971   0.38608   0.95143   0.00000  Uiso   1.00
O913   O     0.21443   0.35090   0.51292   0.00000  Uiso   1.00
O914   O     0.14206   0.62477   0.99560   0.00000  Uiso   1.00
C915   C     0.10617   0.63991   0.98881   0.00000  Uiso   1.00
H916   H     0.07671   0.61690   0.99645   0.00000  Uiso   1.00
H917   H     0.11252   0.64953   0.95419   0.00000  Uiso   1.00
H918   H     0.10027   0.33483   0.51188   0.00000  Uiso   1.00
O919   O     0.12390   0.43964   0.90380   0.00000  Uiso   1.00
C920   C     0.12881   0.39829   0.88652   0.00000  Uiso   1.00
H921   H     0.11245   0.39076   0.85875   0.00000  Uiso   1.00
H922   H     0.11293   0.37608   0.91236   0.00000  Uiso   1.00
H923   H     0.16301   0.39446   0.87242   0.00000  Uiso   1.00
Zn924  Zn    0.52672   0.47327   0.78734   0.00000  Uiso   1.00
Zn925  Zn    0.46713   0.45791   0.71875   0.00000  Uiso   1.00
Zn926  Zn    0.54389   0.53109   0.70657   0.00000  Uiso   1.00
Zn927  Zn    0.46226   0.53773   0.78733   0.00000  Uiso   1.00
O928   O     0.50000   0.50000   0.75000   0.00000  Uiso   1.00
O929   O     0.40405   0.52211   0.78213   0.00000  Uiso   1.00
O930   O     0.58824   0.48559   0.77013   0.00000  Uiso   1.00
O931   O     0.47093   0.40277   0.73413   0.00000  Uiso   1.00
O932   O     0.53678   0.58953   0.71360   0.00000  Uiso   1.00
O933   O     0.48784   0.45970   0.65458   0.00000  Uiso   1.00
O934   O     0.46274   0.53724   0.84968   0.00000  Uiso   1.00
O935   O     0.54157   0.51092   0.64606   0.00000  Uiso   1.00
O936   O     0.50785   0.49213   0.84968   0.00000  Uiso   1.00
O937   O     0.51264   0.41352   0.78213   0.00000  Uiso   1.00
O938   O     0.47965   0.59418   0.77013   0.00000  Uiso   1.00
O939   O     0.40745   0.46625   0.73413   0.00000  Uiso   1.00
O940   O     0.60026   0.52605   0.71360   0.00000  Uiso   1.00
C941   C     0.38642   0.49298   0.75916   0.00000  Uiso   1.00
C942   C     0.61401   0.50689   0.74015   0.00000  Uiso   1.00
C943   C     0.48912   0.38920   0.76053   0.00000  Uiso   1.00
C944   C     0.50991   0.61116   0.73960   0.00000  Uiso   1.00
C945   C     0.51889   0.48076   0.62938   0.00000  Uiso   1.00
C946   C     0.48168   0.51759   0.87092   0.00000  Uiso   1.00
C947   C     0.53351   0.42115   0.51646   0.00000  Uiso   1.00
H948   H     0.49985   0.39792   0.94736   0.00000  Uiso   1.00
C949   C     0.52521   0.47158   0.58120   0.00000  Uiso   1.00
C950   C     0.47178   0.56886   0.93612   0.00000  Uiso   1.00
C951   C     0.47696   0.58343   0.97901   0.00000  Uiso   1.00
C952   C     0.49024   0.55710   0.50371   0.00000  Uiso   1.00
C953   C     0.49383   0.51472   0.98891   0.00000  Uiso   1.00
C954   C     0.48407   0.49915   0.94739   0.00000  Uiso   1.00
C955   C     0.50768   0.48764   0.51367   0.00000  Uiso   1.00
C956   C     0.51499   0.44688   0.99483   0.00000  Uiso   1.00
C957   C     0.49984   0.43080   0.95709   0.00000  Uiso   1.00
C958   C     0.48155   0.45576   0.93471   0.00000  Uiso   1.00
C959   C     0.51306   0.49924   0.55726   0.00000  Uiso   1.00
C960   C     0.53613   0.43262   0.56104   0.00000  Uiso   1.00
C961   C     0.47678   0.52761   0.91950   0.00000  Uiso   1.00
H962   H     0.50421   0.52808   0.57525   0.00000  Uiso   1.00
H963   H     0.46681   0.59049   0.91442   0.00000  Uiso   1.00
H964   H     0.49817   0.57129   0.53420   0.00000  Uiso   1.00
C965   C     0.65942   0.51052   0.73830   0.00000  Uiso   1.00
H966   H     0.34767   0.53349   0.71749   0.00000  Uiso   1.00
C967   C     0.34129   0.48770   0.76298   0.00000  Uiso   1.00
C968   C     0.51463   0.65592   0.73472   0.00000  Uiso   1.00
C969   C     0.48656   0.34506   0.76297   0.00000  Uiso   1.00
H970   H     0.46104   0.66421   0.78902   0.00000  Uiso   1.00
O971   O     0.55190   0.40699   0.58397   0.00000  Uiso   1.00
C972   C     0.51806   0.37887   0.60721   0.00000  Uiso   1.00
H973   H     0.48735   0.37668   0.59692   0.00000  Uiso   1.00
H974   H     0.51242   0.38760   0.64371   0.00000  Uiso   1.00
H975   H     0.52784   0.34722   0.60143   0.00000  Uiso   1.00
N976   N     0.64965   0.45275   0.78612   0.00000  Uiso   1.00
O977   O     0.65354   0.44739   0.82586   0.00000  Uiso   1.00
O978   O     0.63222   0.42161   0.76372   0.00000  Uiso   1.00
N979   N     0.54879   0.34116   0.69986   0.00000  Uiso   1.00
O980   O     0.56208   0.65307   0.66212   0.00000  Uiso   1.00
O981   O     0.56923   0.37795   0.70687   0.00000  Uiso   1.00
N982   N     0.55078   0.38455   0.99272   0.00000  Uiso   1.00
O983   O     0.57304   0.38608   0.95143   0.00000  Uiso   1.00
O984   O     0.54776   0.35090   0.51292   0.00000  Uiso   1.00
O985   O     0.47539   0.62477   0.99560   0.00000  Uiso   1.00
C986   C     0.43950   0.63991   0.98881   0.00000  Uiso   1.00
H987   H     0.41004   0.61690   0.99645   0.00000  Uiso   1.00
H988   H     0.44585   0.64953   0.95419   0.00000  Uiso   1.00
H989   H     0.43360   0.33483   0.51188   0.00000  Uiso   1.00
O990   O     0.45724   0.43964   0.90380   0.00000  Uiso   1.00
C991   C     0.46215   0.39829   0.88652   0.00000  Uiso   1.00
H992   H     0.44579   0.39076   0.85875   0.00000  Uiso   1.00
H993   H     0.44626   0.37608   0.91236   0.00000  Uiso   1.00
H994   H     0.49635   0.39446   0.87242   0.00000  Uiso   1.00
Zn995  Zn    0.86005   0.47327   0.78734   0.00000  Uiso   1.00
Zn996  Zn    0.80046   0.45791   0.71875   0.00000  Uiso   1.00
Zn997  Zn    0.87723   0.53109   0.70657   0.00000  Uiso   1.00
Zn998  Zn    0.79560   0.53773   0.78733   0.00000  Uiso   1.00
O999   O     0.83333   0.50000   0.75000   0.00000  Uiso   1.00
O1000  O     0.73738   0.52211   0.78213   0.00000  Uiso   1.00
O1001  O     0.92158   0.48559   0.77013   0.00000  Uiso   1.00
O1002  O     0.80426   0.40277   0.73413   0.00000  Uiso   1.00
O1003  O     0.87012   0.58953   0.71360   0.00000  Uiso   1.00
O1004  O     0.82118   0.45970   0.65458   0.00000  Uiso   1.00
O1005  O     0.79607   0.53724   0.84968   0.00000  Uiso   1.00
O1006  O     0.87491   0.51092   0.64606   0.00000  Uiso   1.00
O1007  O     0.84118   0.49213   0.84968   0.00000  Uiso   1.00
O1008  O     0.84597   0.41352   0.78213   0.00000  Uiso   1.00
O1009  O     0.81298   0.59418   0.77013   0.00000  Uiso   1.00
O1010  O     0.74078   0.46625   0.73413   0.00000  Uiso   1.00
O1011  O     0.93360   0.52605   0.71360   0.00000  Uiso   1.00
C1012  C     0.71975   0.49298   0.75916   0.00000  Uiso   1.00
C1013  C     0.94735   0.50689   0.74015   0.00000  Uiso   1.00
C1014  C     0.82245   0.38920   0.76053   0.00000  Uiso   1.00
C1015  C     0.84324   0.61116   0.73960   0.00000  Uiso   1.00
C1016  C     0.85222   0.48076   0.62938   0.00000  Uiso   1.00
C1017  C     0.81501   0.51759   0.87092   0.00000  Uiso   1.00
C1018  C     0.86685   0.42115   0.51646   0.00000  Uiso   1.00
H1019  H     0.83319   0.39792   0.94736   0.00000  Uiso   1.00
C1020  C     0.85854   0.47158   0.58120   0.00000  Uiso   1.00
C1021  C     0.80511   0.56886   0.93612   0.00000  Uiso   1.00
C1022  C     0.81029   0.58343   0.97901   0.00000  Uiso   1.00
C1023  C     0.82358   0.55710   0.50371   0.00000  Uiso   1.00
C1024  C     0.82716   0.51472   0.98891   0.00000  Uiso   1.00
C1025  C     0.81740   0.49915   0.94739   0.00000  Uiso   1.00
C1026  C     0.84101   0.48764   0.51367   0.00000  Uiso   1.00
C1027  C     0.84832   0.44688   0.99483   0.00000  Uiso   1.00
C1028  C     0.83318   0.43080   0.95709   0.00000  Uiso   1.00
C1029  C     0.81489   0.45576   0.93471   0.00000  Uiso   1.00
C1030  C     0.84639   0.49924   0.55726   0.00000  Uiso   1.00
C1031  C     0.86946   0.43262   0.56104   0.00000  Uiso   1.00
C1032  C     0.81012   0.52761   0.91950   0.00000  Uiso   1.00
H1033  H     0.83754   0.52808   0.57525   0.00000  Uiso   1.00
H1034  H     0.80014   0.59049   0.91442   0.00000  Uiso   1.00
H1035  H     0.83150   0.57129   0.53420   0.00000  Uiso   1.00
C1036  C     0.99275   0.51052   0.73830   0.00000  Uiso   1.00
H1037  H     0.68101   0.53349   0.71749   0.00000  Uiso   1.00
C1038  C     0.67463   0.48770   0.76298   0.00000  Uiso   1.00
C1039  C     0.84796   0.65592   0.73472   0.00000  Uiso   1.00
C1040  C     0.81989   0.34506   0.76297   0.00000  Uiso   1.00
H1041  H     0.79437   0.66421   0.78902   0.00000  Uiso   1.00
O1042  O     0.88524   0.40699   0.58397   0.00000  Uiso   1.00
C1043  C     0.85139   0.37887   0.60721   0.00000  Uiso   1.00
H1044  H     0.82068   0.37668   0.59692   0.00000  Uiso   1.00
H1045  H     0.84575   0.38760   0.64371   0.00000  Uiso   1.00
H1046  H     0.86118   0.34722   0.60143   0.00000  Uiso   1.00
N1047  N     0.98299   0.45275   0.78612   0.00000  Uiso   1.00
O1048  O     0.98687   0.44739   0.82586   0.00000  Uiso   1.00
O1049  O     0.96556   0.42161   0.76372   0.00000  Uiso   1.00
N1050  N     0.88212   0.34116   0.69986   0.00000  Uiso   1.00
O1051  O     0.89541   0.65307   0.66212   0.00000  Uiso   1.00
O1052  O     0.90256   0.37795   0.70687   0.00000  Uiso   1.00
N1053  N     0.88411   0.38455   0.99272   0.00000  Uiso   1.00
O1054  O     0.90638   0.38608   0.95143   0.00000  Uiso   1.00
O1055  O     0.88110   0.35090   0.51292   0.00000  Uiso   1.00
O1056  O     0.80873   0.62477   0.99560   0.00000  Uiso   1.00
C1057  C     0.77283   0.63991   0.98881   0.00000  Uiso   1.00
H1058  H     0.74338   0.61690   0.99645   0.00000  Uiso   1.00
H1059  H     0.77919   0.64953   0.95419   0.00000  Uiso   1.00
H1060  H     0.76694   0.33483   0.51188   0.00000  Uiso   1.00
O1061  O     0.79057   0.43964   0.90380   0.00000  Uiso   1.00
C1062  C     0.79548   0.39829   0.88652   0.00000  Uiso   1.00
H1063  H     0.77912   0.39076   0.85875   0.00000  Uiso   1.00
H1064  H     0.77959   0.37608   0.91236   0.00000  Uiso   1.00
H1065  H     0.82968   0.39446   0.87242   0.00000  Uiso   1.00
Zn1066 Zn    0.19338   0.80661   0.78734   0.00000  Uiso   1.00
Zn1067 Zn    0.13379   0.79124   0.71875   0.00000  Uiso   1.00
Zn1068 Zn    0.21056   0.86442   0.70657   0.00000  Uiso   1.00
Zn1069 Zn    0.12893   0.87106   0.78733   0.00000  Uiso   1.00
O1070  O     0.16667   0.83333   0.75000   0.00000  Uiso   1.00
O1071  O     0.07071   0.85544   0.78213   0.00000  Uiso   1.00
O1072  O     0.25491   0.81892   0.77013   0.00000  Uiso   1.00
O1073  O     0.13760   0.73610   0.73413   0.00000  Uiso   1.00
O1074  O     0.20345   0.92286   0.71360   0.00000  Uiso   1.00
O1075  O     0.15451   0.79304   0.65458   0.00000  Uiso   1.00
O1076  O     0.12940   0.87058   0.84968   0.00000  Uiso   1.00
O1077  O     0.20824   0.84425   0.64606   0.00000  Uiso   1.00
O1078  O     0.17451   0.82546   0.84968   0.00000  Uiso   1.00
O1079  O     0.17930   0.74686   0.78213   0.00000  Uiso   1.00
O1080  O     0.14632   0.92751   0.77013   0.00000  Uiso   1.00
O1081  O     0.07412   0.79958   0.73413   0.00000  Uiso   1.00
O1082  O     0.26693   0.85939   0.71360   0.00000  Uiso   1.00
C1083  C     0.05309   0.82632   0.75916   0.00000  Uiso   1.00
C1084  C     0.28068   0.84023   0.74015   0.00000  Uiso   1.00
C1085  C     0.15578   0.72253   0.76053   0.00000  Uiso   1.00
C1086  C     0.17658   0.94450   0.73960   0.00000  Uiso   1.00
C1087  C     0.18555   0.81409   0.62938   0.00000  Uiso   1.00
C1088  C     0.14835   0.85093   0.87092   0.00000  Uiso   1.00
C1089  C     0.20018   0.75449   0.51646   0.00000  Uiso   1.00
H1090  H     0.16652   0.73125   0.94736   0.00000  Uiso   1.00
C1091  C     0.19187   0.80491   0.58120   0.00000  Uiso   1.00
C1092  C     0.13845   0.90219   0.93612   0.00000  Uiso   1.00
C1093  C     0.14363   0.91676   0.97901   0.00000  Uiso   1.00
C1094  C     0.15691   0.89043   0.50371   0.00000  Uiso   1.00
C1095  C     0.16049   0.84805   0.98891   0.00000  Uiso   1.00
C1096  C     0.15073   0.83248   0.94739   0.00000  Uiso   1.00
C1097  C     0.17435   0.82097   0.51367   0.00000  Uiso   1.00
C1098  C     0.18165   0.78021   0.99483   0.00000  Uiso   1.00
C1099  C     0.16651   0.76413   0.95709   0.00000  Uiso   1.00
C1100  C     0.14822   0.78909   0.93471   0.00000  Uiso   1.00
C1101  C     0.17972   0.83258   0.55726   0.00000  Uiso   1.00
C1102  C     0.20280   0.76595   0.56104   0.00000  Uiso   1.00
C1103  C     0.14345   0.86094   0.91950   0.00000  Uiso   1.00
H1104  H     0.17088   0.86142   0.57525   0.00000  Uiso   1.00
H1105  H     0.13348   0.92382   0.91442   0.00000  Uiso   1.00
H1106  H     0.16484   0.90462   0.53420   0.00000  Uiso   1.00
C1107  C     0.32609   0.84385   0.73830   0.00000  Uiso   1.00
H1108  H     0.01434   0.86682   0.71749   0.00000  Uiso   1.00
C1109  C     0.00796   0.82103   0.76298   0.00000  Uiso   1.00
C1110  C     0.18130   0.98925   0.73472   0.00000  Uiso   1.00
C1111  C     0.15322   0.67839   0.76297   0.00000  Uiso   1.00
H1112  H     0.12770   0.99754   0.78902   0.00000  Uiso   1.00
O1113  O     0.21857   0.74033   0.58397   0.00000  Uiso   1.00
C1114  C     0.18473   0.71220   0.60721   0.00000  Uiso   1.00
H1115  H     0.15402   0.71001   0.59692   0.00000  Uiso   1.00
H1116  H     0.17908   0.72093   0.64371   0.00000  Uiso   1.00
H1117  H     0.19451   0.68055   0.60143   0.00000  Uiso   1.00
N1118  N     0.31632   0.78608   0.78612   0.00000  Uiso   1.00
O1119  O     0.32020   0.78073   0.82586   0.00000  Uiso   1.00
O1120  O     0.29889   0.75495   0.76372   0.00000  Uiso   1.00
N1121  N     0.21545   0.67449   0.69986   0.00000  Uiso   1.00
O1122  O     0.22874   0.98640   0.66212   0.00000  Uiso   1.00
O1123  O     0.23590   0.71128   0.70687   0.00000  Uiso   1.00
N1124  N     0.21744   0.71789   0.99272   0.00000  Uiso   1.00
O1125  O     0.23971   0.71942   0.95143   0.00000  Uiso   1.00
O1126  O     0.21443   0.68423   0.51292   0.00000  Uiso   1.00
O1127  O     0.14206   0.95810   0.99560   0.00000  Uiso   1.00
C1128  C     0.10617   0.97324   0.98881   0.00000  Uiso   1.00
H1129  H     0.07671   0.95024   0.99645   0.00000  Uiso   1.00
H1130  H     0.11252   0.98286   0.95419   0.00000  Uiso   1.00
H1131  H     0.10027   0.66816   0.51188   0.00000  Uiso   1.00
O1132  O     0.12390   0.77297   0.90380   0.00000  Uiso   1.00
C1133  C     0.12881   0.73162   0.88652   0.00000  Uiso   1.00
H1134  H     0.11245   0.72410   0.85875   0.00000  Uiso   1.00
H1135  H     0.11293   0.70941   0.91236   0.00000  Uiso   1.00
H1136  H     0.16301   0.72779   0.87242   0.00000  Uiso   1.00
Zn1137 Zn    0.52672   0.80661   0.78734   0.00000  Uiso   1.00
Zn1138 Zn    0.46713   0.79124   0.71875   0.00000  Uiso   1.00
Zn1139 Zn    0.54389   0.86442   0.70657   0.00000  Uiso   1.00
Zn1140 Zn    0.46226   0.87106   0.78733   0.00000  Uiso   1.00
O1141  O     0.50000   0.83333   0.75000   0.00000  Uiso   1.00
O1142  O     0.40405   0.85544   0.78213   0.00000  Uiso   1.00
O1143  O     0.58824   0.81892   0.77013   0.00000  Uiso   1.00
O1144  O     0.47093   0.73610   0.73413   0.00000  Uiso   1.00
O1145  O     0.53678   0.92286   0.71360   0.00000  Uiso   1.00
O1146  O     0.48784   0.79304   0.65458   0.00000  Uiso   1.00
O1147  O     0.46274   0.87058   0.84968   0.00000  Uiso   1.00
O1148  O     0.54157   0.84425   0.64606   0.00000  Uiso   1.00
O1149  O     0.50785   0.82546   0.84968   0.00000  Uiso   1.00
O1150  O     0.51264   0.74686   0.78213   0.00000  Uiso   1.00
O1151  O     0.47965   0.92751   0.77013   0.00000  Uiso   1.00
O1152  O     0.40745   0.79958   0.73413   0.00000  Uiso   1.00
O1153  O     0.60026   0.85939   0.71360   0.00000  Uiso   1.00
C1154  C     0.38642   0.82632   0.75916   0.00000  Uiso   1.00
C1155  C     0.61401   0.84023   0.74015   0.00000  Uiso   1.00
C1156  C     0.48912   0.72253   0.76053   0.00000  Uiso   1.00
C1157  C     0.50991   0.94450   0.73960   0.00000  Uiso   1.00
C1158  C     0.51889   0.81409   0.62938   0.00000  Uiso   1.00
C1159  C     0.48168   0.85093   0.87092   0.00000  Uiso   1.00
C1160  C     0.53351   0.75449   0.51646   0.00000  Uiso   1.00
H1161  H     0.49985   0.73125   0.94736   0.00000  Uiso   1.00
C1162  C     0.52521   0.80491   0.58120   0.00000  Uiso   1.00
C1163  C     0.47178   0.90219   0.93612   0.00000  Uiso   1.00
C1164  C     0.47696   0.91676   0.97901   0.00000  Uiso   1.00
C1165  C     0.49024   0.89043   0.50371   0.00000  Uiso   1.00
C1166  C     0.49383   0.84805   0.98891   0.00000  Uiso   1.00
C1167  C     0.48407   0.83248   0.94739   0.00000  Uiso   1.00
C1168  C     0.50768   0.82097   0.51367   0.00000  Uiso   1.00
C1169  C     0.51499   0.78021   0.99483   0.00000  Uiso   1.00
C1170  C     0.49984   0.76413   0.95709   0.00000  Uiso   1.00
C1171  C     0.48155   0.78909   0.93471   0.00000  Uiso   1.00
C1172  C     0.51306   0.83258   0.55726   0.00000  Uiso   1.00
C1173  C     0.53613   0.76595   0.56104   0.00000  Uiso   1.00
C1174  C     0.47678   0.86094   0.91950   0.00000  Uiso   1.00
H1175  H     0.50421   0.86142   0.57525   0.00000  Uiso   1.00
H1176  H     0.46681   0.92382   0.91442   0.00000  Uiso   1.00
H1177  H     0.49817   0.90462   0.53420   0.00000  Uiso   1.00
C1178  C     0.65942   0.84385   0.73830   0.00000  Uiso   1.00
H1179  H     0.34767   0.86682   0.71749   0.00000  Uiso   1.00
C1180  C     0.34129   0.82103   0.76298   0.00000  Uiso   1.00
C1181  C     0.51463   0.98925   0.73472   0.00000  Uiso   1.00
C1182  C     0.48656   0.67839   0.76297   0.00000  Uiso   1.00
H1183  H     0.46104   0.99754   0.78902   0.00000  Uiso   1.00
O1184  O     0.55190   0.74033   0.58397   0.00000  Uiso   1.00
C1185  C     0.51806   0.71220   0.60721   0.00000  Uiso   1.00
H1186  H     0.48735   0.71001   0.59692   0.00000  Uiso   1.00
H1187  H     0.51242   0.72093   0.64371   0.00000  Uiso   1.00
H1188  H     0.52784   0.68055   0.60143   0.00000  Uiso   1.00
N1189  N     0.64965   0.78608   0.78612   0.00000  Uiso   1.00
O1190  O     0.65354   0.78073   0.82586   0.00000  Uiso   1.00
O1191  O     0.63222   0.75495   0.76372   0.00000  Uiso   1.00
N1192  N     0.54879   0.67449   0.69986   0.00000  Uiso   1.00
O1193  O     0.56208   0.98640   0.66212   0.00000  Uiso   1.00
O1194  O     0.56923   0.71128   0.70687   0.00000  Uiso   1.00
N1195  N     0.55078   0.71789   0.99272   0.00000  Uiso   1.00
O1196  O     0.57304   0.71942   0.95143   0.00000  Uiso   1.00
O1197  O     0.54776   0.68423   0.51292   0.00000  Uiso   1.00
O1198  O     0.47539   0.95810   0.99560   0.00000  Uiso   1.00
C1199  C     0.43950   0.97324   0.98881   0.00000  Uiso   1.00
H1200  H     0.41004   0.95024   0.99645   0.00000  Uiso   1.00
H1201  H     0.44585   0.98286   0.95419   0.00000  Uiso   1.00
H1202  H     0.43360   0.66816   0.51188   0.00000  Uiso   1.00
O1203  O     0.45724   0.77297   0.90380   0.00000  Uiso   1.00
C1204  C     0.46215   0.73162   0.88652   0.00000  Uiso   1.00
H1205  H     0.44579   0.72410   0.85875   0.00000  Uiso   1.00
H1206  H     0.44626   0.70941   0.91236   0.00000  Uiso   1.00
H1207  H     0.49635   0.72779   0.87242   0.00000  Uiso   1.00
Zn1208 Zn    0.86005   0.80661   0.78734   0.00000  Uiso   1.00
Zn1209 Zn    0.80046   0.79124   0.71875   0.00000  Uiso   1.00
Zn1210 Zn    0.87723   0.86442   0.70657   0.00000  Uiso   1.00
Zn1211 Zn    0.79560   0.87106   0.78733   0.00000  Uiso   1.00
O1212  O     0.83333   0.83333   0.75000   0.00000  Uiso   1.00
O1213  O     0.73738   0.85544   0.78213   0.00000  Uiso   1.00
O1214  O     0.92158   0.81892   0.77013   0.00000  Uiso   1.00
O1215  O     0.80426   0.73610   0.73413   0.00000  Uiso   1.00
O1216  O     0.87012   0.92286   0.71360   0.00000  Uiso   1.00
O1217  O     0.82118   0.79304   0.65458   0.00000  Uiso   1.00
O1218  O     0.79607   0.87058   0.84968   0.00000  Uiso   1.00
O1219  O     0.87491   0.84425   0.64606   0.00000  Uiso   1.00
O1220  O     0.84118   0.82546   0.84968   0.00000  Uiso   1.00
O1221  O     0.84597   0.74686   0.78213   0.00000  Uiso   1.00
O1222  O     0.81298   0.92751   0.77013   0.00000  Uiso   1.00
O1223  O     0.74078   0.79958   0.73413   0.00000  Uiso   1.00
O1224  O     0.93360   0.85939   0.71360   0.00000  Uiso   1.00
C1225  C     0.71975   0.82632   0.75916   0.00000  Uiso   1.00
C1226  C     0.94735   0.84023   0.74015   0.00000  Uiso   1.00
C1227  C     0.82245   0.72253   0.76053   0.00000  Uiso   1.00
C1228  C     0.84324   0.94450   0.73960   0.00000  Uiso   1.00
C1229  C     0.85222   0.81409   0.62938   0.00000  Uiso   1.00
C1230  C     0.81501   0.85093   0.87092   0.00000  Uiso   1.00
C1231  C     0.86685   0.75449   0.51646   0.00000  Uiso   1.00
H1232  H     0.83319   0.73125   0.94736   0.00000  Uiso   1.00
C1233  C     0.85854   0.80491   0.58120   0.00000  Uiso   1.00
C1234  C     0.80511   0.90219   0.93612   0.00000  Uiso   1.00
C1235  C     0.81029   0.91676   0.97901   0.00000  Uiso   1.00
C1236  C     0.82358   0.89043   0.50371   0.00000  Uiso   1.00
C1237  C     0.82716   0.84805   0.98891   0.00000  Uiso   1.00
C1238  C     0.81740   0.83248   0.94739   0.00000  Uiso   1.00
C1239  C     0.84101   0.82097   0.51367   0.00000  Uiso   1.00
C1240  C     0.84832   0.78021   0.99483   0.00000  Uiso   1.00
C1241  C     0.83318   0.76413   0.95709   0.00000  Uiso   1.00
C1242  C     0.81489   0.78909   0.93471   0.00000  Uiso   1.00
C1243  C     0.84639   0.83258   0.55726   0.00000  Uiso   1.00
C1244  C     0.86946   0.76595   0.56104   0.00000  Uiso   1.00
C1245  C     0.81012   0.86094   0.91950   0.00000  Uiso   1.00
H1246  H     0.83754   0.86142   0.57525   0.00000  Uiso   1.00
H1247  H     0.80014   0.92382   0.91442   0.00000  Uiso   1.00
H1248  H     0.83150   0.90462   0.53420   0.00000  Uiso   1.00
C1249  C     0.99275   0.84385   0.73830   0.00000  Uiso   1.00
H1250  H     0.68101   0.86682   0.71749   0.00000  Uiso   1.00
C1251  C     0.67463   0.82103   0.76298   0.00000  Uiso   1.00
C1252  C     0.84796   0.98925   0.73472   0.00000  Uiso   1.00
C1253  C     0.81989   0.67839   0.76297   0.00000  Uiso   1.00
H1254  H     0.79437   0.99754   0.78902   0.00000  Uiso   1.00
O1255  O     0.88524   0.74033   0.58397   0.00000  Uiso   1.00
C1256  C     0.85139   0.71220   0.60721   0.00000  Uiso   1.00
H1257  H     0.82068   0.71001   0.59692   0.00000  Uiso   1.00
H1258  H     0.84575   0.72093   0.64371   0.00000  Uiso   1.00
H1259  H     0.86118   0.68055   0.60143   0.00000  Uiso   1.00
N1260  N     0.98299   0.78608   0.78612   0.00000  Uiso   1.00
O1261  O     0.98687   0.78073   0.82586   0.00000  Uiso   1.00
O1262  O     0.96556   0.75495   0.76372   0.00000  Uiso   1.00
N1263  N     0.88212   0.67449   0.69986   0.00000  Uiso   1.00
O1264  O     0.89541   0.98640   0.66212   0.00000  Uiso   1.00
O1265  O     0.90256   0.71128   0.70687   0.00000  Uiso   1.00
N1266  N     0.88411   0.71789   0.99272   0.00000  Uiso   1.00
O1267  O     0.90638   0.71942   0.95143   0.00000  Uiso   1.00
O1268  O     0.88110   0.68423   0.51292   0.00000  Uiso   1.00
O1269  O     0.80873   0.95810   0.99560   0.00000  Uiso   1.00
C1270  C     0.77283   0.97324   0.98881   0.00000  Uiso   1.00
H1271  H     0.74338   0.95024   0.99645   0.00000  Uiso   1.00
H1272  H     0.77919   0.98286   0.95419   0.00000  Uiso   1.00
H1273  H     0.76694   0.66816   0.51188   0.00000  Uiso   1.00
O1274  O     0.79057   0.77297   0.90380   0.00000  Uiso   1.00
C1275  C     0.79548   0.73162   0.88652   0.00000  Uiso   1.00
H1276  H     0.77912   0.72410   0.85875   0.00000  Uiso   1.00
H1277  H     0.77959   0.70941   0.91236   0.00000  Uiso   1.00
H1278  H     0.82968   0.72779   0.87242   0.00000  Uiso   1.00
loop_
_geom_bond_atom_site_label_1
_geom_bond_atom_site_label_2
_geom_bond_distance
_geom_bond_site_symmetry_2
_ccdc_geom_bond_type
Zn1    O7      1.933   .     S
Zn1    O5      1.957   .     S
Zn1    O13     1.930   .     S
Zn1    O14     1.926   .     S
Zn2    O16     1.941   .     S
Zn2    O5      1.933   .     S
Zn2    O10     1.932   .     S
Zn2    O8      1.938   .     S
Zn3    O9      1.935   .     S
Zn3    O12     1.929   .     S
Zn3    O17     1.942   .     S
Zn3    O5      1.939   .     S
Zn4    O11     1.935   .     S
Zn4    O15     1.930   .     S
Zn4    O5      1.948   .     S
Zn4    O6      1.933   .     S
O6     C18     1.273   .     A
O7     C19     1.271   .     A
O8     C20     1.275   .     A
O9     C21     1.273   .     A
O10    C22     1.268   .     A
O11    C23     1.284   .     A
O12    C22     1.278   .     A
O13    C23     1.290   .     A
O14    C20     1.271   .     A
O15    C21     1.284   .     A
O16    C18     1.263   .     A
O17    C19     1.287   .     A
C18    C44     1.433   .     S
C19    C42     1.457   .     S
C20    C46     1.436   .     S
C21    C45     1.462   .     S
C22    C26     1.455   .     S
C23    C38     1.475   .     S
C24    C37     1.408   .     A
C24    C672    1.416   1_554 S
C24    N698    1.443   1_554 S
H25    C34     1.079   .     S
C26    C37     1.406   .     A
C26    C36     1.389   .     A
C27    H40     1.082   .     S
C27    C38     1.402   .     A
C27    C28     1.401   .     A
C28    O62     1.390   .     S
C28    C668    1.393   .     S
C29    H41     1.077   .     S
C29    C667    1.393   1_554 S
C29    C669    1.418   1_554 S
C30    C31     1.421   .     A
C30    C668    1.418   .     S
C30    C671    1.422   .     S
C31    C38     1.419   .     A
C31    C35     1.419   .     A
C32    C36     1.406   .     A
C32    C669    1.422   1_554 S
C32    C672    1.419   1_554 S
C33    C34     1.399   .     A
C33    C671    1.419   .     S
C33    C663    1.416   .     S
C34    C35     1.409   .     A
C35    O67     1.402   .     S
C36    H39     1.078   .     S
C37    O48     1.385   .     S
C42    H114    1.088   .     S
C42    C115    1.348   .     S
H43    C184    1.088   1_455 S
C44    C184    1.348   1_455 S
C44    N195    1.438   1_455 S
C45    C259    1.342   .     S
C45    N269    1.448   .     S
C46    C471    1.342   1_545 S
C46    H473    1.086   1_545 S
H47    C259    1.086   .     S
O48    C49     1.416   .     S
C49    H52     1.109   .     S
C49    H50     1.117   .     S
C49    H51     1.108   .     S
N53    O54     1.301   .     A
N53    O55     1.302   .     A
N53    C115    1.438   .     S
N56    O58     1.301   .     A
N56    C471    1.448   1_545 S
N56    O483    1.301   1_545 S
O57    N269    1.301   .     S
N59    O60     1.302   .     A
N59    C663    1.443   .     S
N59    O700    1.300   .     S
O61    N698    1.300   1_554 S
O62    C63     1.411   .     S
C63    H65     1.109   .     S
C63    H64     1.114   .     S
C63    H918    1.109   .     S
H66    C1128   1.109   1_544 S
O67    C68     1.410   .     S
C68    H71     1.113   .     S
C68    H70     1.110   .     S
C68    H69     1.109   .     S
Zn72   O78     1.933   .     S
Zn72   O76     1.957   .     S
Zn72   O84     1.930   .     S
Zn72   O85     1.926   .     S
Zn73   O87     1.941   .     S
Zn73   O76     1.933   .     S
Zn73   O81     1.932   .     S
Zn73   O79     1.938   .     S
Zn74   O80     1.935   .     S
Zn74   O83     1.929   .     S
Zn74   O88     1.942   .     S
Zn74   O76     1.939   .     S
Zn75   O82     1.935   .     S
Zn75   O86     1.930   .     S
Zn75   O76     1.948   .     S
Zn75   O77     1.933   .     S
O77    C89     1.273   .     A
O78    C90     1.271   .     A
O79    C91     1.275   .     A
O80    C92     1.273   .     A
O81    C93     1.268   .     A
O82    C94     1.284   .     A
O83    C93     1.278   .     A
O84    C94     1.290   .     A
O85    C91     1.271   .     A
O86    C92     1.284   .     A
O87    C89     1.263   .     A
O88    C90     1.287   .     A
C89    C115    1.433   .     S
C90    C113    1.457   .     S
C91    C117    1.436   .     S
C92    C116    1.462   .     S
C93    C97     1.455   .     S
C94    C109    1.475   .     S
C95    C108    1.408   .     A
C95    C743    1.416   1_554 S
C95    N769    1.443   1_554 S
H96    C105    1.079   .     S
C97    C108    1.406   .     A
C97    C107    1.389   .     A
C98    H111    1.082   .     S
C98    C109    1.402   .     A
C98    C99     1.401   .     A
C99    O133    1.390   .     S
C99    C739    1.393   .     S
C100   H112    1.077   .     S
C100   C738    1.393   1_554 S
C100   C740    1.418   1_554 S
C101   C102    1.421   .     A
C101   C739    1.418   .     S
C101   C742    1.422   .     S
C102   C109    1.419   .     A
C102   C106    1.419   .     A
C103   C107    1.406   .     A
C103   C740    1.422   1_554 S
C103   C743    1.419   1_554 S
C104   C105    1.399   .     A
C104   C742    1.419   .     S
C104   C734    1.416   .     S
C105   C106    1.409   .     A
C106   O138    1.402   .     S
C107   H110    1.078   .     S
C108   O119    1.385   .     S
C113   H185    1.088   .     S
C113   C186    1.348   .     S
C116   C330    1.342   .     S
C116   N340    1.448   .     S
C117   C542    1.342   1_545 S
C117   H544    1.086   1_545 S
H118   C330    1.086   .     S
O119   C120    1.416   .     S
C120   H123    1.109   .     S
C120   H121    1.117   .     S
C120   H122    1.108   .     S
N124   O125    1.301   .     A
N124   O126    1.302   .     A
N124   C186    1.438   .     S
N127   O129    1.301   .     A
N127   C542    1.448   1_545 S
N127   O554    1.301   1_545 S
O128   N340    1.301   .     S
N130   O131    1.302   .     A
N130   C734    1.443   .     S
N130   O771    1.300   .     S
O132   N769    1.300   1_554 S
O133   C134    1.411   .     S
C134   H136    1.109   .     S
C134   H135    1.114   .     S
C134   H989    1.109   .     S
H137   C1199   1.109   1_544 S
O138   C139    1.410   .     S
C139   H142    1.113   .     S
C139   H141    1.110   .     S
C139   H140    1.109   .     S
Zn143  O149    1.933   .     S
Zn143  O147    1.957   .     S
Zn143  O155    1.930   .     S
Zn143  O156    1.926   .     S
Zn144  O158    1.941   .     S
Zn144  O147    1.933   .     S
Zn144  O152    1.932   .     S
Zn144  O150    1.938   .     S
Zn145  O151    1.935   .     S
Zn145  O154    1.929   .     S
Zn145  O159    1.942   .     S
Zn145  O147    1.939   .     S
Zn146  O153    1.935   .     S
Zn146  O157    1.930   .     S
Zn146  O147    1.948   .     S
Zn146  O148    1.933   .     S
O148   C160    1.273   .     A
O149   C161    1.271   .     A
O150   C162    1.275   .     A
O151   C163    1.273   .     A
O152   C164    1.268   .     A
O153   C165    1.284   .     A
O154   C164    1.278   .     A
O155   C165    1.290   .     A
O156   C162    1.271   .     A
O157   C163    1.284   .     A
O158   C160    1.263   .     A
O159   C161    1.287   .     A
C160   C186    1.433   .     S
C161   C184    1.457   .     S
C162   C188    1.436   .     S
C163   C187    1.462   .     S
C164   C168    1.455   .     S
C165   C180    1.475   .     S
C166   C179    1.408   .     A
C166   C814    1.416   1_554 S
C166   N840    1.443   1_554 S
H167   C176    1.079   .     S
C168   C179    1.406   .     A
C168   C178    1.389   .     A
C169   H182    1.082   .     S
C169   C180    1.402   .     A
C169   C170    1.401   .     A
C170   O204    1.390   .     S
C170   C810    1.393   .     S
C171   H183    1.077   .     S
C171   C809    1.393   1_554 S
C171   C811    1.418   1_554 S
C172   C173    1.421   .     A
C172   C810    1.418   .     S
C172   C813    1.422   .     S
C173   C180    1.419   .     A
C173   C177    1.419   .     A
C174   C178    1.406   .     A
C174   C811    1.422   1_554 S
C174   C814    1.419   1_554 S
C175   C176    1.399   .     A
C175   C813    1.419   .     S
C175   C805    1.416   .     S
C176   C177    1.409   .     A
C177   O209    1.402   .     S
C178   H181    1.078   .     S
C179   O190    1.385   .     S
C184   H43     1.088   1_655 S
C184   C44     1.348   1_655 S
C187   C401    1.342   .     S
C187   N411    1.448   .     S
C188   C613    1.342   1_545 S
C188   H615    1.086   1_545 S
H189   C401    1.086   .     S
O190   C191    1.416   .     S
C191   H194    1.109   .     S
C191   H192    1.117   .     S
C191   H193    1.108   .     S
N195   O196    1.301   .     A
N195   O197    1.302   .     A
N195   C44     1.438   1_655 S
N198   O200    1.301   .     A
N198   C613    1.448   1_545 S
N198   O625    1.301   1_545 S
O199   N411    1.301   .     S
N201   O202    1.302   .     A
N201   C805    1.443   .     S
N201   O842    1.300   .     S
O203   N840    1.300   1_554 S
O204   C205    1.411   .     S
C205   H207    1.109   .     S
C205   H206    1.114   .     S
C205   H1060   1.109   .     S
H208   C1270   1.109   1_544 S
O209   C210    1.410   .     S
C210   H213    1.113   .     S
C210   H212    1.110   .     S
C210   H211    1.109   .     S
Zn214  O220    1.933   .     S
Zn214  O218    1.957   .     S
Zn214  O226    1.930   .     S
Zn214  O227    1.926   .     S
Zn215  O229    1.941   .     S
Zn215  O218    1.933   .     S
Zn215  O223    1.932   .     S
Zn215  O221    1.938   .     S
Zn216  O222    1.935   .     S
Zn216  O225    1.929   .     S
Zn216  O230    1.942   .     S
Zn216  O218    1.939   .     S
Zn217  O224    1.935   .     S
Zn217  O228    1.930   .     S
Zn217  O218    1.948   .     S
Zn217  O219    1.933   .     S
O219   C231    1.273   .     A
O220   C232    1.271   .     A
O221   C233    1.275   .     A
O222   C234    1.273   .     A
O223   C235    1.268   .     A
O224   C236    1.284   .     A
O225   C235    1.278   .     A
O226   C236    1.290   .     A
O227   C233    1.271   .     A
O228   C234    1.284   .     A
O229   C231    1.263   .     A
O230   C232    1.287   .     A
C231   C257    1.433   .     S
C232   C255    1.457   .     S
C233   C259    1.436   .     S
C234   C258    1.462   .     S
C235   C239    1.455   .     S
C236   C251    1.475   .     S
C237   C250    1.408   .     A
C237   C885    1.416   1_554 S
C237   N911    1.443   1_554 S
H238   C247    1.079   .     S
C239   C250    1.406   .     A
C239   C249    1.389   .     A
C240   H253    1.082   .     S
C240   C251    1.402   .     A
C240   C241    1.401   .     A
C241   O275    1.390   .     S
C241   C881    1.393   .     S
C242   H254    1.077   .     S
C242   C880    1.393   1_554 S
C242   C882    1.418   1_554 S
C243   C244    1.421   .     A
C243   C881    1.418   .     S
C243   C884    1.422   .     S
C244   C251    1.419   .     A
C244   C248    1.419   .     A
C245   C249    1.406   .     A
C245   C882    1.422   1_554 S
C245   C885    1.419   1_554 S
C246   C247    1.399   .     A
C246   C884    1.419   .     S
C246   C876    1.416   .     S
C247   C248    1.409   .     A
C248   O280    1.402   .     S
C249   H252    1.078   .     S
C250   O261    1.385   .     S
C255   H327    1.088   .     S
C255   C328    1.348   .     S
H256   C397    1.088   1_455 S
C257   C397    1.348   1_455 S
C257   N408    1.438   1_455 S
C258   C472    1.342   .     S
C258   N482    1.448   .     S
H260   C472    1.086   .     S
O261   C262    1.416   .     S
C262   H265    1.109   .     S
C262   H263    1.117   .     S
C262   H264    1.108   .     S
N266   O267    1.301   .     A
N266   O268    1.302   .     A
N266   C328    1.438   .     S
N269   O271    1.301   .     A
O270   N482    1.301   .     S
N272   O273    1.302   .     A
N272   C876    1.443   .     S
N272   O913    1.300   .     S
O274   N911    1.300   1_554 S
O275   C276    1.411   .     S
C276   H278    1.109   .     S
C276   H277    1.114   .     S
C276   H1131   1.109   .     S
H279   C702    1.109   1_554 S
O280   C281    1.410   .     S
C281   H284    1.113   .     S
C281   H283    1.110   .     S
C281   H282    1.109   .     S
Zn285  O291    1.933   .     S
Zn285  O289    1.957   .     S
Zn285  O297    1.930   .     S
Zn285  O298    1.926   .     S
Zn286  O300    1.941   .     S
Zn286  O289    1.933   .     S
Zn286  O294    1.932   .     S
Zn286  O292    1.938   .     S
Zn287  O293    1.935   .     S
Zn287  O296    1.929   .     S
Zn287  O301    1.942   .     S
Zn287  O289    1.939   .     S
Zn288  O295    1.935   .     S
Zn288  O299    1.930   .     S
Zn288  O289    1.948   .     S
Zn288  O290    1.933   .     S
O290   C302    1.273   .     A
O291   C303    1.271   .     A
O292   C304    1.275   .     A
O293   C305    1.273   .     A
O294   C306    1.268   .     A
O295   C307    1.284   .     A
O296   C306    1.278   .     A
O297   C307    1.290   .     A
O298   C304    1.271   .     A
O299   C305    1.284   .     A
O300   C302    1.263   .     A
O301   C303    1.287   .     A
C302   C328    1.433   .     S
C303   C326    1.457   .     S
C304   C330    1.436   .     S
C305   C329    1.462   .     S
C306   C310    1.455   .     S
C307   C322    1.475   .     S
C308   C321    1.408   .     A
C308   C956    1.416   1_554 S
C308   N982    1.443   1_554 S
H309   C318    1.079   .     S
C310   C321    1.406   .     A
C310   C320    1.389   .     A
C311   H324    1.082   .     S
C311   C322    1.402   .     A
C311   C312    1.401   .     A
C312   O346    1.390   .     S
C312   C952    1.393   .     S
C313   H325    1.077   .     S
C313   C951    1.393   1_554 S
C313   C953    1.418   1_554 S
C314   C315    1.421   .     A
C314   C952    1.418   .     S
C314   C955    1.422   .     S
C315   C322    1.419   .     A
C315   C319    1.419   .     A
C316   C320    1.406   .     A
C316   C953    1.422   1_554 S
C316   C956    1.419   1_554 S
C317   C318    1.399   .     A
C317   C955    1.419   .     S
C317   C947    1.416   .     S
C318   C319    1.409   .     A
C319   O351    1.402   .     S
C320   H323    1.078   .     S
C321   O332    1.385   .     S
C326   H398    1.088   .     S
C326   C399    1.348   .     S
C329   C543    1.342   .     S
C329   N553    1.448   .     S
H331   C543    1.086   .     S
O332   C333    1.416   .     S
C333   H336    1.109   .     S
C333   H334    1.117   .     S
C333   H335    1.108   .     S
N337   O338    1.301   .     A
N337   O339    1.302   .     A
N337   C399    1.438   .     S
N340   O342    1.301   .     A
O341   N553    1.301   .     S
N343   O344    1.302   .     A
N343   C947    1.443   .     S
N343   O984    1.300   .     S
O345   N982    1.300   1_554 S
O346   C347    1.411   .     S
C347   H349    1.109   .     S
C347   H348    1.114   .     S
C347   H1202   1.109   .     S
H350   C773    1.109   1_554 S
O351   C352    1.410   .     S
C352   H355    1.113   .     S
C352   H354    1.110   .     S
C352   H353    1.109   .     S
Zn356  O362    1.933   .     S
Zn356  O360    1.957   .     S
Zn356  O368    1.930   .     S
Zn356  O369    1.926   .     S
Zn357  O371    1.941   .     S
Zn357  O360    1.933   .     S
Zn357  O365    1.932   .     S
Zn357  O363    1.938   .     S
Zn358  O364    1.935   .     S
Zn358  O367    1.929   .     S
Zn358  O372    1.942   .     S
Zn358  O360    1.939   .     S
Zn359  O366    1.935   .     S
Zn359  O370    1.930   .     S
Zn359  O360    1.948   .     S
Zn359  O361    1.933   .     S
O361   C373    1.273   .     A
O362   C374    1.271   .     A
O363   C375    1.275   .     A
O364   C376    1.273   .     A
O365   C377    1.268   .     A
O366   C378    1.284   .     A
O367   C377    1.278   .     A
O368   C378    1.290   .     A
O369   C375    1.271   .     A
O370   C376    1.284   .     A
O371   C373    1.263   .     A
O372   C374    1.287   .     A
C373   C399    1.433   .     S
C374   C397    1.457   .     S
C375   C401    1.436   .     S
C376   C400    1.462   .     S
C377   C381    1.455   .     S
C378   C393    1.475   .     S
C379   C392    1.408   .     A
C379   C1027   1.416   1_554 S
C379   N1053   1.443   1_554 S
H380   C389    1.079   .     S
C381   C392    1.406   .     A
C381   C391    1.389   .     A
C382   H395    1.082   .     S
C382   C393    1.402   .     A
C382   C383    1.401   .     A
C383   O417    1.390   .     S
C383   C1023   1.393   .     S
C384   H396    1.077   .     S
C384   C1022   1.393   1_554 S
C384   C1024   1.418   1_554 S
C385   C386    1.421   .     A
C385   C1023   1.418   .     S
C385   C1026   1.422   .     S
C386   C393    1.419   .     A
C386   C390    1.419   .     A
C387   C391    1.406   .     A
C387   C1024   1.422   1_554 S
C387   C1027   1.419   1_554 S
C388   C389    1.399   .     A
C388   C1026   1.419   .     S
C388   C1018   1.416   .     S
C389   C390    1.409   .     A
C390   O422    1.402   .     S
C391   H394    1.078   .     S
C392   O403    1.385   .     S
C397   H256    1.088   1_655 S
C397   C257    1.348   1_655 S
C400   C614    1.342   .     S
C400   N624    1.448   .     S
H402   C614    1.086   .     S
O403   C404    1.416   .     S
C404   H407    1.109   .     S
C404   H405    1.117   .     S
C404   H406    1.108   .     S
N408   O409    1.301   .     A
N408   O410    1.302   .     A
N408   C257    1.438   1_655 S
N411   O413    1.301   .     A
O412   N624    1.301   .     S
N414   O415    1.302   .     A
N414   C1018   1.443   .     S
N414   O1055   1.300   .     S
O416   N1053   1.300   1_554 S
O417   C418    1.411   .     S
C418   H420    1.109   .     S
C418   H419    1.114   .     S
C418   H1273   1.109   .     S
H421   C844    1.109   1_554 S
O422   C423    1.410   .     S
C423   H426    1.113   .     S
C423   H425    1.110   .     S
C423   H424    1.109   .     S
Zn427  O433    1.933   .     S
Zn427  O431    1.957   .     S
Zn427  O439    1.930   .     S
Zn427  O440    1.926   .     S
Zn428  O442    1.941   .     S
Zn428  O431    1.933   .     S
Zn428  O436    1.932   .     S
Zn428  O434    1.938   .     S
Zn429  O435    1.935   .     S
Zn429  O438    1.929   .     S
Zn429  O443    1.942   .     S
Zn429  O431    1.939   .     S
Zn430  O437    1.935   .     S
Zn430  O441    1.930   .     S
Zn430  O431    1.948   .     S
Zn430  O432    1.933   .     S
O432   C444    1.273   .     A
O433   C445    1.271   .     A
O434   C446    1.275   .     A
O435   C447    1.273   .     A
O436   C448    1.268   .     A
O437   C449    1.284   .     A
O438   C448    1.278   .     A
O439   C449    1.290   .     A
O440   C446    1.271   .     A
O441   C447    1.284   .     A
O442   C444    1.263   .     A
O443   C445    1.287   .     A
C444   C470    1.433   .     S
C445   C468    1.457   .     S
C446   C472    1.436   .     S
C447   C471    1.462   .     S
C448   C452    1.455   .     S
C449   C464    1.475   .     S
C450   C463    1.408   .     A
C450   C1098   1.416   1_554 S
C450   N1124   1.443   1_554 S
H451   C460    1.079   .     S
C452   C463    1.406   .     A
C452   C462    1.389   .     A
C453   H466    1.082   .     S
C453   C464    1.402   .     A
C453   C454    1.401   .     A
C454   O488    1.390   .     S
C454   C1094   1.393   .     S
C455   H467    1.077   .     S
C455   C1093   1.393   1_554 S
C455   C1095   1.418   1_554 S
C456   C457    1.421   .     A
C456   C1094   1.418   .     S
C456   C1097   1.422   .     S
C457   C464    1.419   .     A
C457   C461    1.419   .     A
C458   C462    1.406   .     A
C458   C1095   1.422   1_554 S
C458   C1098   1.419   1_554 S
C459   C460    1.399   .     A
C459   C1097   1.419   .     S
C459   C1089   1.416   .     S
C460   C461    1.409   .     A
C461   O493    1.402   .     S
C462   H465    1.078   .     S
C463   O474    1.385   .     S
C468   H540    1.088   .     S
C468   C541    1.348   .     S
H469   C610    1.088   1_455 S
C470   C610    1.348   1_455 S
C470   N621    1.438   1_455 S
C471   C46     1.342   1_565 S
C471   N56     1.448   1_565 S
H473   C46     1.086   1_565 S
O474   C475    1.416   .     S
C475   H478    1.109   .     S
C475   H476    1.117   .     S
C475   H477    1.108   .     S
N479   O480    1.301   .     A
N479   O481    1.302   .     A
N479   C541    1.438   .     S
N482   O484    1.301   .     A
O483   N56     1.301   1_565 S
N485   O486    1.302   .     A
N485   C1089   1.443   .     S
N485   O1126   1.300   .     S
O487   N1124   1.300   1_554 S
O488   C489    1.411   .     S
C489   H491    1.109   .     S
C489   H490    1.114   .     S
C489   H705    1.109   1_565 S
H492   C915    1.109   1_554 S
O493   C494    1.410   .     S
C494   H497    1.113   .     S
C494   H496    1.110   .     S
C494   H495    1.109   .     S
Zn498  O504    1.933   .     S
Zn498  O502    1.957   .     S
Zn498  O510    1.930   .     S
Zn498  O511    1.926   .     S
Zn499  O513    1.941   .     S
Zn499  O502    1.933   .     S
Zn499  O507    1.932   .     S
Zn499  O505    1.938   .     S
Zn500  O506    1.935   .     S
Zn500  O509    1.929   .     S
Zn500  O514    1.942   .     S
Zn500  O502    1.939   .     S
Zn501  O508    1.935   .     S
Zn501  O512    1.930   .     S
Zn501  O502    1.948   .     S
Zn501  O503    1.933   .     S
O503   C515    1.273   .     A
O504   C516    1.271   .     A
O505   C517    1.275   .     A
O506   C518    1.273   .     A
O507   C519    1.268   .     A
O508   C520    1.284   .     A
O509   C519    1.278   .     A
O510   C520    1.290   .     A
O511   C517    1.271   .     A
O512   C518    1.284   .     A
O513   C515    1.263   .     A
O514   C516    1.287   .     A
C515   C541    1.433   .     S
C516   C539    1.457   .     S
C517   C543    1.436   .     S
C518   C542    1.462   .     S
C519   C523    1.455   .     S
C520   C535    1.475   .     S
C521   C534    1.408   .     A
C521   C1169   1.416   1_554 S
C521   N1195   1.443   1_554 S
H522   C531    1.079   .     S
C523   C534    1.406   .     A
C523   C533    1.389   .     A
C524   H537    1.082   .     S
C524   C535    1.402   .     A
C524   C525    1.401   .     A
C525   O559    1.390   .     S
C525   C1165   1.393   .     S
C526   H538    1.077   .     S
C526   C1164   1.393   1_554 S
C526   C1166   1.418   1_554 S
C527   C528    1.421   .     A
C527   C1165   1.418   .     S
C527   C1168   1.422   .     S
C528   C535    1.419   .     A
C528   C532    1.419   .     A
C529   C533    1.406   .     A
C529   C1166   1.422   1_554 S
C529   C1169   1.419   1_554 S
C530   C531    1.399   .     A
C530   C1168   1.419   .     S
C530   C1160   1.416   .     S
C531   C532    1.409   .     A
C532   O564    1.402   .     S
C533   H536    1.078   .     S
C534   O545    1.385   .     S
C539   H611    1.088   .     S
C539   C612    1.348   .     S
C542   C117    1.342   1_565 S
C542   N127    1.448   1_565 S
H544   C117    1.086   1_565 S
O545   C546    1.416   .     S
C546   H549    1.109   .     S
C546   H547    1.117   .     S
C546   H548    1.108   .     S
N550   O551    1.301   .     A
N550   O552    1.302   .     A
N550   C612    1.438   .     S
N553   O555    1.301   .     A
O554   N127    1.301   1_565 S
N556   O557    1.302   .     A
N556   C1160   1.443   .     S
N556   O1197   1.300   .     S
O558   N1195   1.300   1_554 S
O559   C560    1.411   .     S
C560   H562    1.109   .     S
C560   H561    1.114   .     S
C560   H776    1.109   1_565 S
H563   C986    1.109   1_554 S
O564   C565    1.410   .     S
C565   H568    1.113   .     S
C565   H567    1.110   .     S
C565   H566    1.109   .     S
Zn569  O575    1.933   .     S
Zn569  O573    1.957   .     S
Zn569  O581    1.930   .     S
Zn569  O582    1.926   .     S
Zn570  O584    1.941   .     S
Zn570  O573    1.933   .     S
Zn570  O578    1.932   .     S
Zn570  O576    1.938   .     S
Zn571  O577    1.935   .     S
Zn571  O580    1.929   .     S
Zn571  O585    1.942   .     S
Zn571  O573    1.939   .     S
Zn572  O579    1.935   .     S
Zn572  O583    1.930   .     S
Zn572  O573    1.948   .     S
Zn572  O574    1.933   .     S
O574   C586    1.273   .     A
O575   C587    1.271   .     A
O576   C588    1.275   .     A
O577   C589    1.273   .     A
O578   C590    1.268   .     A
O579   C591    1.284   .     A
O580   C590    1.278   .     A
O581   C591    1.290   .     A
O582   C588    1.271   .     A
O583   C589    1.284   .     A
O584   C586    1.263   .     A
O585   C587    1.287   .     A
C586   C612    1.433   .     S
C587   C610    1.457   .     S
C588   C614    1.436   .     S
C589   C613    1.462   .     S
C590   C594    1.455   .     S
C591   C606    1.475   .     S
C592   C605    1.408   .     A
C592   C1240   1.416   1_554 S
C592   N1266   1.443   1_554 S
H593   C602    1.079   .     S
C594   C605    1.406   .     A
C594   C604    1.389   .     A
C595   H608    1.082   .     S
C595   C606    1.402   .     A
C595   C596    1.401   .     A
C596   O630    1.390   .     S
C596   C1236   1.393   .     S
C597   H609    1.077   .     S
C597   C1235   1.393   1_554 S
C597   C1237   1.418   1_554 S
C598   C599    1.421   .     A
C598   C1236   1.418   .     S
C598   C1239   1.422   .     S
C599   C606    1.419   .     A
C599   C603    1.419   .     A
C600   C604    1.406   .     A
C600   C1237   1.422   1_554 S
C600   C1240   1.419   1_554 S
C601   C602    1.399   .     A
C601   C1239   1.419   .     S
C601   C1231   1.416   .     S
C602   C603    1.409   .     A
C603   O635    1.402   .     S
C604   H607    1.078   .     S
C605   O616    1.385   .     S
C610   H469    1.088   1_655 S
C610   C470    1.348   1_655 S
C613   C188    1.342   1_565 S
C613   N198    1.448   1_565 S
H615   C188    1.086   1_565 S
O616   C617    1.416   .     S
C617   H620    1.109   .     S
C617   H618    1.117   .     S
C617   H619    1.108   .     S
N621   O622    1.301   .     A
N621   O623    1.302   .     A
N621   C470    1.438   1_655 S
N624   O626    1.301   .     A
O625   N198    1.301   1_565 S
N627   O628    1.302   .     A
N627   C1231   1.443   .     S
N627   O1268   1.300   .     S
O629   N1266   1.300   1_554 S
O630   C631    1.411   .     S
C631   H633    1.109   .     S
C631   H632    1.114   .     S
C631   H847    1.109   1_565 S
H634   C1057   1.109   1_554 S
O635   C636    1.410   .     S
C636   H639    1.113   .     S
C636   H638    1.110   .     S
C636   H637    1.109   .     S
Zn640  O646    1.933   .     S
Zn640  O644    1.957   .     S
Zn640  O652    1.930   .     S
Zn640  O653    1.926   .     S
Zn641  O655    1.941   .     S
Zn641  O644    1.933   .     S
Zn641  O649    1.932   .     S
Zn641  O647    1.938   .     S
Zn642  O648    1.935   .     S
Zn642  O651    1.929   .     S
Zn642  O656    1.942   .     S
Zn642  O644    1.939   .     S
Zn643  O650    1.935   .     S
Zn643  O654    1.930   .     S
Zn643  O644    1.948   .     S
Zn643  O645    1.933   .     S
O645   C657    1.273   .     A
O646   C658    1.271   .     A
O647   C659    1.275   .     A
O648   C660    1.273   .     A
O649   C661    1.268   .     A
O650   C662    1.284   .     A
O651   C661    1.278   .     A
O652   C662    1.290   .     A
O653   C659    1.271   .     A
O654   C660    1.284   .     A
O655   C657    1.263   .     A
O656   C658    1.287   .     A
C657   C683    1.433   .     S
C658   C681    1.457   .     S
C659   C685    1.436   .     S
C660   C684    1.462   .     S
C661   C665    1.455   .     S
C662   C677    1.475   .     S
C663   C676    1.408   .     A
H664   C673    1.079   .     S
C665   C676    1.406   .     A
C665   C675    1.389   .     A
C666   H679    1.082   .     S
C666   C677    1.402   .     A
C666   C667    1.401   .     A
C667   O701    1.390   .     S
C667   C29     1.393   1_556 S
C668   H680    1.077   .     S
C669   C670    1.421   .     A
C669   C29     1.418   1_556 S
C669   C32     1.422   1_556 S
C670   C677    1.419   .     A
C670   C674    1.419   .     A
C671   C675    1.406   .     A
C672   C673    1.399   .     A
C672   C32     1.419   1_556 S
C672   C24     1.416   1_556 S
C673   C674    1.409   .     A
C674   O706    1.402   .     S
C675   H678    1.078   .     S
C676   O687    1.385   .     S
C681   H753    1.088   .     S
C681   C754    1.348   .     S
H682   C823    1.088   1_455 S
C683   C823    1.348   1_455 S
C683   N834    1.438   1_455 S
C684   C898    1.342   .     S
C684   N908    1.448   .     S
C685   C1110   1.342   1_545 S
C685   H1112   1.086   1_545 S
H686   C898    1.086   .     S
O687   C688    1.416   .     S
C688   H691    1.109   .     S
C688   H689    1.117   .     S
C688   H690    1.108   .     S
N692   O693    1.301   .     A
N692   O694    1.302   .     A
N692   C754    1.438   .     S
N695   O697    1.301   .     A
N695   C1110   1.448   1_545 S
N695   O1122   1.301   1_545 S
O696   N908    1.301   .     S
N698   O699    1.302   .     A
N698   C24     1.443   1_556 S
N698   O61     1.300   1_556 S
O701   C702    1.411   .     S
C702   H704    1.109   .     S
C702   H703    1.114   .     S
C702   H279    1.109   1_556 S
H705   C489    1.109   1_545 S
O706   C707    1.410   .     S
C707   H710    1.113   .     S
C707   H709    1.110   .     S
C707   H708    1.109   .     S
Zn711  O717    1.933   .     S
Zn711  O715    1.957   .     S
Zn711  O723    1.930   .     S
Zn711  O724    1.926   .     S
Zn712  O726    1.941   .     S
Zn712  O715    1.933   .     S
Zn712  O720    1.932   .     S
Zn712  O718    1.938   .     S
Zn713  O719    1.935   .     S
Zn713  O722    1.929   .     S
Zn713  O727    1.942   .     S
Zn713  O715    1.939   .     S
Zn714  O721    1.935   .     S
Zn714  O725    1.930   .     S
Zn714  O715    1.948   .     S
Zn714  O716    1.933   .     S
O716   C728    1.273   .     A
O717   C729    1.271   .     A
O718   C730    1.275   .     A
O719   C731    1.273   .     A
O720   C732    1.268   .     A
O721   C733    1.284   .     A
O722   C732    1.278   .     A
O723   C733    1.290   .     A
O724   C730    1.271   .     A
O725   C731    1.284   .     A
O726   C728    1.263   .     A
O727   C729    1.287   .     A
C728   C754    1.433   .     S
C729   C752    1.457   .     S
C730   C756    1.436   .     S
C731   C755    1.462   .     S
C732   C736    1.455   .     S
C733   C748    1.475   .     S
C734   C747    1.408   .     A
H735   C744    1.079   .     S
C736   C747    1.406   .     A
C736   C746    1.389   .     A
C737   H750    1.082   .     S
C737   C748    1.402   .     A
C737   C738    1.401   .     A
C738   O772    1.390   .     S
C738   C100    1.393   1_556 S
C739   H751    1.077   .     S
C740   C741    1.421   .     A
C740   C100    1.418   1_556 S
C740   C103    1.422   1_556 S
C741   C748    1.419   .     A
C741   C745    1.419   .     A
C742   C746    1.406   .     A
C743   C744    1.399   .     A
C743   C103    1.419   1_556 S
C743   C95     1.416   1_556 S
C744   C745    1.409   .     A
C745   O777    1.402   .     S
C746   H749    1.078   .     S
C747   O758    1.385   .     S
C752   H824    1.088   .     S
C752   C825    1.348   .     S
C755   C969    1.342   .     S
C755   N979    1.448   .     S
C756   C1181   1.342   1_545 S
C756   H1183   1.086   1_545 S
H757   C969    1.086   .     S
O758   C759    1.416   .     S
C759   H762    1.109   .     S
C759   H760    1.117   .     S
C759   H761    1.108   .     S
N763   O764    1.301   .     A
N763   O765    1.302   .     A
N763   C825    1.438   .     S
N766   O768    1.301   .     A
N766   C1181   1.448   1_545 S
N766   O1193   1.301   1_545 S
O767   N979    1.301   .     S
N769   O770    1.302   .     A
N769   C95     1.443   1_556 S
N769   O132    1.300   1_556 S
O772   C773    1.411   .     S
C773   H775    1.109   .     S
C773   H774    1.114   .     S
C773   H350    1.109   1_556 S
H776   C560    1.109   1_545 S
O777   C778    1.410   .     S
C778   H781    1.113   .     S
C778   H780    1.110   .     S
C778   H779    1.109   .     S
Zn782  O788    1.933   .     S
Zn782  O786    1.957   .     S
Zn782  O794    1.930   .     S
Zn782  O795    1.926   .     S
Zn783  O797    1.941   .     S
Zn783  O786    1.933   .     S
Zn783  O791    1.932   .     S
Zn783  O789    1.938   .     S
Zn784  O790    1.935   .     S
Zn784  O793    1.929   .     S
Zn784  O798    1.942   .     S
Zn784  O786    1.939   .     S
Zn785  O792    1.935   .     S
Zn785  O796    1.930   .     S
Zn785  O786    1.948   .     S
Zn785  O787    1.933   .     S
O787   C799    1.273   .     A
O788   C800    1.271   .     A
O789   C801    1.275   .     A
O790   C802    1.273   .     A
O791   C803    1.268   .     A
O792   C804    1.284   .     A
O793   C803    1.278   .     A
O794   C804    1.290   .     A
O795   C801    1.271   .     A
O796   C802    1.284   .     A
O797   C799    1.263   .     A
O798   C800    1.287   .     A
C799   C825    1.433   .     S
C800   C823    1.457   .     S
C801   C827    1.436   .     S
C802   C826    1.462   .     S
C803   C807    1.455   .     S
C804   C819    1.475   .     S
C805   C818    1.408   .     A
H806   C815    1.079   .     S
C807   C818    1.406   .     A
C807   C817    1.389   .     A
C808   H821    1.082   .     S
C808   C819    1.402   .     A
C808   C809    1.401   .     A
C809   O843    1.390   .     S
C809   C171    1.393   1_556 S
C810   H822    1.077   .     S
C811   C812    1.421   .     A
C811   C171    1.418   1_556 S
C811   C174    1.422   1_556 S
C812   C819    1.419   .     A
C812   C816    1.419   .     A
C813   C817    1.406   .     A
C814   C815    1.399   .     A
C814   C174    1.419   1_556 S
C814   C166    1.416   1_556 S
C815   C816    1.409   .     A
C816   O848    1.402   .     S
C817   H820    1.078   .     S
C818   O829    1.385   .     S
C823   H682    1.088   1_655 S
C823   C683    1.348   1_655 S
C826   C1040   1.342   .     S
C826   N1050   1.448   .     S
C827   C1252   1.342   1_545 S
C827   H1254   1.086   1_545 S
H828   C1040   1.086   .     S
O829   C830    1.416   .     S
C830   H833    1.109   .     S
C830   H831    1.117   .     S
C830   H832    1.108   .     S
N834   O835    1.301   .     A
N834   O836    1.302   .     A
N834   C683    1.438   1_655 S
N837   O839    1.301   .     A
N837   C1252   1.448   1_545 S
N837   O1264   1.301   1_545 S
O838   N1050   1.301   .     S
N840   O841    1.302   .     A
N840   C166    1.443   1_556 S
N840   O203    1.300   1_556 S
O843   C844    1.411   .     S
C844   H846    1.109   .     S
C844   H845    1.114   .     S
C844   H421    1.109   1_556 S
H847   C631    1.109   1_545 S
O848   C849    1.410   .     S
C849   H852    1.113   .     S
C849   H851    1.110   .     S
C849   H850    1.109   .     S
Zn853  O859    1.933   .     S
Zn853  O857    1.957   .     S
Zn853  O865    1.930   .     S
Zn853  O866    1.926   .     S
Zn854  O868    1.941   .     S
Zn854  O857    1.933   .     S
Zn854  O862    1.932   .     S
Zn854  O860    1.938   .     S
Zn855  O861    1.935   .     S
Zn855  O864    1.929   .     S
Zn855  O869    1.942   .     S
Zn855  O857    1.939   .     S
Zn856  O863    1.935   .     S
Zn856  O867    1.930   .     S
Zn856  O857    1.948   .     S
Zn856  O858    1.933   .     S
O858   C870    1.273   .     A
O859   C871    1.271   .     A
O860   C872    1.275   .     A
O861   C873    1.273   .     A
O862   C874    1.268   .     A
O863   C875    1.284   .     A
O864   C874    1.278   .     A
O865   C875    1.290   .     A
O866   C872    1.271   .     A
O867   C873    1.284   .     A
O868   C870    1.263   .     A
O869   C871    1.287   .     A
C870   C896    1.433   .     S
C871   C894    1.457   .     S
C872   C898    1.436   .     S
C873   C897    1.462   .     S
C874   C878    1.455   .     S
C875   C890    1.475   .     S
C876   C889    1.408   .     A
H877   C886    1.079   .     S
C878   C889    1.406   .     A
C878   C888    1.389   .     A
C879   H892    1.082   .     S
C879   C890    1.402   .     A
C879   C880    1.401   .     A
C880   O914    1.390   .     S
C880   C242    1.393   1_556 S
C881   H893    1.077   .     S
C882   C883    1.421   .     A
C882   C242    1.418   1_556 S
C882   C245    1.422   1_556 S
C883   C890    1.419   .     A
C883   C887    1.419   .     A
C884   C888    1.406   .     A
C885   C886    1.399   .     A
C885   C245    1.419   1_556 S
C885   C237    1.416   1_556 S
C886   C887    1.409   .     A
C887   O919    1.402   .     S
C888   H891    1.078   .     S
C889   O900    1.385   .     S
C894   H966    1.088   .     S
C894   C967    1.348   .     S
H895   C1036   1.088   1_455 S
C896   C1036   1.348   1_455 S
C896   N1047   1.438   1_455 S
C897   C1111   1.342   .     S
C897   N1121   1.448   .     S
H899   C1111   1.086   .     S
O900   C901    1.416   .     S
C901   H904    1.109   .     S
C901   H902    1.117   .     S
C901   H903    1.108   .     S
N905   O906    1.301   .     A
N905   O907    1.302   .     A
N905   C967    1.438   .     S
N908   O910    1.301   .     A
O909   N1121   1.301   .     S
N911   O912    1.302   .     A
N911   C237    1.443   1_556 S
N911   O274    1.300   1_556 S
O914   C915    1.411   .     S
C915   H917    1.109   .     S
C915   H916    1.114   .     S
C915   H492    1.109   1_556 S
O919   C920    1.410   .     S
C920   H923    1.113   .     S
C920   H922    1.110   .     S
C920   H921    1.109   .     S
Zn924  O930    1.933   .     S
Zn924  O928    1.957   .     S
Zn924  O936    1.930   .     S
Zn924  O937    1.926   .     S
Zn925  O939    1.941   .     S
Zn925  O928    1.933   .     S
Zn925  O933    1.932   .     S
Zn925  O931    1.938   .     S
Zn926  O932    1.935   .     S
Zn926  O935    1.929   .     S
Zn926  O940    1.942   .     S
Zn926  O928    1.939   .     S
Zn927  O934    1.935   .     S
Zn927  O938    1.930   .     S
Zn927  O928    1.948   .     S
Zn927  O929    1.933   .     S
O929   C941    1.273   .     A
O930   C942    1.271   .     A
O931   C943    1.275   .     A
O932   C944    1.273   .     A
O933   C945    1.268   .     A
O934   C946    1.284   .     A
O935   C945    1.278   .     A
O936   C946    1.290   .     A
O937   C943    1.271   .     A
O938   C944    1.284   .     A
O939   C941    1.263   .     A
O940   C942    1.287   .     A
C941   C967    1.433   .     S
C942   C965    1.457   .     S
C943   C969    1.436   .     S
C944   C968    1.462   .     S
C945   C949    1.455   .     S
C946   C961    1.475   .     S
C947   C960    1.408   .     A
H948   C957    1.079   .     S
C949   C960    1.406   .     A
C949   C959    1.389   .     A
C950   H963    1.082   .     S
C950   C961    1.402   .     A
C950   C951    1.401   .     A
C951   O985    1.390   .     S
C951   C313    1.393   1_556 S
C952   H964    1.077   .     S
C953   C954    1.421   .     A
C953   C313    1.418   1_556 S
C953   C316    1.422   1_556 S
C954   C961    1.419   .     A
C954   C958    1.419   .     A
C955   C959    1.406   .     A
C956   C957    1.399   .     A
C956   C316    1.419   1_556 S
C956   C308    1.416   1_556 S
C957   C958    1.409   .     A
C958   O990    1.402   .     S
C959   H962    1.078   .     S
C960   O971    1.385   .     S
C965   H1037   1.088   .     S
C965   C1038   1.348   .     S
C968   C1182   1.342   .     S
C968   N1192   1.448   .     S
H970   C1182   1.086   .     S
O971   C972    1.416   .     S
C972   H975    1.109   .     S
C972   H973    1.117   .     S
C972   H974    1.108   .     S
N976   O977    1.301   .     A
N976   O978    1.302   .     A
N976   C1038   1.438   .     S
N979   O981    1.301   .     A
O980   N1192   1.301   .     S
N982   O983    1.302   .     A
N982   C308    1.443   1_556 S
N982   O345    1.300   1_556 S
O985   C986    1.411   .     S
C986   H988    1.109   .     S
C986   H987    1.114   .     S
C986   H563    1.109   1_556 S
O990   C991    1.410   .     S
C991   H994    1.113   .     S
C991   H993    1.110   .     S
C991   H992    1.109   .     S
Zn995  O1001   1.933   .     S
Zn995  O999    1.957   .     S
Zn995  O1007   1.930   .     S
Zn995  O1008   1.926   .     S
Zn996  O1010   1.941   .     S
Zn996  O999    1.933   .     S
Zn996  O1004   1.932   .     S
Zn996  O1002   1.938   .     S
Zn997  O1003   1.935   .     S
Zn997  O1006   1.929   .     S
Zn997  O1011   1.942   .     S
Zn997  O999    1.939   .     S
Zn998  O1005   1.935   .     S
Zn998  O1009   1.930   .     S
Zn998  O999    1.948   .     S
Zn998  O1000   1.933   .     S
O1000  C1012   1.273   .     A
O1001  C1013   1.271   .     A
O1002  C1014   1.275   .     A
O1003  C1015   1.273   .     A
O1004  C1016   1.268   .     A
O1005  C1017   1.284   .     A
O1006  C1016   1.278   .     A
O1007  C1017   1.290   .     A
O1008  C1014   1.271   .     A
O1009  C1015   1.284   .     A
O1010  C1012   1.263   .     A
O1011  C1013   1.287   .     A
C1012  C1038   1.433   .     S
C1013  C1036   1.457   .     S
C1014  C1040   1.436   .     S
C1015  C1039   1.462   .     S
C1016  C1020   1.455   .     S
C1017  C1032   1.475   .     S
C1018  C1031   1.408   .     A
H1019  C1028   1.079   .     S
C1020  C1031   1.406   .     A
C1020  C1030   1.389   .     A
C1021  H1034   1.082   .     S
C1021  C1032   1.402   .     A
C1021  C1022   1.401   .     A
C1022  O1056   1.390   .     S
C1022  C384    1.393   1_556 S
C1023  H1035   1.077   .     S
C1024  C1025   1.421   .     A
C1024  C384    1.418   1_556 S
C1024  C387    1.422   1_556 S
C1025  C1032   1.419   .     A
C1025  C1029   1.419   .     A
C1026  C1030   1.406   .     A
C1027  C1028   1.399   .     A
C1027  C387    1.419   1_556 S
C1027  C379    1.416   1_556 S
C1028  C1029   1.409   .     A
C1029  O1061   1.402   .     S
C1030  H1033   1.078   .     S
C1031  O1042   1.385   .     S
C1036  H895    1.088   1_655 S
C1036  C896    1.348   1_655 S
C1039  C1253   1.342   .     S
C1039  N1263   1.448   .     S
H1041  C1253   1.086   .     S
O1042  C1043   1.416   .     S
C1043  H1046   1.109   .     S
C1043  H1044   1.117   .     S
C1043  H1045   1.108   .     S
N1047  O1048   1.301   .     A
N1047  O1049   1.302   .     A
N1047  C896    1.438   1_655 S
N1050  O1052   1.301   .     A
O1051  N1263   1.301   .     S
N1053  O1054   1.302   .     A
N1053  C379    1.443   1_556 S
N1053  O416    1.300   1_556 S
O1056  C1057   1.411   .     S
C1057  H1059   1.109   .     S
C1057  H1058   1.114   .     S
C1057  H634    1.109   1_556 S
O1061  C1062   1.410   .     S
C1062  H1065   1.113   .     S
C1062  H1064   1.110   .     S
C1062  H1063   1.109   .     S
Zn1066 O1072   1.933   .     S
Zn1066 O1070   1.957   .     S
Zn1066 O1078   1.930   .     S
Zn1066 O1079   1.926   .     S
Zn1067 O1081   1.941   .     S
Zn1067 O1070   1.933   .     S
Zn1067 O1075   1.932   .     S
Zn1067 O1073   1.938   .     S
Zn1068 O1074   1.935   .     S
Zn1068 O1077   1.929   .     S
Zn1068 O1082   1.942   .     S
Zn1068 O1070   1.939   .     S
Zn1069 O1076   1.935   .     S
Zn1069 O1080   1.930   .     S
Zn1069 O1070   1.948   .     S
Zn1069 O1071   1.933   .     S
O1071  C1083   1.273   .     A
O1072  C1084   1.271   .     A
O1073  C1085   1.275   .     A
O1074  C1086   1.273   .     A
O1075  C1087   1.268   .     A
O1076  C1088   1.284   .     A
O1077  C1087   1.278   .     A
O1078  C1088   1.290   .     A
O1079  C1085   1.271   .     A
O1080  C1086   1.284   .     A
O1081  C1083   1.263   .     A
O1082  C1084   1.287   .     A
C1083  C1109   1.433   .     S
C1084  C1107   1.457   .     S
C1085  C1111   1.436   .     S
C1086  C1110   1.462   .     S
C1087  C1091   1.455   .     S
C1088  C1103   1.475   .     S
C1089  C1102   1.408   .     A
H1090  C1099   1.079   .     S
C1091  C1102   1.406   .     A
C1091  C1101   1.389   .     A
C1092  H1105   1.082   .     S
C1092  C1103   1.402   .     A
C1092  C1093   1.401   .     A
C1093  O1127   1.390   .     S
C1093  C455    1.393   1_556 S
C1094  H1106   1.077   .     S
C1095  C1096   1.421   .     A
C1095  C455    1.418   1_556 S
C1095  C458    1.422   1_556 S
C1096  C1103   1.419   .     A
C1096  C1100   1.419   .     A
C1097  C1101   1.406   .     A
C1098  C1099   1.399   .     A
C1098  C458    1.419   1_556 S
C1098  C450    1.416   1_556 S
C1099  C1100   1.409   .     A
C1100  O1132   1.402   .     S
C1101  H1104   1.078   .     S
C1102  O1113   1.385   .     S
C1107  H1179   1.088   .     S
C1107  C1180   1.348   .     S
H1108  C1249   1.088   1_455 S
C1109  C1249   1.348   1_455 S
C1109  N1260   1.438   1_455 S
C1110  C685    1.342   1_565 S
C1110  N695    1.448   1_565 S
H1112  C685    1.086   1_565 S
O1113  C1114   1.416   .     S
C1114  H1117   1.109   .     S
C1114  H1115   1.117   .     S
C1114  H1116   1.108   .     S
N1118  O1119   1.301   .     A
N1118  O1120   1.302   .     A
N1118  C1180   1.438   .     S
N1121  O1123   1.301   .     A
O1122  N695    1.301   1_565 S
N1124  O1125   1.302   .     A
N1124  C450    1.443   1_556 S
N1124  O487    1.300   1_556 S
O1127  C1128   1.411   .     S
C1128  H1130   1.109   .     S
C1128  H1129   1.114   .     S
C1128  H66     1.109   1_566 S
O1132  C1133   1.410   .     S
C1133  H1136   1.113   .     S
C1133  H1135   1.110   .     S
C1133  H1134   1.109   .     S
Zn1137 O1143   1.933   .     S
Zn1137 O1141   1.957   .     S
Zn1137 O1149   1.930   .     S
Zn1137 O1150   1.926   .     S
Zn1138 O1152   1.941   .     S
Zn1138 O1141   1.933   .     S
Zn1138 O1146   1.932   .     S
Zn1138 O1144   1.938   .     S
Zn1139 O1145   1.935   .     S
Zn1139 O1148   1.929   .     S
Zn1139 O1153   1.942   .     S
Zn1139 O1141   1.939   .     S
Zn1140 O1147   1.935   .     S
Zn1140 O1151   1.930   .     S
Zn1140 O1141   1.948   .     S
Zn1140 O1142   1.933   .     S
O1142  C1154   1.273   .     A
O1143  C1155   1.271   .     A
O1144  C1156   1.275   .     A
O1145  C1157   1.273   .     A
O1146  C1158   1.268   .     A
O1147  C1159   1.284   .     A
O1148  C1158   1.278   .     A
O1149  C1159   1.290   .     A
O1150  C1156   1.271   .     A
O1151  C1157   1.284   .     A
O1152  C1154   1.263   .     A
O1153  C1155   1.287   .     A
C1154  C1180   1.433   .     S
C1155  C1178   1.457   .     S
C1156  C1182   1.436   .     S
C1157  C1181   1.462   .     S
C1158  C1162   1.455   .     S
C1159  C1174   1.475   .     S
C1160  C1173   1.408   .     A
H1161  C1170   1.079   .     S
C1162  C1173   1.406   .     A
C1162  C1172   1.389   .     A
C1163  H1176   1.082   .     S
C1163  C1174   1.402   .     A
C1163  C1164   1.401   .     A
C1164  O1198   1.390   .     S
C1164  C526    1.393   1_556 S
C1165  H1177   1.077   .     S
C1166  C1167   1.421   .     A
C1166  C526    1.418   1_556 S
C1166  C529    1.422   1_556 S
C1167  C1174   1.419   .     A
C1167  C1171   1.419   .     A
C1168  C1172   1.406   .     A
C1169  C1170   1.399   .     A
C1169  C529    1.419   1_556 S
C1169  C521    1.416   1_556 S
C1170  C1171   1.409   .     A
C1171  O1203   1.402   .     S
C1172  H1175   1.078   .     S
C1173  O1184   1.385   .     S
C1178  H1250   1.088   .     S
C1178  C1251   1.348   .     S
C1181  C756    1.342   1_565 S
C1181  N766    1.448   1_565 S
H1183  C756    1.086   1_565 S
O1184  C1185   1.416   .     S
C1185  H1188   1.109   .     S
C1185  H1186   1.117   .     S
C1185  H1187   1.108   .     S
N1189  O1190   1.301   .     A
N1189  O1191   1.302   .     A
N1189  C1251   1.438   .     S
N1192  O1194   1.301   .     A
O1193  N766    1.301   1_565 S
N1195  O1196   1.302   .     A
N1195  C521    1.443   1_556 S
N1195  O558    1.300   1_556 S
O1198  C1199   1.411   .     S
C1199  H1201   1.109   .     S
C1199  H1200   1.114   .     S
C1199  H137    1.109   1_566 S
O1203  C1204   1.410   .     S
C1204  H1207   1.113   .     S
C1204  H1206   1.110   .     S
C1204  H1205   1.109   .     S
Zn1208 O1214   1.933   .     S
Zn1208 O1212   1.957   .     S
Zn1208 O1220   1.930   .     S
Zn1208 O1221   1.926   .     S
Zn1209 O1223   1.941   .     S
Zn1209 O1212   1.933   .     S
Zn1209 O1217   1.932   .     S
Zn1209 O1215   1.938   .     S
Zn1210 O1216   1.935   .     S
Zn1210 O1219   1.929   .     S
Zn1210 O1224   1.942   .     S
Zn1210 O1212   1.939   .     S
Zn1211 O1218   1.935   .     S
Zn1211 O1222   1.930   .     S
Zn1211 O1212   1.948   .     S
Zn1211 O1213   1.933   .     S
O1213  C1225   1.273   .     A
O1214  C1226   1.271   .     A
O1215  C1227   1.275   .     A
O1216  C1228   1.273   .     A
O1217  C1229   1.268   .     A
O1218  C1230   1.284   .     A
O1219  C1229   1.278   .     A
O1220  C1230   1.290   .     A
O1221  C1227   1.271   .     A
O1222  C1228   1.284   .     A
O1223  C1225   1.263   .     A
O1224  C1226   1.287   .     A
C1225  C1251   1.433   .     S
C1226  C1249   1.457   .     S
C1227  C1253   1.436   .     S
C1228  C1252   1.462   .     S
C1229  C1233   1.455   .     S
C1230  C1245   1.475   .     S
C1231  C1244   1.408   .     A
H1232  C1241   1.079   .     S
C1233  C1244   1.406   .     A
C1233  C1243   1.389   .     A
C1234  H1247   1.082   .     S
C1234  C1245   1.402   .     A
C1234  C1235   1.401   .     A
C1235  O1269   1.390   .     S
C1235  C597    1.393   1_556 S
C1236  H1248   1.077   .     S
C1237  C1238   1.421   .     A
C1237  C597    1.418   1_556 S
C1237  C600    1.422   1_556 S
C1238  C1245   1.419   .     A
C1238  C1242   1.419   .     A
C1239  C1243   1.406   .     A
C1240  C1241   1.399   .     A
C1240  C600    1.419   1_556 S
C1240  C592    1.416   1_556 S
C1241  C1242   1.409   .     A
C1242  O1274   1.402   .     S
C1243  H1246   1.078   .     S
C1244  O1255   1.385   .     S
C1249  H1108   1.088   1_655 S
C1249  C1109   1.348   1_655 S
C1252  C827    1.342   1_565 S
C1252  N837    1.448   1_565 S
H1254  C827    1.086   1_565 S
O1255  C1256   1.416   .     S
C1256  H1259   1.109   .     S
C1256  H1257   1.117   .     S
C1256  H1258   1.108   .     S
N1260  O1261   1.301   .     A
N1260  O1262   1.302   .     A
N1260  C1109   1.438   1_655 S
N1263  O1265   1.301   .     A
O1264  N837    1.301   1_565 S
N1266  O1267   1.302   .     A
N1266  C592    1.443   1_556 S
N1266  O629    1.300   1_556 S
O1269  C1270   1.411   .     S
C1270  H1272   1.109   .     S
C1270  H1271   1.114   .     S
C1270  H208    1.109   1_566 S
O1274  C1275   1.410   .     S
C1275  H1278   1.113   .     S
C1275  H1277   1.110   .     S
C1275  H1276   1.109   .     S
