data_str_m2_o1_o10_pcu_sym.215
_audit_creation_date              2020-01-03
_audit_creation_method            'Materials Studio'
_symmetry_space_group_name_H-M    'P1'
_symmetry_Int_Tables_number       1
_symmetry_cell_setting            triclinic
loop_
_symmetry_equiv_pos_as_xyz
  x,y,z
_cell_length_a                    26.3031
_cell_length_b                    32.4823
_cell_length_c                    28.6776
_cell_angle_alpha                 89.5814
_cell_angle_beta                  97.1216
_cell_angle_gamma                 91.1230
loop_
_atom_site_label
_atom_site_type_symbol
_atom_site_fract_x
_atom_site_fract_y
_atom_site_fract_z
_atom_site_U_iso_or_equiv
_atom_site_adp_type
_atom_site_occupancy
C1     C     0.16666   0.08740   0.16675   0.00000  Uiso   1.00
C2     C     0.16667   0.24593   0.16658   0.00000  Uiso   1.00
C3     C     0.06819   0.16572   0.15497   0.00000  Uiso   1.00
C4     C     0.26515   0.16761   0.17836   0.00000  Uiso   1.00
C5     C     0.01360   0.15886   0.15022   0.00000  Uiso   1.00
C6     C     0.31973   0.17447   0.18311   0.00000  Uiso   1.00
C7     C     0.16561   0.02158   0.12424   0.00000  Uiso   1.00
C8     C     0.16773   0.31176   0.20910   0.00000  Uiso   1.00
C9     C     0.16556   0.31233   0.12412   0.00000  Uiso   1.00
C10    C     0.16778   0.02101   0.20921   0.00000  Uiso   1.00
C11    C     0.16665   0.29057   0.16655   0.00000  Uiso   1.00
C12    C     0.16669   0.04276   0.16678   0.00000  Uiso   1.00
C13    C     0.13412   0.14139   0.02170   0.00000  Uiso   1.00
C14    C     0.19921   0.19195   0.31163   0.00000  Uiso   1.00
C15    C     0.13392   0.14122   0.30569   0.00000  Uiso   1.00
C16    C     0.19941   0.19211   0.02764   0.00000  Uiso   1.00
Cu17   Cu    0.16667   0.16667   0.21355   0.00000  Uiso   1.00
Cu18   Cu    0.16667   0.16666   0.11978   0.00000  Uiso   1.00
H19    H     0.16474   0.03781   0.09102   0.00000  Uiso   1.00
H20    H     0.16860   0.29553   0.24231   0.00000  Uiso   1.00
H21    H     0.16459   0.29655   0.09087   0.00000  Uiso   1.00
H22    H     0.16874   0.03678   0.24246   0.00000  Uiso   1.00
H23    H     0.10819   0.12113   0.03791   0.00000  Uiso   1.00
H24    H     0.22514   0.21220   0.29542   0.00000  Uiso   1.00
N25    N     0.16668   0.16668   0.28403   0.00000  Uiso   1.00
N26    N     0.16665   0.16666   0.04931   0.00000  Uiso   1.00
O27    O     0.16666   0.10655   0.20625   0.00000  Uiso   1.00
O28    O     0.16667   0.22678   0.12709   0.00000  Uiso   1.00
O29    O     0.16666   0.10654   0.12706   0.00000  Uiso   1.00
O30    O     0.16667   0.22679   0.20628   0.00000  Uiso   1.00
O31    O     0.09161   0.16667   0.19712   0.00000  Uiso   1.00
O32    O     0.24172   0.16666   0.13621   0.00000  Uiso   1.00
O33    O     0.09161   0.16666   0.11793   0.00000  Uiso   1.00
O34    O     0.24172   0.16667   0.21540   0.00000  Uiso   1.00
C35    C     0.32573   0.12770   0.11453   0.00000  Uiso   1.00
O36    O     0.00366   0.12977   0.07445   0.00000  Uiso   1.00
O37    O     0.29414   0.09542   0.12727   0.00000  Uiso   1.00
H38    H     0.28222   0.07638   0.10008   0.00000  Uiso   1.00
C39    C     0.00760   0.20564   0.21880   0.00000  Uiso   1.00
O40    O     0.32967   0.20357   0.25888   0.00000  Uiso   1.00
O41    O     0.03919   0.23791   0.20606   0.00000  Uiso   1.00
H42    H     0.05112   0.25695   0.23326   0.00000  Uiso   1.00
Br43   Br    0.08619   0.10376   0.27161   0.00000  Uiso   1.00
Br44   Br    0.24714   0.22957   0.06172   0.00000  Uiso   1.00
C45    C     0.49999   0.08740   0.16675   0.00000  Uiso   1.00
C46    C     0.50001   0.24593   0.16658   0.00000  Uiso   1.00
C47    C     0.40152   0.16572   0.15497   0.00000  Uiso   1.00
C48    C     0.59848   0.16761   0.17836   0.00000  Uiso   1.00
C49    C     0.34694   0.15886   0.15022   0.00000  Uiso   1.00
C50    C     0.65306   0.17447   0.18311   0.00000  Uiso   1.00
C51    C     0.49894   0.02158   0.12424   0.00000  Uiso   1.00
C52    C     0.50106   0.31176   0.20910   0.00000  Uiso   1.00
C53    C     0.49889   0.31233   0.12412   0.00000  Uiso   1.00
C54    C     0.50111   0.02101   0.20921   0.00000  Uiso   1.00
C55    C     0.49998   0.29057   0.16655   0.00000  Uiso   1.00
C56    C     0.50002   0.04276   0.16678   0.00000  Uiso   1.00
C57    C     0.46746   0.14139   0.02170   0.00000  Uiso   1.00
C58    C     0.53254   0.19195   0.31163   0.00000  Uiso   1.00
C59    C     0.46725   0.14122   0.30569   0.00000  Uiso   1.00
C60    C     0.53275   0.19211   0.02764   0.00000  Uiso   1.00
Cu61   Cu    0.50000   0.16667   0.21355   0.00000  Uiso   1.00
Cu62   Cu    0.50000   0.16666   0.11978   0.00000  Uiso   1.00
H63    H     0.49807   0.03781   0.09102   0.00000  Uiso   1.00
H64    H     0.50193   0.29553   0.24231   0.00000  Uiso   1.00
H65    H     0.49792   0.29655   0.09087   0.00000  Uiso   1.00
H66    H     0.50208   0.03678   0.24246   0.00000  Uiso   1.00
H67    H     0.44152   0.12113   0.03791   0.00000  Uiso   1.00
H68    H     0.55848   0.21220   0.29542   0.00000  Uiso   1.00
N69    N     0.50001   0.16668   0.28403   0.00000  Uiso   1.00
N70    N     0.49999   0.16666   0.04931   0.00000  Uiso   1.00
O71    O     0.50000   0.10655   0.20625   0.00000  Uiso   1.00
O72    O     0.50000   0.22678   0.12709   0.00000  Uiso   1.00
O73    O     0.50000   0.10654   0.12706   0.00000  Uiso   1.00
O74    O     0.50000   0.22679   0.20628   0.00000  Uiso   1.00
O75    O     0.42495   0.16667   0.19712   0.00000  Uiso   1.00
O76    O     0.57505   0.16666   0.13621   0.00000  Uiso   1.00
O77    O     0.42494   0.16666   0.11793   0.00000  Uiso   1.00
O78    O     0.57506   0.16667   0.21540   0.00000  Uiso   1.00
C79    C     0.65907   0.12770   0.11453   0.00000  Uiso   1.00
O80    O     0.33700   0.12977   0.07445   0.00000  Uiso   1.00
O81    O     0.62748   0.09542   0.12727   0.00000  Uiso   1.00
H82    H     0.61555   0.07638   0.10008   0.00000  Uiso   1.00
C83    C     0.34093   0.20564   0.21880   0.00000  Uiso   1.00
O84    O     0.66300   0.20357   0.25888   0.00000  Uiso   1.00
O85    O     0.37253   0.23791   0.20606   0.00000  Uiso   1.00
H86    H     0.38445   0.25695   0.23326   0.00000  Uiso   1.00
Br87   Br    0.41953   0.10376   0.27161   0.00000  Uiso   1.00
Br88   Br    0.58047   0.22957   0.06172   0.00000  Uiso   1.00
C89    C     0.83333   0.08740   0.16675   0.00000  Uiso   1.00
C90    C     0.83334   0.24593   0.16658   0.00000  Uiso   1.00
C91    C     0.73485   0.16572   0.15497   0.00000  Uiso   1.00
C92    C     0.93181   0.16761   0.17836   0.00000  Uiso   1.00
C93    C     0.68027   0.15886   0.15022   0.00000  Uiso   1.00
C94    C     0.98640   0.17447   0.18311   0.00000  Uiso   1.00
C95    C     0.83227   0.02158   0.12424   0.00000  Uiso   1.00
C96    C     0.83439   0.31176   0.20910   0.00000  Uiso   1.00
C97    C     0.83222   0.31233   0.12412   0.00000  Uiso   1.00
C98    C     0.83444   0.02101   0.20921   0.00000  Uiso   1.00
C99    C     0.83331   0.29057   0.16655   0.00000  Uiso   1.00
C100   C     0.83335   0.04276   0.16678   0.00000  Uiso   1.00
C101   C     0.80079   0.14139   0.02170   0.00000  Uiso   1.00
C102   C     0.86588   0.19195   0.31163   0.00000  Uiso   1.00
C103   C     0.80059   0.14122   0.30569   0.00000  Uiso   1.00
C104   C     0.86608   0.19211   0.02764   0.00000  Uiso   1.00
Cu105  Cu    0.83333   0.16667   0.21355   0.00000  Uiso   1.00
Cu106  Cu    0.83333   0.16666   0.11978   0.00000  Uiso   1.00
H107   H     0.83140   0.03781   0.09102   0.00000  Uiso   1.00
H108   H     0.83526   0.29553   0.24231   0.00000  Uiso   1.00
H109   H     0.83126   0.29655   0.09087   0.00000  Uiso   1.00
H110   H     0.83541   0.03678   0.24246   0.00000  Uiso   1.00
H111   H     0.77486   0.12113   0.03791   0.00000  Uiso   1.00
H112   H     0.89181   0.21220   0.29542   0.00000  Uiso   1.00
N113   N     0.83335   0.16668   0.28403   0.00000  Uiso   1.00
N114   N     0.83332   0.16666   0.04931   0.00000  Uiso   1.00
O115   O     0.83333   0.10655   0.20625   0.00000  Uiso   1.00
O116   O     0.83334   0.22678   0.12709   0.00000  Uiso   1.00
O117   O     0.83333   0.10654   0.12706   0.00000  Uiso   1.00
O118   O     0.83334   0.22679   0.20628   0.00000  Uiso   1.00
O119   O     0.75828   0.16667   0.19712   0.00000  Uiso   1.00
O120   O     0.90839   0.16666   0.13621   0.00000  Uiso   1.00
O121   O     0.75828   0.16666   0.11793   0.00000  Uiso   1.00
O122   O     0.90839   0.16667   0.21540   0.00000  Uiso   1.00
C123   C     0.99240   0.12770   0.11453   0.00000  Uiso   1.00
O124   O     0.67033   0.12977   0.07445   0.00000  Uiso   1.00
O125   O     0.96081   0.09542   0.12727   0.00000  Uiso   1.00
H126   H     0.94888   0.07638   0.10008   0.00000  Uiso   1.00
C127   C     0.67427   0.20564   0.21880   0.00000  Uiso   1.00
O128   O     0.99634   0.20357   0.25888   0.00000  Uiso   1.00
O129   O     0.70586   0.23791   0.20606   0.00000  Uiso   1.00
H130   H     0.71778   0.25695   0.23326   0.00000  Uiso   1.00
Br131  Br    0.75286   0.10376   0.27161   0.00000  Uiso   1.00
Br132  Br    0.91381   0.22957   0.06172   0.00000  Uiso   1.00
C133   C     0.16666   0.42073   0.16675   0.00000  Uiso   1.00
C134   C     0.16667   0.57927   0.16658   0.00000  Uiso   1.00
C135   C     0.06819   0.49906   0.15497   0.00000  Uiso   1.00
C136   C     0.26515   0.50094   0.17836   0.00000  Uiso   1.00
C137   C     0.01360   0.49220   0.15022   0.00000  Uiso   1.00
C138   C     0.31973   0.50780   0.18311   0.00000  Uiso   1.00
C139   C     0.16561   0.35491   0.12424   0.00000  Uiso   1.00
C140   C     0.16773   0.64509   0.20910   0.00000  Uiso   1.00
C141   C     0.16556   0.64566   0.12412   0.00000  Uiso   1.00
C142   C     0.16778   0.35434   0.20921   0.00000  Uiso   1.00
C143   C     0.16665   0.62390   0.16655   0.00000  Uiso   1.00
C144   C     0.16669   0.37610   0.16678   0.00000  Uiso   1.00
C145   C     0.13412   0.47472   0.02170   0.00000  Uiso   1.00
C146   C     0.19921   0.52528   0.31163   0.00000  Uiso   1.00
C147   C     0.13392   0.47456   0.30569   0.00000  Uiso   1.00
C148   C     0.19941   0.52544   0.02764   0.00000  Uiso   1.00
Cu149  Cu    0.16667   0.50001   0.21355   0.00000  Uiso   1.00
Cu150  Cu    0.16667   0.49999   0.11978   0.00000  Uiso   1.00
H151   H     0.16474   0.37114   0.09102   0.00000  Uiso   1.00
H152   H     0.16860   0.62886   0.24231   0.00000  Uiso   1.00
H153   H     0.16459   0.62989   0.09087   0.00000  Uiso   1.00
H154   H     0.16874   0.37012   0.24246   0.00000  Uiso   1.00
H155   H     0.10819   0.45446   0.03791   0.00000  Uiso   1.00
H156   H     0.22514   0.54554   0.29542   0.00000  Uiso   1.00
N157   N     0.16668   0.50001   0.28403   0.00000  Uiso   1.00
N158   N     0.16665   0.49999   0.04931   0.00000  Uiso   1.00
O159   O     0.16666   0.43989   0.20625   0.00000  Uiso   1.00
O160   O     0.16667   0.56011   0.12709   0.00000  Uiso   1.00
O161   O     0.16666   0.43988   0.12706   0.00000  Uiso   1.00
O162   O     0.16667   0.56012   0.20628   0.00000  Uiso   1.00
O163   O     0.09161   0.50000   0.19712   0.00000  Uiso   1.00
O164   O     0.24172   0.50000   0.13621   0.00000  Uiso   1.00
O165   O     0.09161   0.49999   0.11793   0.00000  Uiso   1.00
O166   O     0.24172   0.50001   0.21540   0.00000  Uiso   1.00
C167   C     0.32573   0.46103   0.11453   0.00000  Uiso   1.00
O168   O     0.00366   0.46310   0.07445   0.00000  Uiso   1.00
O169   O     0.29414   0.42876   0.12727   0.00000  Uiso   1.00
H170   H     0.28222   0.40972   0.10008   0.00000  Uiso   1.00
C171   C     0.00760   0.53897   0.21880   0.00000  Uiso   1.00
O172   O     0.32967   0.53690   0.25888   0.00000  Uiso   1.00
O173   O     0.03919   0.57124   0.20606   0.00000  Uiso   1.00
H174   H     0.05112   0.59028   0.23326   0.00000  Uiso   1.00
Br175  Br    0.08619   0.43710   0.27161   0.00000  Uiso   1.00
Br176  Br    0.24714   0.56290   0.06172   0.00000  Uiso   1.00
C177   C     0.49999   0.42073   0.16675   0.00000  Uiso   1.00
C178   C     0.50001   0.57927   0.16658   0.00000  Uiso   1.00
C179   C     0.40152   0.49906   0.15497   0.00000  Uiso   1.00
C180   C     0.59848   0.50094   0.17836   0.00000  Uiso   1.00
C181   C     0.34694   0.49220   0.15022   0.00000  Uiso   1.00
C182   C     0.65306   0.50780   0.18311   0.00000  Uiso   1.00
C183   C     0.49894   0.35491   0.12424   0.00000  Uiso   1.00
C184   C     0.50106   0.64509   0.20910   0.00000  Uiso   1.00
C185   C     0.49889   0.64566   0.12412   0.00000  Uiso   1.00
C186   C     0.50111   0.35434   0.20921   0.00000  Uiso   1.00
C187   C     0.49998   0.62390   0.16655   0.00000  Uiso   1.00
C188   C     0.50002   0.37610   0.16678   0.00000  Uiso   1.00
C189   C     0.46746   0.47472   0.02170   0.00000  Uiso   1.00
C190   C     0.53254   0.52528   0.31163   0.00000  Uiso   1.00
C191   C     0.46725   0.47456   0.30569   0.00000  Uiso   1.00
C192   C     0.53275   0.52544   0.02764   0.00000  Uiso   1.00
Cu193  Cu    0.50000   0.50001   0.21355   0.00000  Uiso   1.00
Cu194  Cu    0.50000   0.49999   0.11978   0.00000  Uiso   1.00
H195   H     0.49807   0.37114   0.09102   0.00000  Uiso   1.00
H196   H     0.50193   0.62886   0.24231   0.00000  Uiso   1.00
H197   H     0.49792   0.62989   0.09087   0.00000  Uiso   1.00
H198   H     0.50208   0.37012   0.24246   0.00000  Uiso   1.00
H199   H     0.44152   0.45446   0.03791   0.00000  Uiso   1.00
H200   H     0.55848   0.54554   0.29542   0.00000  Uiso   1.00
N201   N     0.50001   0.50001   0.28403   0.00000  Uiso   1.00
N202   N     0.49999   0.49999   0.04931   0.00000  Uiso   1.00
O203   O     0.50000   0.43989   0.20625   0.00000  Uiso   1.00
O204   O     0.50000   0.56011   0.12709   0.00000  Uiso   1.00
O205   O     0.50000   0.43988   0.12706   0.00000  Uiso   1.00
O206   O     0.50000   0.56012   0.20628   0.00000  Uiso   1.00
O207   O     0.42495   0.50000   0.19712   0.00000  Uiso   1.00
O208   O     0.57505   0.50000   0.13621   0.00000  Uiso   1.00
O209   O     0.42494   0.49999   0.11793   0.00000  Uiso   1.00
O210   O     0.57506   0.50001   0.21540   0.00000  Uiso   1.00
C211   C     0.65907   0.46103   0.11453   0.00000  Uiso   1.00
O212   O     0.33700   0.46310   0.07445   0.00000  Uiso   1.00
O213   O     0.62748   0.42876   0.12727   0.00000  Uiso   1.00
H214   H     0.61555   0.40972   0.10008   0.00000  Uiso   1.00
C215   C     0.34093   0.53897   0.21880   0.00000  Uiso   1.00
O216   O     0.66300   0.53690   0.25888   0.00000  Uiso   1.00
O217   O     0.37253   0.57124   0.20606   0.00000  Uiso   1.00
H218   H     0.38445   0.59028   0.23326   0.00000  Uiso   1.00
Br219  Br    0.41953   0.43710   0.27161   0.00000  Uiso   1.00
Br220  Br    0.58047   0.56290   0.06172   0.00000  Uiso   1.00
C221   C     0.83333   0.42073   0.16675   0.00000  Uiso   1.00
C222   C     0.83334   0.57927   0.16658   0.00000  Uiso   1.00
C223   C     0.73485   0.49906   0.15497   0.00000  Uiso   1.00
C224   C     0.93181   0.50094   0.17836   0.00000  Uiso   1.00
C225   C     0.68027   0.49220   0.15022   0.00000  Uiso   1.00
C226   C     0.98640   0.50780   0.18311   0.00000  Uiso   1.00
C227   C     0.83227   0.35491   0.12424   0.00000  Uiso   1.00
C228   C     0.83439   0.64509   0.20910   0.00000  Uiso   1.00
C229   C     0.83222   0.64566   0.12412   0.00000  Uiso   1.00
C230   C     0.83444   0.35434   0.20921   0.00000  Uiso   1.00
C231   C     0.83331   0.62390   0.16655   0.00000  Uiso   1.00
C232   C     0.83335   0.37610   0.16678   0.00000  Uiso   1.00
C233   C     0.80079   0.47472   0.02170   0.00000  Uiso   1.00
C234   C     0.86588   0.52528   0.31163   0.00000  Uiso   1.00
C235   C     0.80059   0.47456   0.30569   0.00000  Uiso   1.00
C236   C     0.86608   0.52544   0.02764   0.00000  Uiso   1.00
Cu237  Cu    0.83333   0.50001   0.21355   0.00000  Uiso   1.00
Cu238  Cu    0.83333   0.49999   0.11978   0.00000  Uiso   1.00
H239   H     0.83140   0.37114   0.09102   0.00000  Uiso   1.00
H240   H     0.83526   0.62886   0.24231   0.00000  Uiso   1.00
H241   H     0.83126   0.62989   0.09087   0.00000  Uiso   1.00
H242   H     0.83541   0.37012   0.24246   0.00000  Uiso   1.00
H243   H     0.77486   0.45446   0.03791   0.00000  Uiso   1.00
H244   H     0.89181   0.54554   0.29542   0.00000  Uiso   1.00
N245   N     0.83335   0.50001   0.28403   0.00000  Uiso   1.00
N246   N     0.83332   0.49999   0.04931   0.00000  Uiso   1.00
O247   O     0.83333   0.43989   0.20625   0.00000  Uiso   1.00
O248   O     0.83334   0.56011   0.12709   0.00000  Uiso   1.00
O249   O     0.83333   0.43988   0.12706   0.00000  Uiso   1.00
O250   O     0.83334   0.56012   0.20628   0.00000  Uiso   1.00
O251   O     0.75828   0.50000   0.19712   0.00000  Uiso   1.00
O252   O     0.90839   0.50000   0.13621   0.00000  Uiso   1.00
O253   O     0.75828   0.49999   0.11793   0.00000  Uiso   1.00
O254   O     0.90839   0.50001   0.21540   0.00000  Uiso   1.00
C255   C     0.99240   0.46103   0.11453   0.00000  Uiso   1.00
O256   O     0.67033   0.46310   0.07445   0.00000  Uiso   1.00
O257   O     0.96081   0.42876   0.12727   0.00000  Uiso   1.00
H258   H     0.94888   0.40972   0.10008   0.00000  Uiso   1.00
C259   C     0.67427   0.53897   0.21880   0.00000  Uiso   1.00
O260   O     0.99634   0.53690   0.25888   0.00000  Uiso   1.00
O261   O     0.70586   0.57124   0.20606   0.00000  Uiso   1.00
H262   H     0.71778   0.59028   0.23326   0.00000  Uiso   1.00
Br263  Br    0.75286   0.43710   0.27161   0.00000  Uiso   1.00
Br264  Br    0.91381   0.56290   0.06172   0.00000  Uiso   1.00
C265   C     0.16666   0.75407   0.16675   0.00000  Uiso   1.00
C266   C     0.16667   0.91260   0.16658   0.00000  Uiso   1.00
C267   C     0.06819   0.83239   0.15497   0.00000  Uiso   1.00
C268   C     0.26515   0.83428   0.17836   0.00000  Uiso   1.00
C269   C     0.01360   0.82553   0.15022   0.00000  Uiso   1.00
C270   C     0.31973   0.84114   0.18311   0.00000  Uiso   1.00
C271   C     0.16561   0.68824   0.12424   0.00000  Uiso   1.00
C272   C     0.16773   0.97842   0.20910   0.00000  Uiso   1.00
C273   C     0.16556   0.97899   0.12412   0.00000  Uiso   1.00
C274   C     0.16778   0.68767   0.20921   0.00000  Uiso   1.00
C275   C     0.16665   0.95724   0.16655   0.00000  Uiso   1.00
C276   C     0.16669   0.70943   0.16678   0.00000  Uiso   1.00
C277   C     0.13412   0.80805   0.02170   0.00000  Uiso   1.00
C278   C     0.19921   0.85861   0.31163   0.00000  Uiso   1.00
C279   C     0.13392   0.80789   0.30569   0.00000  Uiso   1.00
C280   C     0.19941   0.85878   0.02764   0.00000  Uiso   1.00
Cu281  Cu    0.16667   0.83334   0.21355   0.00000  Uiso   1.00
Cu282  Cu    0.16667   0.83333   0.11978   0.00000  Uiso   1.00
H283   H     0.16474   0.70447   0.09102   0.00000  Uiso   1.00
H284   H     0.16860   0.96219   0.24231   0.00000  Uiso   1.00
H285   H     0.16459   0.96322   0.09087   0.00000  Uiso   1.00
H286   H     0.16874   0.70345   0.24246   0.00000  Uiso   1.00
H287   H     0.10819   0.78780   0.03791   0.00000  Uiso   1.00
H288   H     0.22514   0.87887   0.29542   0.00000  Uiso   1.00
N289   N     0.16668   0.83334   0.28403   0.00000  Uiso   1.00
N290   N     0.16665   0.83332   0.04931   0.00000  Uiso   1.00
O291   O     0.16666   0.77322   0.20625   0.00000  Uiso   1.00
O292   O     0.16667   0.89345   0.12709   0.00000  Uiso   1.00
O293   O     0.16666   0.77321   0.12706   0.00000  Uiso   1.00
O294   O     0.16667   0.89346   0.20628   0.00000  Uiso   1.00
O295   O     0.09161   0.83334   0.19712   0.00000  Uiso   1.00
O296   O     0.24172   0.83333   0.13621   0.00000  Uiso   1.00
O297   O     0.09161   0.83333   0.11793   0.00000  Uiso   1.00
O298   O     0.24172   0.83334   0.21540   0.00000  Uiso   1.00
C299   C     0.32573   0.79436   0.11453   0.00000  Uiso   1.00
O300   O     0.00366   0.79644   0.07445   0.00000  Uiso   1.00
O301   O     0.29414   0.76209   0.12727   0.00000  Uiso   1.00
H302   H     0.28222   0.74305   0.10008   0.00000  Uiso   1.00
C303   C     0.00760   0.87230   0.21880   0.00000  Uiso   1.00
O304   O     0.32967   0.87023   0.25888   0.00000  Uiso   1.00
O305   O     0.03919   0.90458   0.20606   0.00000  Uiso   1.00
H306   H     0.05112   0.92362   0.23326   0.00000  Uiso   1.00
Br307  Br    0.08619   0.77043   0.27161   0.00000  Uiso   1.00
Br308  Br    0.24714   0.89624   0.06172   0.00000  Uiso   1.00
C309   C     0.49999   0.75407   0.16675   0.00000  Uiso   1.00
C310   C     0.50001   0.91260   0.16658   0.00000  Uiso   1.00
C311   C     0.40152   0.83239   0.15497   0.00000  Uiso   1.00
C312   C     0.59848   0.83428   0.17836   0.00000  Uiso   1.00
C313   C     0.34694   0.82553   0.15022   0.00000  Uiso   1.00
C314   C     0.65306   0.84114   0.18311   0.00000  Uiso   1.00
C315   C     0.49894   0.68824   0.12424   0.00000  Uiso   1.00
C316   C     0.50106   0.97842   0.20910   0.00000  Uiso   1.00
C317   C     0.49889   0.97899   0.12412   0.00000  Uiso   1.00
C318   C     0.50111   0.68767   0.20921   0.00000  Uiso   1.00
C319   C     0.49998   0.95724   0.16655   0.00000  Uiso   1.00
C320   C     0.50002   0.70943   0.16678   0.00000  Uiso   1.00
C321   C     0.46746   0.80805   0.02170   0.00000  Uiso   1.00
C322   C     0.53254   0.85861   0.31163   0.00000  Uiso   1.00
C323   C     0.46725   0.80789   0.30569   0.00000  Uiso   1.00
C324   C     0.53275   0.85878   0.02764   0.00000  Uiso   1.00
Cu325  Cu    0.50000   0.83334   0.21355   0.00000  Uiso   1.00
Cu326  Cu    0.50000   0.83333   0.11978   0.00000  Uiso   1.00
H327   H     0.49807   0.70447   0.09102   0.00000  Uiso   1.00
H328   H     0.50193   0.96219   0.24231   0.00000  Uiso   1.00
H329   H     0.49792   0.96322   0.09087   0.00000  Uiso   1.00
H330   H     0.50208   0.70345   0.24246   0.00000  Uiso   1.00
H331   H     0.44152   0.78780   0.03791   0.00000  Uiso   1.00
H332   H     0.55848   0.87887   0.29542   0.00000  Uiso   1.00
N333   N     0.50001   0.83334   0.28403   0.00000  Uiso   1.00
N334   N     0.49999   0.83332   0.04931   0.00000  Uiso   1.00
O335   O     0.50000   0.77322   0.20625   0.00000  Uiso   1.00
O336   O     0.50000   0.89345   0.12709   0.00000  Uiso   1.00
O337   O     0.50000   0.77321   0.12706   0.00000  Uiso   1.00
O338   O     0.50000   0.89346   0.20628   0.00000  Uiso   1.00
O339   O     0.42495   0.83334   0.19712   0.00000  Uiso   1.00
O340   O     0.57505   0.83333   0.13621   0.00000  Uiso   1.00
O341   O     0.42494   0.83333   0.11793   0.00000  Uiso   1.00
O342   O     0.57506   0.83334   0.21540   0.00000  Uiso   1.00
C343   C     0.65907   0.79436   0.11453   0.00000  Uiso   1.00
O344   O     0.33700   0.79644   0.07445   0.00000  Uiso   1.00
O345   O     0.62748   0.76209   0.12727   0.00000  Uiso   1.00
H346   H     0.61555   0.74305   0.10008   0.00000  Uiso   1.00
C347   C     0.34093   0.87230   0.21880   0.00000  Uiso   1.00
O348   O     0.66300   0.87023   0.25888   0.00000  Uiso   1.00
O349   O     0.37253   0.90458   0.20606   0.00000  Uiso   1.00
H350   H     0.38445   0.92362   0.23326   0.00000  Uiso   1.00
Br351  Br    0.41953   0.77043   0.27161   0.00000  Uiso   1.00
Br352  Br    0.58047   0.89624   0.06172   0.00000  Uiso   1.00
C353   C     0.83333   0.75407   0.16675   0.00000  Uiso   1.00
C354   C     0.83334   0.91260   0.16658   0.00000  Uiso   1.00
C355   C     0.73485   0.83239   0.15497   0.00000  Uiso   1.00
C356   C     0.93181   0.83428   0.17836   0.00000  Uiso   1.00
C357   C     0.68027   0.82553   0.15022   0.00000  Uiso   1.00
C358   C     0.98640   0.84114   0.18311   0.00000  Uiso   1.00
C359   C     0.83227   0.68824   0.12424   0.00000  Uiso   1.00
C360   C     0.83439   0.97842   0.20910   0.00000  Uiso   1.00
C361   C     0.83222   0.97899   0.12412   0.00000  Uiso   1.00
C362   C     0.83444   0.68767   0.20921   0.00000  Uiso   1.00
C363   C     0.83331   0.95724   0.16655   0.00000  Uiso   1.00
C364   C     0.83335   0.70943   0.16678   0.00000  Uiso   1.00
C365   C     0.80079   0.80805   0.02170   0.00000  Uiso   1.00
C366   C     0.86588   0.85861   0.31163   0.00000  Uiso   1.00
C367   C     0.80059   0.80789   0.30569   0.00000  Uiso   1.00
C368   C     0.86608   0.85878   0.02764   0.00000  Uiso   1.00
Cu369  Cu    0.83333   0.83334   0.21355   0.00000  Uiso   1.00
Cu370  Cu    0.83333   0.83333   0.11978   0.00000  Uiso   1.00
H371   H     0.83140   0.70447   0.09102   0.00000  Uiso   1.00
H372   H     0.83526   0.96219   0.24231   0.00000  Uiso   1.00
H373   H     0.83126   0.96322   0.09087   0.00000  Uiso   1.00
H374   H     0.83541   0.70345   0.24246   0.00000  Uiso   1.00
H375   H     0.77486   0.78780   0.03791   0.00000  Uiso   1.00
H376   H     0.89181   0.87887   0.29542   0.00000  Uiso   1.00
N377   N     0.83335   0.83334   0.28403   0.00000  Uiso   1.00
N378   N     0.83332   0.83332   0.04931   0.00000  Uiso   1.00
O379   O     0.83333   0.77322   0.20625   0.00000  Uiso   1.00
O380   O     0.83334   0.89345   0.12709   0.00000  Uiso   1.00
O381   O     0.83333   0.77321   0.12706   0.00000  Uiso   1.00
O382   O     0.83334   0.89346   0.20628   0.00000  Uiso   1.00
O383   O     0.75828   0.83334   0.19712   0.00000  Uiso   1.00
O384   O     0.90839   0.83333   0.13621   0.00000  Uiso   1.00
O385   O     0.75828   0.83333   0.11793   0.00000  Uiso   1.00
O386   O     0.90839   0.83334   0.21540   0.00000  Uiso   1.00
C387   C     0.99240   0.79436   0.11453   0.00000  Uiso   1.00
O388   O     0.67033   0.79644   0.07445   0.00000  Uiso   1.00
O389   O     0.96081   0.76209   0.12727   0.00000  Uiso   1.00
H390   H     0.94888   0.74305   0.10008   0.00000  Uiso   1.00
C391   C     0.67427   0.87230   0.21880   0.00000  Uiso   1.00
O392   O     0.99634   0.87023   0.25888   0.00000  Uiso   1.00
O393   O     0.70586   0.90458   0.20606   0.00000  Uiso   1.00
H394   H     0.71778   0.92362   0.23326   0.00000  Uiso   1.00
Br395  Br    0.75286   0.77043   0.27161   0.00000  Uiso   1.00
Br396  Br    0.91381   0.89624   0.06172   0.00000  Uiso   1.00
C397   C     0.16666   0.08740   0.50008   0.00000  Uiso   1.00
C398   C     0.16667   0.24593   0.49992   0.00000  Uiso   1.00
C399   C     0.06819   0.16572   0.48830   0.00000  Uiso   1.00
C400   C     0.26515   0.16761   0.51170   0.00000  Uiso   1.00
C401   C     0.01360   0.15886   0.48356   0.00000  Uiso   1.00
C402   C     0.31973   0.17447   0.51644   0.00000  Uiso   1.00
C403   C     0.16561   0.02158   0.45757   0.00000  Uiso   1.00
C404   C     0.16773   0.31176   0.54243   0.00000  Uiso   1.00
C405   C     0.16556   0.31233   0.45746   0.00000  Uiso   1.00
C406   C     0.16778   0.02101   0.54254   0.00000  Uiso   1.00
C407   C     0.16665   0.29057   0.49988   0.00000  Uiso   1.00
C408   C     0.16669   0.04276   0.50012   0.00000  Uiso   1.00
C409   C     0.13412   0.14139   0.35504   0.00000  Uiso   1.00
C410   C     0.19921   0.19195   0.64496   0.00000  Uiso   1.00
C411   C     0.13392   0.14122   0.63902   0.00000  Uiso   1.00
C412   C     0.19941   0.19211   0.36098   0.00000  Uiso   1.00
Cu413  Cu    0.16667   0.16667   0.54689   0.00000  Uiso   1.00
Cu414  Cu    0.16667   0.16666   0.45311   0.00000  Uiso   1.00
H415   H     0.16474   0.03781   0.42435   0.00000  Uiso   1.00
H416   H     0.16860   0.29553   0.57565   0.00000  Uiso   1.00
H417   H     0.16459   0.29655   0.42421   0.00000  Uiso   1.00
H418   H     0.16874   0.03678   0.57579   0.00000  Uiso   1.00
H419   H     0.10819   0.12113   0.37124   0.00000  Uiso   1.00
H420   H     0.22514   0.21220   0.62876   0.00000  Uiso   1.00
N421   N     0.16668   0.16668   0.61736   0.00000  Uiso   1.00
N422   N     0.16665   0.16666   0.38264   0.00000  Uiso   1.00
O423   O     0.16666   0.10655   0.53958   0.00000  Uiso   1.00
O424   O     0.16667   0.22678   0.46042   0.00000  Uiso   1.00
O425   O     0.16666   0.10654   0.46039   0.00000  Uiso   1.00
O426   O     0.16667   0.22679   0.53961   0.00000  Uiso   1.00
O427   O     0.09161   0.16667   0.53046   0.00000  Uiso   1.00
O428   O     0.24172   0.16666   0.46954   0.00000  Uiso   1.00
O429   O     0.09161   0.16666   0.45127   0.00000  Uiso   1.00
O430   O     0.24172   0.16667   0.54873   0.00000  Uiso   1.00
C431   C     0.32573   0.12770   0.44786   0.00000  Uiso   1.00
O432   O     0.00366   0.12977   0.40778   0.00000  Uiso   1.00
O433   O     0.29414   0.09542   0.46061   0.00000  Uiso   1.00
H434   H     0.28222   0.07638   0.43341   0.00000  Uiso   1.00
C435   C     0.00760   0.20564   0.55214   0.00000  Uiso   1.00
O436   O     0.32967   0.20357   0.59222   0.00000  Uiso   1.00
O437   O     0.03919   0.23791   0.53939   0.00000  Uiso   1.00
H438   H     0.05112   0.25695   0.56659   0.00000  Uiso   1.00
Br439  Br    0.08619   0.10376   0.60495   0.00000  Uiso   1.00
Br440  Br    0.24714   0.22957   0.39505   0.00000  Uiso   1.00
C441   C     0.49999   0.08740   0.50008   0.00000  Uiso   1.00
C442   C     0.50001   0.24593   0.49992   0.00000  Uiso   1.00
C443   C     0.40152   0.16572   0.48830   0.00000  Uiso   1.00
C444   C     0.59848   0.16761   0.51170   0.00000  Uiso   1.00
C445   C     0.34694   0.15886   0.48356   0.00000  Uiso   1.00
C446   C     0.65306   0.17447   0.51644   0.00000  Uiso   1.00
C447   C     0.49894   0.02158   0.45757   0.00000  Uiso   1.00
C448   C     0.50106   0.31176   0.54243   0.00000  Uiso   1.00
C449   C     0.49889   0.31233   0.45746   0.00000  Uiso   1.00
C450   C     0.50111   0.02101   0.54254   0.00000  Uiso   1.00
C451   C     0.49998   0.29057   0.49988   0.00000  Uiso   1.00
C452   C     0.50002   0.04276   0.50012   0.00000  Uiso   1.00
C453   C     0.46746   0.14139   0.35504   0.00000  Uiso   1.00
C454   C     0.53254   0.19195   0.64496   0.00000  Uiso   1.00
C455   C     0.46725   0.14122   0.63902   0.00000  Uiso   1.00
C456   C     0.53275   0.19211   0.36098   0.00000  Uiso   1.00
Cu457  Cu    0.50000   0.16667   0.54689   0.00000  Uiso   1.00
Cu458  Cu    0.50000   0.16666   0.45311   0.00000  Uiso   1.00
H459   H     0.49807   0.03781   0.42435   0.00000  Uiso   1.00
H460   H     0.50193   0.29553   0.57565   0.00000  Uiso   1.00
H461   H     0.49792   0.29655   0.42421   0.00000  Uiso   1.00
H462   H     0.50208   0.03678   0.57579   0.00000  Uiso   1.00
H463   H     0.44152   0.12113   0.37124   0.00000  Uiso   1.00
H464   H     0.55848   0.21220   0.62876   0.00000  Uiso   1.00
N465   N     0.50001   0.16668   0.61736   0.00000  Uiso   1.00
N466   N     0.49999   0.16666   0.38264   0.00000  Uiso   1.00
O467   O     0.50000   0.10655   0.53958   0.00000  Uiso   1.00
O468   O     0.50000   0.22678   0.46042   0.00000  Uiso   1.00
O469   O     0.50000   0.10654   0.46039   0.00000  Uiso   1.00
O470   O     0.50000   0.22679   0.53961   0.00000  Uiso   1.00
O471   O     0.42495   0.16667   0.53046   0.00000  Uiso   1.00
O472   O     0.57505   0.16666   0.46954   0.00000  Uiso   1.00
O473   O     0.42494   0.16666   0.45127   0.00000  Uiso   1.00
O474   O     0.57506   0.16667   0.54873   0.00000  Uiso   1.00
C475   C     0.65907   0.12770   0.44786   0.00000  Uiso   1.00
O476   O     0.33700   0.12977   0.40778   0.00000  Uiso   1.00
O477   O     0.62748   0.09542   0.46061   0.00000  Uiso   1.00
H478   H     0.61555   0.07638   0.43341   0.00000  Uiso   1.00
C479   C     0.34093   0.20564   0.55214   0.00000  Uiso   1.00
O480   O     0.66300   0.20357   0.59222   0.00000  Uiso   1.00
O481   O     0.37253   0.23791   0.53939   0.00000  Uiso   1.00
H482   H     0.38445   0.25695   0.56659   0.00000  Uiso   1.00
Br483  Br    0.41953   0.10376   0.60495   0.00000  Uiso   1.00
Br484  Br    0.58047   0.22957   0.39505   0.00000  Uiso   1.00
C485   C     0.83333   0.08740   0.50008   0.00000  Uiso   1.00
C486   C     0.83334   0.24593   0.49992   0.00000  Uiso   1.00
C487   C     0.73485   0.16572   0.48830   0.00000  Uiso   1.00
C488   C     0.93181   0.16761   0.51170   0.00000  Uiso   1.00
C489   C     0.68027   0.15886   0.48356   0.00000  Uiso   1.00
C490   C     0.98640   0.17447   0.51644   0.00000  Uiso   1.00
C491   C     0.83227   0.02158   0.45757   0.00000  Uiso   1.00
C492   C     0.83439   0.31176   0.54243   0.00000  Uiso   1.00
C493   C     0.83222   0.31233   0.45746   0.00000  Uiso   1.00
C494   C     0.83444   0.02101   0.54254   0.00000  Uiso   1.00
C495   C     0.83331   0.29057   0.49988   0.00000  Uiso   1.00
C496   C     0.83335   0.04276   0.50012   0.00000  Uiso   1.00
C497   C     0.80079   0.14139   0.35504   0.00000  Uiso   1.00
C498   C     0.86588   0.19195   0.64496   0.00000  Uiso   1.00
C499   C     0.80059   0.14122   0.63902   0.00000  Uiso   1.00
C500   C     0.86608   0.19211   0.36098   0.00000  Uiso   1.00
Cu501  Cu    0.83333   0.16667   0.54689   0.00000  Uiso   1.00
Cu502  Cu    0.83333   0.16666   0.45311   0.00000  Uiso   1.00
H503   H     0.83140   0.03781   0.42435   0.00000  Uiso   1.00
H504   H     0.83526   0.29553   0.57565   0.00000  Uiso   1.00
H505   H     0.83126   0.29655   0.42421   0.00000  Uiso   1.00
H506   H     0.83541   0.03678   0.57579   0.00000  Uiso   1.00
H507   H     0.77486   0.12113   0.37124   0.00000  Uiso   1.00
H508   H     0.89181   0.21220   0.62876   0.00000  Uiso   1.00
N509   N     0.83335   0.16668   0.61736   0.00000  Uiso   1.00
N510   N     0.83332   0.16666   0.38264   0.00000  Uiso   1.00
O511   O     0.83333   0.10655   0.53958   0.00000  Uiso   1.00
O512   O     0.83334   0.22678   0.46042   0.00000  Uiso   1.00
O513   O     0.83333   0.10654   0.46039   0.00000  Uiso   1.00
O514   O     0.83334   0.22679   0.53961   0.00000  Uiso   1.00
O515   O     0.75828   0.16667   0.53046   0.00000  Uiso   1.00
O516   O     0.90839   0.16666   0.46954   0.00000  Uiso   1.00
O517   O     0.75828   0.16666   0.45127   0.00000  Uiso   1.00
O518   O     0.90839   0.16667   0.54873   0.00000  Uiso   1.00
C519   C     0.99240   0.12770   0.44786   0.00000  Uiso   1.00
O520   O     0.67033   0.12977   0.40778   0.00000  Uiso   1.00
O521   O     0.96081   0.09542   0.46061   0.00000  Uiso   1.00
H522   H     0.94888   0.07638   0.43341   0.00000  Uiso   1.00
C523   C     0.67427   0.20564   0.55214   0.00000  Uiso   1.00
O524   O     0.99634   0.20357   0.59222   0.00000  Uiso   1.00
O525   O     0.70586   0.23791   0.53939   0.00000  Uiso   1.00
H526   H     0.71778   0.25695   0.56659   0.00000  Uiso   1.00
Br527  Br    0.75286   0.10376   0.60495   0.00000  Uiso   1.00
Br528  Br    0.91381   0.22957   0.39505   0.00000  Uiso   1.00
C529   C     0.16666   0.42073   0.50008   0.00000  Uiso   1.00
C530   C     0.16667   0.57927   0.49992   0.00000  Uiso   1.00
C531   C     0.06819   0.49906   0.48830   0.00000  Uiso   1.00
C532   C     0.26515   0.50094   0.51170   0.00000  Uiso   1.00
C533   C     0.01360   0.49220   0.48356   0.00000  Uiso   1.00
C534   C     0.31973   0.50780   0.51644   0.00000  Uiso   1.00
C535   C     0.16561   0.35491   0.45757   0.00000  Uiso   1.00
C536   C     0.16773   0.64509   0.54243   0.00000  Uiso   1.00
C537   C     0.16556   0.64566   0.45746   0.00000  Uiso   1.00
C538   C     0.16778   0.35434   0.54254   0.00000  Uiso   1.00
C539   C     0.16665   0.62390   0.49988   0.00000  Uiso   1.00
C540   C     0.16669   0.37610   0.50012   0.00000  Uiso   1.00
C541   C     0.13412   0.47472   0.35504   0.00000  Uiso   1.00
C542   C     0.19921   0.52528   0.64496   0.00000  Uiso   1.00
C543   C     0.13392   0.47456   0.63902   0.00000  Uiso   1.00
C544   C     0.19941   0.52544   0.36098   0.00000  Uiso   1.00
Cu545  Cu    0.16667   0.50001   0.54689   0.00000  Uiso   1.00
Cu546  Cu    0.16667   0.49999   0.45311   0.00000  Uiso   1.00
H547   H     0.16474   0.37114   0.42435   0.00000  Uiso   1.00
H548   H     0.16860   0.62886   0.57565   0.00000  Uiso   1.00
H549   H     0.16459   0.62989   0.42421   0.00000  Uiso   1.00
H550   H     0.16874   0.37012   0.57579   0.00000  Uiso   1.00
H551   H     0.10819   0.45446   0.37124   0.00000  Uiso   1.00
H552   H     0.22514   0.54554   0.62876   0.00000  Uiso   1.00
N553   N     0.16668   0.50001   0.61736   0.00000  Uiso   1.00
N554   N     0.16665   0.49999   0.38264   0.00000  Uiso   1.00
O555   O     0.16666   0.43989   0.53958   0.00000  Uiso   1.00
O556   O     0.16667   0.56011   0.46042   0.00000  Uiso   1.00
O557   O     0.16666   0.43988   0.46039   0.00000  Uiso   1.00
O558   O     0.16667   0.56012   0.53961   0.00000  Uiso   1.00
O559   O     0.09161   0.50000   0.53046   0.00000  Uiso   1.00
O560   O     0.24172   0.50000   0.46954   0.00000  Uiso   1.00
O561   O     0.09161   0.49999   0.45127   0.00000  Uiso   1.00
O562   O     0.24172   0.50001   0.54873   0.00000  Uiso   1.00
C563   C     0.32573   0.46103   0.44786   0.00000  Uiso   1.00
O564   O     0.00366   0.46310   0.40778   0.00000  Uiso   1.00
O565   O     0.29414   0.42876   0.46061   0.00000  Uiso   1.00
H566   H     0.28222   0.40972   0.43341   0.00000  Uiso   1.00
C567   C     0.00760   0.53897   0.55214   0.00000  Uiso   1.00
O568   O     0.32967   0.53690   0.59222   0.00000  Uiso   1.00
O569   O     0.03919   0.57124   0.53939   0.00000  Uiso   1.00
H570   H     0.05112   0.59028   0.56659   0.00000  Uiso   1.00
Br571  Br    0.08619   0.43710   0.60495   0.00000  Uiso   1.00
Br572  Br    0.24714   0.56290   0.39505   0.00000  Uiso   1.00
C573   C     0.49999   0.42073   0.50008   0.00000  Uiso   1.00
C574   C     0.50001   0.57927   0.49992   0.00000  Uiso   1.00
C575   C     0.40152   0.49906   0.48830   0.00000  Uiso   1.00
C576   C     0.59848   0.50094   0.51170   0.00000  Uiso   1.00
C577   C     0.34694   0.49220   0.48356   0.00000  Uiso   1.00
C578   C     0.65306   0.50780   0.51644   0.00000  Uiso   1.00
C579   C     0.49894   0.35491   0.45757   0.00000  Uiso   1.00
C580   C     0.50106   0.64509   0.54243   0.00000  Uiso   1.00
C581   C     0.49889   0.64566   0.45746   0.00000  Uiso   1.00
C582   C     0.50111   0.35434   0.54254   0.00000  Uiso   1.00
C583   C     0.49998   0.62390   0.49988   0.00000  Uiso   1.00
C584   C     0.50002   0.37610   0.50012   0.00000  Uiso   1.00
C585   C     0.46746   0.47472   0.35504   0.00000  Uiso   1.00
C586   C     0.53254   0.52528   0.64496   0.00000  Uiso   1.00
C587   C     0.46725   0.47456   0.63902   0.00000  Uiso   1.00
C588   C     0.53275   0.52544   0.36098   0.00000  Uiso   1.00
Cu589  Cu    0.50000   0.50001   0.54689   0.00000  Uiso   1.00
Cu590  Cu    0.50000   0.49999   0.45311   0.00000  Uiso   1.00
H591   H     0.49807   0.37114   0.42435   0.00000  Uiso   1.00
H592   H     0.50193   0.62886   0.57565   0.00000  Uiso   1.00
H593   H     0.49792   0.62989   0.42421   0.00000  Uiso   1.00
H594   H     0.50208   0.37012   0.57579   0.00000  Uiso   1.00
H595   H     0.44152   0.45446   0.37124   0.00000  Uiso   1.00
H596   H     0.55848   0.54554   0.62876   0.00000  Uiso   1.00
N597   N     0.50001   0.50001   0.61736   0.00000  Uiso   1.00
N598   N     0.49999   0.49999   0.38264   0.00000  Uiso   1.00
O599   O     0.50000   0.43989   0.53958   0.00000  Uiso   1.00
O600   O     0.50000   0.56011   0.46042   0.00000  Uiso   1.00
O601   O     0.50000   0.43988   0.46039   0.00000  Uiso   1.00
O602   O     0.50000   0.56012   0.53961   0.00000  Uiso   1.00
O603   O     0.42495   0.50000   0.53046   0.00000  Uiso   1.00
O604   O     0.57505   0.50000   0.46954   0.00000  Uiso   1.00
O605   O     0.42494   0.49999   0.45127   0.00000  Uiso   1.00
O606   O     0.57506   0.50001   0.54873   0.00000  Uiso   1.00
C607   C     0.65907   0.46103   0.44786   0.00000  Uiso   1.00
O608   O     0.33700   0.46310   0.40778   0.00000  Uiso   1.00
O609   O     0.62748   0.42876   0.46061   0.00000  Uiso   1.00
H610   H     0.61555   0.40972   0.43341   0.00000  Uiso   1.00
C611   C     0.34093   0.53897   0.55214   0.00000  Uiso   1.00
O612   O     0.66300   0.53690   0.59222   0.00000  Uiso   1.00
O613   O     0.37253   0.57124   0.53939   0.00000  Uiso   1.00
H614   H     0.38445   0.59028   0.56659   0.00000  Uiso   1.00
Br615  Br    0.41953   0.43710   0.60495   0.00000  Uiso   1.00
Br616  Br    0.58047   0.56290   0.39505   0.00000  Uiso   1.00
C617   C     0.83333   0.42073   0.50008   0.00000  Uiso   1.00
C618   C     0.83334   0.57927   0.49992   0.00000  Uiso   1.00
C619   C     0.73485   0.49906   0.48830   0.00000  Uiso   1.00
C620   C     0.93181   0.50094   0.51170   0.00000  Uiso   1.00
C621   C     0.68027   0.49220   0.48356   0.00000  Uiso   1.00
C622   C     0.98640   0.50780   0.51644   0.00000  Uiso   1.00
C623   C     0.83227   0.35491   0.45757   0.00000  Uiso   1.00
C624   C     0.83439   0.64509   0.54243   0.00000  Uiso   1.00
C625   C     0.83222   0.64566   0.45746   0.00000  Uiso   1.00
C626   C     0.83444   0.35434   0.54254   0.00000  Uiso   1.00
C627   C     0.83331   0.62390   0.49988   0.00000  Uiso   1.00
C628   C     0.83335   0.37610   0.50012   0.00000  Uiso   1.00
C629   C     0.80079   0.47472   0.35504   0.00000  Uiso   1.00
C630   C     0.86588   0.52528   0.64496   0.00000  Uiso   1.00
C631   C     0.80059   0.47456   0.63902   0.00000  Uiso   1.00
C632   C     0.86608   0.52544   0.36098   0.00000  Uiso   1.00
Cu633  Cu    0.83333   0.50001   0.54689   0.00000  Uiso   1.00
Cu634  Cu    0.83333   0.49999   0.45311   0.00000  Uiso   1.00
H635   H     0.83140   0.37114   0.42435   0.00000  Uiso   1.00
H636   H     0.83526   0.62886   0.57565   0.00000  Uiso   1.00
H637   H     0.83126   0.62989   0.42421   0.00000  Uiso   1.00
H638   H     0.83541   0.37012   0.57579   0.00000  Uiso   1.00
H639   H     0.77486   0.45446   0.37124   0.00000  Uiso   1.00
H640   H     0.89181   0.54554   0.62876   0.00000  Uiso   1.00
N641   N     0.83335   0.50001   0.61736   0.00000  Uiso   1.00
N642   N     0.83332   0.49999   0.38264   0.00000  Uiso   1.00
O643   O     0.83333   0.43989   0.53958   0.00000  Uiso   1.00
O644   O     0.83334   0.56011   0.46042   0.00000  Uiso   1.00
O645   O     0.83333   0.43988   0.46039   0.00000  Uiso   1.00
O646   O     0.83334   0.56012   0.53961   0.00000  Uiso   1.00
O647   O     0.75828   0.50000   0.53046   0.00000  Uiso   1.00
O648   O     0.90839   0.50000   0.46954   0.00000  Uiso   1.00
O649   O     0.75828   0.49999   0.45127   0.00000  Uiso   1.00
O650   O     0.90839   0.50001   0.54873   0.00000  Uiso   1.00
C651   C     0.99240   0.46103   0.44786   0.00000  Uiso   1.00
O652   O     0.67033   0.46310   0.40778   0.00000  Uiso   1.00
O653   O     0.96081   0.42876   0.46061   0.00000  Uiso   1.00
H654   H     0.94888   0.40972   0.43341   0.00000  Uiso   1.00
C655   C     0.67427   0.53897   0.55214   0.00000  Uiso   1.00
O656   O     0.99634   0.53690   0.59222   0.00000  Uiso   1.00
O657   O     0.70586   0.57124   0.53939   0.00000  Uiso   1.00
H658   H     0.71778   0.59028   0.56659   0.00000  Uiso   1.00
Br659  Br    0.75286   0.43710   0.60495   0.00000  Uiso   1.00
Br660  Br    0.91381   0.56290   0.39505   0.00000  Uiso   1.00
C661   C     0.16666   0.75407   0.50008   0.00000  Uiso   1.00
C662   C     0.16667   0.91260   0.49992   0.00000  Uiso   1.00
C663   C     0.06819   0.83239   0.48830   0.00000  Uiso   1.00
C664   C     0.26515   0.83428   0.51170   0.00000  Uiso   1.00
C665   C     0.01360   0.82553   0.48356   0.00000  Uiso   1.00
C666   C     0.31973   0.84114   0.51644   0.00000  Uiso   1.00
C667   C     0.16561   0.68824   0.45757   0.00000  Uiso   1.00
C668   C     0.16773   0.97842   0.54243   0.00000  Uiso   1.00
C669   C     0.16556   0.97899   0.45746   0.00000  Uiso   1.00
C670   C     0.16778   0.68767   0.54254   0.00000  Uiso   1.00
C671   C     0.16665   0.95724   0.49988   0.00000  Uiso   1.00
C672   C     0.16669   0.70943   0.50012   0.00000  Uiso   1.00
C673   C     0.13412   0.80805   0.35504   0.00000  Uiso   1.00
C674   C     0.19921   0.85861   0.64496   0.00000  Uiso   1.00
C675   C     0.13392   0.80789   0.63902   0.00000  Uiso   1.00
C676   C     0.19941   0.85878   0.36098   0.00000  Uiso   1.00
Cu677  Cu    0.16667   0.83334   0.54689   0.00000  Uiso   1.00
Cu678  Cu    0.16667   0.83333   0.45311   0.00000  Uiso   1.00
H679   H     0.16474   0.70447   0.42435   0.00000  Uiso   1.00
H680   H     0.16860   0.96219   0.57565   0.00000  Uiso   1.00
H681   H     0.16459   0.96322   0.42421   0.00000  Uiso   1.00
H682   H     0.16874   0.70345   0.57579   0.00000  Uiso   1.00
H683   H     0.10819   0.78780   0.37124   0.00000  Uiso   1.00
H684   H     0.22514   0.87887   0.62876   0.00000  Uiso   1.00
N685   N     0.16668   0.83334   0.61736   0.00000  Uiso   1.00
N686   N     0.16665   0.83332   0.38264   0.00000  Uiso   1.00
O687   O     0.16666   0.77322   0.53958   0.00000  Uiso   1.00
O688   O     0.16667   0.89345   0.46042   0.00000  Uiso   1.00
O689   O     0.16666   0.77321   0.46039   0.00000  Uiso   1.00
O690   O     0.16667   0.89346   0.53961   0.00000  Uiso   1.00
O691   O     0.09161   0.83334   0.53046   0.00000  Uiso   1.00
O692   O     0.24172   0.83333   0.46954   0.00000  Uiso   1.00
O693   O     0.09161   0.83333   0.45127   0.00000  Uiso   1.00
O694   O     0.24172   0.83334   0.54873   0.00000  Uiso   1.00
C695   C     0.32573   0.79436   0.44786   0.00000  Uiso   1.00
O696   O     0.00366   0.79644   0.40778   0.00000  Uiso   1.00
O697   O     0.29414   0.76209   0.46061   0.00000  Uiso   1.00
H698   H     0.28222   0.74305   0.43341   0.00000  Uiso   1.00
C699   C     0.00760   0.87230   0.55214   0.00000  Uiso   1.00
O700   O     0.32967   0.87023   0.59222   0.00000  Uiso   1.00
O701   O     0.03919   0.90458   0.53939   0.00000  Uiso   1.00
H702   H     0.05112   0.92362   0.56659   0.00000  Uiso   1.00
Br703  Br    0.08619   0.77043   0.60495   0.00000  Uiso   1.00
Br704  Br    0.24714   0.89624   0.39505   0.00000  Uiso   1.00
C705   C     0.49999   0.75407   0.50008   0.00000  Uiso   1.00
C706   C     0.50001   0.91260   0.49992   0.00000  Uiso   1.00
C707   C     0.40152   0.83239   0.48830   0.00000  Uiso   1.00
C708   C     0.59848   0.83428   0.51170   0.00000  Uiso   1.00
C709   C     0.34694   0.82553   0.48356   0.00000  Uiso   1.00
C710   C     0.65306   0.84114   0.51644   0.00000  Uiso   1.00
C711   C     0.49894   0.68824   0.45757   0.00000  Uiso   1.00
C712   C     0.50106   0.97842   0.54243   0.00000  Uiso   1.00
C713   C     0.49889   0.97899   0.45746   0.00000  Uiso   1.00
C714   C     0.50111   0.68767   0.54254   0.00000  Uiso   1.00
C715   C     0.49998   0.95724   0.49988   0.00000  Uiso   1.00
C716   C     0.50002   0.70943   0.50012   0.00000  Uiso   1.00
C717   C     0.46746   0.80805   0.35504   0.00000  Uiso   1.00
C718   C     0.53254   0.85861   0.64496   0.00000  Uiso   1.00
C719   C     0.46725   0.80789   0.63902   0.00000  Uiso   1.00
C720   C     0.53275   0.85878   0.36098   0.00000  Uiso   1.00
Cu721  Cu    0.50000   0.83334   0.54689   0.00000  Uiso   1.00
Cu722  Cu    0.50000   0.83333   0.45311   0.00000  Uiso   1.00
H723   H     0.49807   0.70447   0.42435   0.00000  Uiso   1.00
H724   H     0.50193   0.96219   0.57565   0.00000  Uiso   1.00
H725   H     0.49792   0.96322   0.42421   0.00000  Uiso   1.00
H726   H     0.50208   0.70345   0.57579   0.00000  Uiso   1.00
H727   H     0.44152   0.78780   0.37124   0.00000  Uiso   1.00
H728   H     0.55848   0.87887   0.62876   0.00000  Uiso   1.00
N729   N     0.50001   0.83334   0.61736   0.00000  Uiso   1.00
N730   N     0.49999   0.83332   0.38264   0.00000  Uiso   1.00
O731   O     0.50000   0.77322   0.53958   0.00000  Uiso   1.00
O732   O     0.50000   0.89345   0.46042   0.00000  Uiso   1.00
O733   O     0.50000   0.77321   0.46039   0.00000  Uiso   1.00
O734   O     0.50000   0.89346   0.53961   0.00000  Uiso   1.00
O735   O     0.42495   0.83334   0.53046   0.00000  Uiso   1.00
O736   O     0.57505   0.83333   0.46954   0.00000  Uiso   1.00
O737   O     0.42494   0.83333   0.45127   0.00000  Uiso   1.00
O738   O     0.57506   0.83334   0.54873   0.00000  Uiso   1.00
C739   C     0.65907   0.79436   0.44786   0.00000  Uiso   1.00
O740   O     0.33700   0.79644   0.40778   0.00000  Uiso   1.00
O741   O     0.62748   0.76209   0.46061   0.00000  Uiso   1.00
H742   H     0.61555   0.74305   0.43341   0.00000  Uiso   1.00
C743   C     0.34093   0.87230   0.55214   0.00000  Uiso   1.00
O744   O     0.66300   0.87023   0.59222   0.00000  Uiso   1.00
O745   O     0.37253   0.90458   0.53939   0.00000  Uiso   1.00
H746   H     0.38445   0.92362   0.56659   0.00000  Uiso   1.00
Br747  Br    0.41953   0.77043   0.60495   0.00000  Uiso   1.00
Br748  Br    0.58047   0.89624   0.39505   0.00000  Uiso   1.00
C749   C     0.83333   0.75407   0.50008   0.00000  Uiso   1.00
C750   C     0.83334   0.91260   0.49992   0.00000  Uiso   1.00
C751   C     0.73485   0.83239   0.48830   0.00000  Uiso   1.00
C752   C     0.93181   0.83428   0.51170   0.00000  Uiso   1.00
C753   C     0.68027   0.82553   0.48356   0.00000  Uiso   1.00
C754   C     0.98640   0.84114   0.51644   0.00000  Uiso   1.00
C755   C     0.83227   0.68824   0.45757   0.00000  Uiso   1.00
C756   C     0.83439   0.97842   0.54243   0.00000  Uiso   1.00
C757   C     0.83222   0.97899   0.45746   0.00000  Uiso   1.00
C758   C     0.83444   0.68767   0.54254   0.00000  Uiso   1.00
C759   C     0.83331   0.95724   0.49988   0.00000  Uiso   1.00
C760   C     0.83335   0.70943   0.50012   0.00000  Uiso   1.00
C761   C     0.80079   0.80805   0.35504   0.00000  Uiso   1.00
C762   C     0.86588   0.85861   0.64496   0.00000  Uiso   1.00
C763   C     0.80059   0.80789   0.63902   0.00000  Uiso   1.00
C764   C     0.86608   0.85878   0.36098   0.00000  Uiso   1.00
Cu765  Cu    0.83333   0.83334   0.54689   0.00000  Uiso   1.00
Cu766  Cu    0.83333   0.83333   0.45311   0.00000  Uiso   1.00
H767   H     0.83140   0.70447   0.42435   0.00000  Uiso   1.00
H768   H     0.83526   0.96219   0.57565   0.00000  Uiso   1.00
H769   H     0.83126   0.96322   0.42421   0.00000  Uiso   1.00
H770   H     0.83541   0.70345   0.57579   0.00000  Uiso   1.00
H771   H     0.77486   0.78780   0.37124   0.00000  Uiso   1.00
H772   H     0.89181   0.87887   0.62876   0.00000  Uiso   1.00
N773   N     0.83335   0.83334   0.61736   0.00000  Uiso   1.00
N774   N     0.83332   0.83332   0.38264   0.00000  Uiso   1.00
O775   O     0.83333   0.77322   0.53958   0.00000  Uiso   1.00
O776   O     0.83334   0.89345   0.46042   0.00000  Uiso   1.00
O777   O     0.83333   0.77321   0.46039   0.00000  Uiso   1.00
O778   O     0.83334   0.89346   0.53961   0.00000  Uiso   1.00
O779   O     0.75828   0.83334   0.53046   0.00000  Uiso   1.00
O780   O     0.90839   0.83333   0.46954   0.00000  Uiso   1.00
O781   O     0.75828   0.83333   0.45127   0.00000  Uiso   1.00
O782   O     0.90839   0.83334   0.54873   0.00000  Uiso   1.00
C783   C     0.99240   0.79436   0.44786   0.00000  Uiso   1.00
O784   O     0.67033   0.79644   0.40778   0.00000  Uiso   1.00
O785   O     0.96081   0.76209   0.46061   0.00000  Uiso   1.00
H786   H     0.94888   0.74305   0.43341   0.00000  Uiso   1.00
C787   C     0.67427   0.87230   0.55214   0.00000  Uiso   1.00
O788   O     0.99634   0.87023   0.59222   0.00000  Uiso   1.00
O789   O     0.70586   0.90458   0.53939   0.00000  Uiso   1.00
H790   H     0.71778   0.92362   0.56659   0.00000  Uiso   1.00
Br791  Br    0.75286   0.77043   0.60495   0.00000  Uiso   1.00
Br792  Br    0.91381   0.89624   0.39505   0.00000  Uiso   1.00
C793   C     0.16666   0.08740   0.83342   0.00000  Uiso   1.00
C794   C     0.16667   0.24593   0.83325   0.00000  Uiso   1.00
C795   C     0.06819   0.16572   0.82164   0.00000  Uiso   1.00
C796   C     0.26515   0.16761   0.84503   0.00000  Uiso   1.00
C797   C     0.01360   0.15886   0.81689   0.00000  Uiso   1.00
C798   C     0.31973   0.17447   0.84978   0.00000  Uiso   1.00
C799   C     0.16561   0.02158   0.79090   0.00000  Uiso   1.00
C800   C     0.16773   0.31176   0.87576   0.00000  Uiso   1.00
C801   C     0.16556   0.31233   0.79079   0.00000  Uiso   1.00
C802   C     0.16778   0.02101   0.87588   0.00000  Uiso   1.00
C803   C     0.16665   0.29057   0.83322   0.00000  Uiso   1.00
C804   C     0.16669   0.04276   0.83345   0.00000  Uiso   1.00
C805   C     0.13412   0.14139   0.68837   0.00000  Uiso   1.00
C806   C     0.19921   0.19195   0.97830   0.00000  Uiso   1.00
C807   C     0.13392   0.14122   0.97236   0.00000  Uiso   1.00
C808   C     0.19941   0.19211   0.69431   0.00000  Uiso   1.00
Cu809  Cu    0.16667   0.16667   0.88022   0.00000  Uiso   1.00
Cu810  Cu    0.16667   0.16666   0.78645   0.00000  Uiso   1.00
H811   H     0.16474   0.03781   0.75769   0.00000  Uiso   1.00
H812   H     0.16860   0.29553   0.90898   0.00000  Uiso   1.00
H813   H     0.16459   0.29655   0.75754   0.00000  Uiso   1.00
H814   H     0.16874   0.03678   0.90913   0.00000  Uiso   1.00
H815   H     0.10819   0.12113   0.70458   0.00000  Uiso   1.00
H816   H     0.22514   0.21220   0.96209   0.00000  Uiso   1.00
N817   N     0.16668   0.16668   0.95069   0.00000  Uiso   1.00
N818   N     0.16665   0.16666   0.71597   0.00000  Uiso   1.00
O819   O     0.16666   0.10655   0.87291   0.00000  Uiso   1.00
O820   O     0.16667   0.22678   0.79375   0.00000  Uiso   1.00
O821   O     0.16666   0.10654   0.79372   0.00000  Uiso   1.00
O822   O     0.16667   0.22679   0.87294   0.00000  Uiso   1.00
O823   O     0.09161   0.16667   0.86379   0.00000  Uiso   1.00
O824   O     0.24172   0.16666   0.80288   0.00000  Uiso   1.00
O825   O     0.09161   0.16666   0.78460   0.00000  Uiso   1.00
O826   O     0.24172   0.16667   0.88207   0.00000  Uiso   1.00
C827   C     0.32573   0.12770   0.78120   0.00000  Uiso   1.00
O828   O     0.00366   0.12977   0.74112   0.00000  Uiso   1.00
O829   O     0.29414   0.09542   0.79394   0.00000  Uiso   1.00
H830   H     0.28222   0.07638   0.76674   0.00000  Uiso   1.00
C831   C     0.00760   0.20564   0.88547   0.00000  Uiso   1.00
O832   O     0.32967   0.20357   0.92555   0.00000  Uiso   1.00
O833   O     0.03919   0.23791   0.87273   0.00000  Uiso   1.00
H834   H     0.05112   0.25695   0.89992   0.00000  Uiso   1.00
Br835  Br    0.08619   0.10376   0.93828   0.00000  Uiso   1.00
Br836  Br    0.24714   0.22957   0.72839   0.00000  Uiso   1.00
C837   C     0.49999   0.08740   0.83342   0.00000  Uiso   1.00
C838   C     0.50001   0.24593   0.83325   0.00000  Uiso   1.00
C839   C     0.40152   0.16572   0.82164   0.00000  Uiso   1.00
C840   C     0.59848   0.16761   0.84503   0.00000  Uiso   1.00
C841   C     0.34694   0.15886   0.81689   0.00000  Uiso   1.00
C842   C     0.65306   0.17447   0.84978   0.00000  Uiso   1.00
C843   C     0.49894   0.02158   0.79090   0.00000  Uiso   1.00
C844   C     0.50106   0.31176   0.87576   0.00000  Uiso   1.00
C845   C     0.49889   0.31233   0.79079   0.00000  Uiso   1.00
C846   C     0.50111   0.02101   0.87588   0.00000  Uiso   1.00
C847   C     0.49998   0.29057   0.83322   0.00000  Uiso   1.00
C848   C     0.50002   0.04276   0.83345   0.00000  Uiso   1.00
C849   C     0.46746   0.14139   0.68837   0.00000  Uiso   1.00
C850   C     0.53254   0.19195   0.97830   0.00000  Uiso   1.00
C851   C     0.46725   0.14122   0.97236   0.00000  Uiso   1.00
C852   C     0.53275   0.19211   0.69431   0.00000  Uiso   1.00
Cu853  Cu    0.50000   0.16667   0.88022   0.00000  Uiso   1.00
Cu854  Cu    0.50000   0.16666   0.78645   0.00000  Uiso   1.00
H855   H     0.49807   0.03781   0.75769   0.00000  Uiso   1.00
H856   H     0.50193   0.29553   0.90898   0.00000  Uiso   1.00
H857   H     0.49792   0.29655   0.75754   0.00000  Uiso   1.00
H858   H     0.50208   0.03678   0.90913   0.00000  Uiso   1.00
H859   H     0.44152   0.12113   0.70458   0.00000  Uiso   1.00
H860   H     0.55848   0.21220   0.96209   0.00000  Uiso   1.00
N861   N     0.50001   0.16668   0.95069   0.00000  Uiso   1.00
N862   N     0.49999   0.16666   0.71597   0.00000  Uiso   1.00
O863   O     0.50000   0.10655   0.87291   0.00000  Uiso   1.00
O864   O     0.50000   0.22678   0.79375   0.00000  Uiso   1.00
O865   O     0.50000   0.10654   0.79372   0.00000  Uiso   1.00
O866   O     0.50000   0.22679   0.87294   0.00000  Uiso   1.00
O867   O     0.42495   0.16667   0.86379   0.00000  Uiso   1.00
O868   O     0.57505   0.16666   0.80288   0.00000  Uiso   1.00
O869   O     0.42494   0.16666   0.78460   0.00000  Uiso   1.00
O870   O     0.57506   0.16667   0.88207   0.00000  Uiso   1.00
C871   C     0.65907   0.12770   0.78120   0.00000  Uiso   1.00
O872   O     0.33700   0.12977   0.74112   0.00000  Uiso   1.00
O873   O     0.62748   0.09542   0.79394   0.00000  Uiso   1.00
H874   H     0.61555   0.07638   0.76674   0.00000  Uiso   1.00
C875   C     0.34093   0.20564   0.88547   0.00000  Uiso   1.00
O876   O     0.66300   0.20357   0.92555   0.00000  Uiso   1.00
O877   O     0.37253   0.23791   0.87273   0.00000  Uiso   1.00
H878   H     0.38445   0.25695   0.89992   0.00000  Uiso   1.00
Br879  Br    0.41953   0.10376   0.93828   0.00000  Uiso   1.00
Br880  Br    0.58047   0.22957   0.72839   0.00000  Uiso   1.00
C881   C     0.83333   0.08740   0.83342   0.00000  Uiso   1.00
C882   C     0.83334   0.24593   0.83325   0.00000  Uiso   1.00
C883   C     0.73485   0.16572   0.82164   0.00000  Uiso   1.00
C884   C     0.93181   0.16761   0.84503   0.00000  Uiso   1.00
C885   C     0.68027   0.15886   0.81689   0.00000  Uiso   1.00
C886   C     0.98640   0.17447   0.84978   0.00000  Uiso   1.00
C887   C     0.83227   0.02158   0.79090   0.00000  Uiso   1.00
C888   C     0.83439   0.31176   0.87576   0.00000  Uiso   1.00
C889   C     0.83222   0.31233   0.79079   0.00000  Uiso   1.00
C890   C     0.83444   0.02101   0.87588   0.00000  Uiso   1.00
C891   C     0.83331   0.29057   0.83322   0.00000  Uiso   1.00
C892   C     0.83335   0.04276   0.83345   0.00000  Uiso   1.00
C893   C     0.80079   0.14139   0.68837   0.00000  Uiso   1.00
C894   C     0.86588   0.19195   0.97830   0.00000  Uiso   1.00
C895   C     0.80059   0.14122   0.97236   0.00000  Uiso   1.00
C896   C     0.86608   0.19211   0.69431   0.00000  Uiso   1.00
Cu897  Cu    0.83333   0.16667   0.88022   0.00000  Uiso   1.00
Cu898  Cu    0.83333   0.16666   0.78645   0.00000  Uiso   1.00
H899   H     0.83140   0.03781   0.75769   0.00000  Uiso   1.00
H900   H     0.83526   0.29553   0.90898   0.00000  Uiso   1.00
H901   H     0.83126   0.29655   0.75754   0.00000  Uiso   1.00
H902   H     0.83541   0.03678   0.90913   0.00000  Uiso   1.00
H903   H     0.77486   0.12113   0.70458   0.00000  Uiso   1.00
H904   H     0.89181   0.21220   0.96209   0.00000  Uiso   1.00
N905   N     0.83335   0.16668   0.95069   0.00000  Uiso   1.00
N906   N     0.83332   0.16666   0.71597   0.00000  Uiso   1.00
O907   O     0.83333   0.10655   0.87291   0.00000  Uiso   1.00
O908   O     0.83334   0.22678   0.79375   0.00000  Uiso   1.00
O909   O     0.83333   0.10654   0.79372   0.00000  Uiso   1.00
O910   O     0.83334   0.22679   0.87294   0.00000  Uiso   1.00
O911   O     0.75828   0.16667   0.86379   0.00000  Uiso   1.00
O912   O     0.90839   0.16666   0.80288   0.00000  Uiso   1.00
O913   O     0.75828   0.16666   0.78460   0.00000  Uiso   1.00
O914   O     0.90839   0.16667   0.88207   0.00000  Uiso   1.00
C915   C     0.99240   0.12770   0.78120   0.00000  Uiso   1.00
O916   O     0.67033   0.12977   0.74112   0.00000  Uiso   1.00
O917   O     0.96081   0.09542   0.79394   0.00000  Uiso   1.00
H918   H     0.94888   0.07638   0.76674   0.00000  Uiso   1.00
C919   C     0.67427   0.20564   0.88547   0.00000  Uiso   1.00
O920   O     0.99634   0.20357   0.92555   0.00000  Uiso   1.00
O921   O     0.70586   0.23791   0.87273   0.00000  Uiso   1.00
H922   H     0.71778   0.25695   0.89992   0.00000  Uiso   1.00
Br923  Br    0.75286   0.10376   0.93828   0.00000  Uiso   1.00
Br924  Br    0.91381   0.22957   0.72839   0.00000  Uiso   1.00
C925   C     0.16666   0.42073   0.83342   0.00000  Uiso   1.00
C926   C     0.16667   0.57927   0.83325   0.00000  Uiso   1.00
C927   C     0.06819   0.49906   0.82164   0.00000  Uiso   1.00
C928   C     0.26515   0.50094   0.84503   0.00000  Uiso   1.00
C929   C     0.01360   0.49220   0.81689   0.00000  Uiso   1.00
C930   C     0.31973   0.50780   0.84978   0.00000  Uiso   1.00
C931   C     0.16561   0.35491   0.79090   0.00000  Uiso   1.00
C932   C     0.16773   0.64509   0.87576   0.00000  Uiso   1.00
C933   C     0.16556   0.64566   0.79079   0.00000  Uiso   1.00
C934   C     0.16778   0.35434   0.87588   0.00000  Uiso   1.00
C935   C     0.16665   0.62390   0.83322   0.00000  Uiso   1.00
C936   C     0.16669   0.37610   0.83345   0.00000  Uiso   1.00
C937   C     0.13412   0.47472   0.68837   0.00000  Uiso   1.00
C938   C     0.19921   0.52528   0.97830   0.00000  Uiso   1.00
C939   C     0.13392   0.47456   0.97236   0.00000  Uiso   1.00
C940   C     0.19941   0.52544   0.69431   0.00000  Uiso   1.00
Cu941  Cu    0.16667   0.50001   0.88022   0.00000  Uiso   1.00
Cu942  Cu    0.16667   0.49999   0.78645   0.00000  Uiso   1.00
H943   H     0.16474   0.37114   0.75769   0.00000  Uiso   1.00
H944   H     0.16860   0.62886   0.90898   0.00000  Uiso   1.00
H945   H     0.16459   0.62989   0.75754   0.00000  Uiso   1.00
H946   H     0.16874   0.37012   0.90913   0.00000  Uiso   1.00
H947   H     0.10819   0.45446   0.70458   0.00000  Uiso   1.00
H948   H     0.22514   0.54554   0.96209   0.00000  Uiso   1.00
N949   N     0.16668   0.50001   0.95069   0.00000  Uiso   1.00
N950   N     0.16665   0.49999   0.71597   0.00000  Uiso   1.00
O951   O     0.16666   0.43989   0.87291   0.00000  Uiso   1.00
O952   O     0.16667   0.56011   0.79375   0.00000  Uiso   1.00
O953   O     0.16666   0.43988   0.79372   0.00000  Uiso   1.00
O954   O     0.16667   0.56012   0.87294   0.00000  Uiso   1.00
O955   O     0.09161   0.50000   0.86379   0.00000  Uiso   1.00
O956   O     0.24172   0.50000   0.80288   0.00000  Uiso   1.00
O957   O     0.09161   0.49999   0.78460   0.00000  Uiso   1.00
O958   O     0.24172   0.50001   0.88207   0.00000  Uiso   1.00
C959   C     0.32573   0.46103   0.78120   0.00000  Uiso   1.00
O960   O     0.00366   0.46310   0.74112   0.00000  Uiso   1.00
O961   O     0.29414   0.42876   0.79394   0.00000  Uiso   1.00
H962   H     0.28222   0.40972   0.76674   0.00000  Uiso   1.00
C963   C     0.00760   0.53897   0.88547   0.00000  Uiso   1.00
O964   O     0.32967   0.53690   0.92555   0.00000  Uiso   1.00
O965   O     0.03919   0.57124   0.87273   0.00000  Uiso   1.00
H966   H     0.05112   0.59028   0.89992   0.00000  Uiso   1.00
Br967  Br    0.08619   0.43710   0.93828   0.00000  Uiso   1.00
Br968  Br    0.24714   0.56290   0.72839   0.00000  Uiso   1.00
C969   C     0.49999   0.42073   0.83342   0.00000  Uiso   1.00
C970   C     0.50001   0.57927   0.83325   0.00000  Uiso   1.00
C971   C     0.40152   0.49906   0.82164   0.00000  Uiso   1.00
C972   C     0.59848   0.50094   0.84503   0.00000  Uiso   1.00
C973   C     0.34694   0.49220   0.81689   0.00000  Uiso   1.00
C974   C     0.65306   0.50780   0.84978   0.00000  Uiso   1.00
C975   C     0.49894   0.35491   0.79090   0.00000  Uiso   1.00
C976   C     0.50106   0.64509   0.87576   0.00000  Uiso   1.00
C977   C     0.49889   0.64566   0.79079   0.00000  Uiso   1.00
C978   C     0.50111   0.35434   0.87588   0.00000  Uiso   1.00
C979   C     0.49998   0.62390   0.83322   0.00000  Uiso   1.00
C980   C     0.50002   0.37610   0.83345   0.00000  Uiso   1.00
C981   C     0.46746   0.47472   0.68837   0.00000  Uiso   1.00
C982   C     0.53254   0.52528   0.97830   0.00000  Uiso   1.00
C983   C     0.46725   0.47456   0.97236   0.00000  Uiso   1.00
C984   C     0.53275   0.52544   0.69431   0.00000  Uiso   1.00
Cu985  Cu    0.50000   0.50001   0.88022   0.00000  Uiso   1.00
Cu986  Cu    0.50000   0.49999   0.78645   0.00000  Uiso   1.00
H987   H     0.49807   0.37114   0.75769   0.00000  Uiso   1.00
H988   H     0.50193   0.62886   0.90898   0.00000  Uiso   1.00
H989   H     0.49792   0.62989   0.75754   0.00000  Uiso   1.00
H990   H     0.50208   0.37012   0.90913   0.00000  Uiso   1.00
H991   H     0.44152   0.45446   0.70458   0.00000  Uiso   1.00
H992   H     0.55848   0.54554   0.96209   0.00000  Uiso   1.00
N993   N     0.50001   0.50001   0.95069   0.00000  Uiso   1.00
N994   N     0.49999   0.49999   0.71597   0.00000  Uiso   1.00
O995   O     0.50000   0.43989   0.87291   0.00000  Uiso   1.00
O996   O     0.50000   0.56011   0.79375   0.00000  Uiso   1.00
O997   O     0.50000   0.43988   0.79372   0.00000  Uiso   1.00
O998   O     0.50000   0.56012   0.87294   0.00000  Uiso   1.00
O999   O     0.42495   0.50000   0.86379   0.00000  Uiso   1.00
O1000  O     0.57505   0.50000   0.80288   0.00000  Uiso   1.00
O1001  O     0.42494   0.49999   0.78460   0.00000  Uiso   1.00
O1002  O     0.57506   0.50001   0.88207   0.00000  Uiso   1.00
C1003  C     0.65907   0.46103   0.78120   0.00000  Uiso   1.00
O1004  O     0.33700   0.46310   0.74112   0.00000  Uiso   1.00
O1005  O     0.62748   0.42876   0.79394   0.00000  Uiso   1.00
H1006  H     0.61555   0.40972   0.76674   0.00000  Uiso   1.00
C1007  C     0.34093   0.53897   0.88547   0.00000  Uiso   1.00
O1008  O     0.66300   0.53690   0.92555   0.00000  Uiso   1.00
O1009  O     0.37253   0.57124   0.87273   0.00000  Uiso   1.00
H1010  H     0.38445   0.59028   0.89992   0.00000  Uiso   1.00
Br1011 Br    0.41953   0.43710   0.93828   0.00000  Uiso   1.00
Br1012 Br    0.58047   0.56290   0.72839   0.00000  Uiso   1.00
C1013  C     0.83333   0.42073   0.83342   0.00000  Uiso   1.00
C1014  C     0.83334   0.57927   0.83325   0.00000  Uiso   1.00
C1015  C     0.73485   0.49906   0.82164   0.00000  Uiso   1.00
C1016  C     0.93181   0.50094   0.84503   0.00000  Uiso   1.00
C1017  C     0.68027   0.49220   0.81689   0.00000  Uiso   1.00
C1018  C     0.98640   0.50780   0.84978   0.00000  Uiso   1.00
C1019  C     0.83227   0.35491   0.79090   0.00000  Uiso   1.00
C1020  C     0.83439   0.64509   0.87576   0.00000  Uiso   1.00
C1021  C     0.83222   0.64566   0.79079   0.00000  Uiso   1.00
C1022  C     0.83444   0.35434   0.87588   0.00000  Uiso   1.00
C1023  C     0.83331   0.62390   0.83322   0.00000  Uiso   1.00
C1024  C     0.83335   0.37610   0.83345   0.00000  Uiso   1.00
C1025  C     0.80079   0.47472   0.68837   0.00000  Uiso   1.00
C1026  C     0.86588   0.52528   0.97830   0.00000  Uiso   1.00
C1027  C     0.80059   0.47456   0.97236   0.00000  Uiso   1.00
C1028  C     0.86608   0.52544   0.69431   0.00000  Uiso   1.00
Cu1029 Cu    0.83333   0.50001   0.88022   0.00000  Uiso   1.00
Cu1030 Cu    0.83333   0.49999   0.78645   0.00000  Uiso   1.00
H1031  H     0.83140   0.37114   0.75769   0.00000  Uiso   1.00
H1032  H     0.83526   0.62886   0.90898   0.00000  Uiso   1.00
H1033  H     0.83126   0.62989   0.75754   0.00000  Uiso   1.00
H1034  H     0.83541   0.37012   0.90913   0.00000  Uiso   1.00
H1035  H     0.77486   0.45446   0.70458   0.00000  Uiso   1.00
H1036  H     0.89181   0.54554   0.96209   0.00000  Uiso   1.00
N1037  N     0.83335   0.50001   0.95069   0.00000  Uiso   1.00
N1038  N     0.83332   0.49999   0.71597   0.00000  Uiso   1.00
O1039  O     0.83333   0.43989   0.87291   0.00000  Uiso   1.00
O1040  O     0.83334   0.56011   0.79375   0.00000  Uiso   1.00
O1041  O     0.83333   0.43988   0.79372   0.00000  Uiso   1.00
O1042  O     0.83334   0.56012   0.87294   0.00000  Uiso   1.00
O1043  O     0.75828   0.50000   0.86379   0.00000  Uiso   1.00
O1044  O     0.90839   0.50000   0.80288   0.00000  Uiso   1.00
O1045  O     0.75828   0.49999   0.78460   0.00000  Uiso   1.00
O1046  O     0.90839   0.50001   0.88207   0.00000  Uiso   1.00
C1047  C     0.99240   0.46103   0.78120   0.00000  Uiso   1.00
O1048  O     0.67033   0.46310   0.74112   0.00000  Uiso   1.00
O1049  O     0.96081   0.42876   0.79394   0.00000  Uiso   1.00
H1050  H     0.94888   0.40972   0.76674   0.00000  Uiso   1.00
C1051  C     0.67427   0.53897   0.88547   0.00000  Uiso   1.00
O1052  O     0.99634   0.53690   0.92555   0.00000  Uiso   1.00
O1053  O     0.70586   0.57124   0.87273   0.00000  Uiso   1.00
H1054  H     0.71778   0.59028   0.89992   0.00000  Uiso   1.00
Br1055 Br    0.75286   0.43710   0.93828   0.00000  Uiso   1.00
Br1056 Br    0.91381   0.56290   0.72839   0.00000  Uiso   1.00
C1057  C     0.16666   0.75407   0.83342   0.00000  Uiso   1.00
C1058  C     0.16667   0.91260   0.83325   0.00000  Uiso   1.00
C1059  C     0.06819   0.83239   0.82164   0.00000  Uiso   1.00
C1060  C     0.26515   0.83428   0.84503   0.00000  Uiso   1.00
C1061  C     0.01360   0.82553   0.81689   0.00000  Uiso   1.00
C1062  C     0.31973   0.84114   0.84978   0.00000  Uiso   1.00
C1063  C     0.16561   0.68824   0.79090   0.00000  Uiso   1.00
C1064  C     0.16773   0.97842   0.87576   0.00000  Uiso   1.00
C1065  C     0.16556   0.97899   0.79079   0.00000  Uiso   1.00
C1066  C     0.16778   0.68767   0.87588   0.00000  Uiso   1.00
C1067  C     0.16665   0.95724   0.83322   0.00000  Uiso   1.00
C1068  C     0.16669   0.70943   0.83345   0.00000  Uiso   1.00
C1069  C     0.13412   0.80805   0.68837   0.00000  Uiso   1.00
C1070  C     0.19921   0.85861   0.97830   0.00000  Uiso   1.00
C1071  C     0.13392   0.80789   0.97236   0.00000  Uiso   1.00
C1072  C     0.19941   0.85878   0.69431   0.00000  Uiso   1.00
Cu1073 Cu    0.16667   0.83334   0.88022   0.00000  Uiso   1.00
Cu1074 Cu    0.16667   0.83333   0.78645   0.00000  Uiso   1.00
H1075  H     0.16474   0.70447   0.75769   0.00000  Uiso   1.00
H1076  H     0.16860   0.96219   0.90898   0.00000  Uiso   1.00
H1077  H     0.16459   0.96322   0.75754   0.00000  Uiso   1.00
H1078  H     0.16874   0.70345   0.90913   0.00000  Uiso   1.00
H1079  H     0.10819   0.78780   0.70458   0.00000  Uiso   1.00
H1080  H     0.22514   0.87887   0.96209   0.00000  Uiso   1.00
N1081  N     0.16668   0.83334   0.95069   0.00000  Uiso   1.00
N1082  N     0.16665   0.83332   0.71597   0.00000  Uiso   1.00
O1083  O     0.16666   0.77322   0.87291   0.00000  Uiso   1.00
O1084  O     0.16667   0.89345   0.79375   0.00000  Uiso   1.00
O1085  O     0.16666   0.77321   0.79372   0.00000  Uiso   1.00
O1086  O     0.16667   0.89346   0.87294   0.00000  Uiso   1.00
O1087  O     0.09161   0.83334   0.86379   0.00000  Uiso   1.00
O1088  O     0.24172   0.83333   0.80288   0.00000  Uiso   1.00
O1089  O     0.09161   0.83333   0.78460   0.00000  Uiso   1.00
O1090  O     0.24172   0.83334   0.88207   0.00000  Uiso   1.00
C1091  C     0.32573   0.79436   0.78120   0.00000  Uiso   1.00
O1092  O     0.00366   0.79644   0.74112   0.00000  Uiso   1.00
O1093  O     0.29414   0.76209   0.79394   0.00000  Uiso   1.00
H1094  H     0.28222   0.74305   0.76674   0.00000  Uiso   1.00
C1095  C     0.00760   0.87230   0.88547   0.00000  Uiso   1.00
O1096  O     0.32967   0.87023   0.92555   0.00000  Uiso   1.00
O1097  O     0.03919   0.90458   0.87273   0.00000  Uiso   1.00
H1098  H     0.05112   0.92362   0.89992   0.00000  Uiso   1.00
Br1099 Br    0.08619   0.77043   0.93828   0.00000  Uiso   1.00
Br1100 Br    0.24714   0.89624   0.72839   0.00000  Uiso   1.00
C1101  C     0.49999   0.75407   0.83342   0.00000  Uiso   1.00
C1102  C     0.50001   0.91260   0.83325   0.00000  Uiso   1.00
C1103  C     0.40152   0.83239   0.82164   0.00000  Uiso   1.00
C1104  C     0.59848   0.83428   0.84503   0.00000  Uiso   1.00
C1105  C     0.34694   0.82553   0.81689   0.00000  Uiso   1.00
C1106  C     0.65306   0.84114   0.84978   0.00000  Uiso   1.00
C1107  C     0.49894   0.68824   0.79090   0.00000  Uiso   1.00
C1108  C     0.50106   0.97842   0.87576   0.00000  Uiso   1.00
C1109  C     0.49889   0.97899   0.79079   0.00000  Uiso   1.00
C1110  C     0.50111   0.68767   0.87588   0.00000  Uiso   1.00
C1111  C     0.49998   0.95724   0.83322   0.00000  Uiso   1.00
C1112  C     0.50002   0.70943   0.83345   0.00000  Uiso   1.00
C1113  C     0.46746   0.80805   0.68837   0.00000  Uiso   1.00
C1114  C     0.53254   0.85861   0.97830   0.00000  Uiso   1.00
C1115  C     0.46725   0.80789   0.97236   0.00000  Uiso   1.00
C1116  C     0.53275   0.85878   0.69431   0.00000  Uiso   1.00
Cu1117 Cu    0.50000   0.83334   0.88022   0.00000  Uiso   1.00
Cu1118 Cu    0.50000   0.83333   0.78645   0.00000  Uiso   1.00
H1119  H     0.49807   0.70447   0.75769   0.00000  Uiso   1.00
H1120  H     0.50193   0.96219   0.90898   0.00000  Uiso   1.00
H1121  H     0.49792   0.96322   0.75754   0.00000  Uiso   1.00
H1122  H     0.50208   0.70345   0.90913   0.00000  Uiso   1.00
H1123  H     0.44152   0.78780   0.70458   0.00000  Uiso   1.00
H1124  H     0.55848   0.87887   0.96209   0.00000  Uiso   1.00
N1125  N     0.50001   0.83334   0.95069   0.00000  Uiso   1.00
N1126  N     0.49999   0.83332   0.71597   0.00000  Uiso   1.00
O1127  O     0.50000   0.77322   0.87291   0.00000  Uiso   1.00
O1128  O     0.50000   0.89345   0.79375   0.00000  Uiso   1.00
O1129  O     0.50000   0.77321   0.79372   0.00000  Uiso   1.00
O1130  O     0.50000   0.89346   0.87294   0.00000  Uiso   1.00
O1131  O     0.42495   0.83334   0.86379   0.00000  Uiso   1.00
O1132  O     0.57505   0.83333   0.80288   0.00000  Uiso   1.00
O1133  O     0.42494   0.83333   0.78460   0.00000  Uiso   1.00
O1134  O     0.57506   0.83334   0.88207   0.00000  Uiso   1.00
C1135  C     0.65907   0.79436   0.78120   0.00000  Uiso   1.00
O1136  O     0.33700   0.79644   0.74112   0.00000  Uiso   1.00
O1137  O     0.62748   0.76209   0.79394   0.00000  Uiso   1.00
H1138  H     0.61555   0.74305   0.76674   0.00000  Uiso   1.00
C1139  C     0.34093   0.87230   0.88547   0.00000  Uiso   1.00
O1140  O     0.66300   0.87023   0.92555   0.00000  Uiso   1.00
O1141  O     0.37253   0.90458   0.87273   0.00000  Uiso   1.00
H1142  H     0.38445   0.92362   0.89992   0.00000  Uiso   1.00
Br1143 Br    0.41953   0.77043   0.93828   0.00000  Uiso   1.00
Br1144 Br    0.58047   0.89624   0.72839   0.00000  Uiso   1.00
C1145  C     0.83333   0.75407   0.83342   0.00000  Uiso   1.00
C1146  C     0.83334   0.91260   0.83325   0.00000  Uiso   1.00
C1147  C     0.73485   0.83239   0.82164   0.00000  Uiso   1.00
C1148  C     0.93181   0.83428   0.84503   0.00000  Uiso   1.00
C1149  C     0.68027   0.82553   0.81689   0.00000  Uiso   1.00
C1150  C     0.98640   0.84114   0.84978   0.00000  Uiso   1.00
C1151  C     0.83227   0.68824   0.79090   0.00000  Uiso   1.00
C1152  C     0.83439   0.97842   0.87576   0.00000  Uiso   1.00
C1153  C     0.83222   0.97899   0.79079   0.00000  Uiso   1.00
C1154  C     0.83444   0.68767   0.87588   0.00000  Uiso   1.00
C1155  C     0.83331   0.95724   0.83322   0.00000  Uiso   1.00
C1156  C     0.83335   0.70943   0.83345   0.00000  Uiso   1.00
C1157  C     0.80079   0.80805   0.68837   0.00000  Uiso   1.00
C1158  C     0.86588   0.85861   0.97830   0.00000  Uiso   1.00
C1159  C     0.80059   0.80789   0.97236   0.00000  Uiso   1.00
C1160  C     0.86608   0.85878   0.69431   0.00000  Uiso   1.00
Cu1161 Cu    0.83333   0.83334   0.88022   0.00000  Uiso   1.00
Cu1162 Cu    0.83333   0.83333   0.78645   0.00000  Uiso   1.00
H1163  H     0.83140   0.70447   0.75769   0.00000  Uiso   1.00
H1164  H     0.83526   0.96219   0.90898   0.00000  Uiso   1.00
H1165  H     0.83126   0.96322   0.75754   0.00000  Uiso   1.00
H1166  H     0.83541   0.70345   0.90913   0.00000  Uiso   1.00
H1167  H     0.77486   0.78780   0.70458   0.00000  Uiso   1.00
H1168  H     0.89181   0.87887   0.96209   0.00000  Uiso   1.00
N1169  N     0.83335   0.83334   0.95069   0.00000  Uiso   1.00
N1170  N     0.83332   0.83332   0.71597   0.00000  Uiso   1.00
O1171  O     0.83333   0.77322   0.87291   0.00000  Uiso   1.00
O1172  O     0.83334   0.89345   0.79375   0.00000  Uiso   1.00
O1173  O     0.83333   0.77321   0.79372   0.00000  Uiso   1.00
O1174  O     0.83334   0.89346   0.87294   0.00000  Uiso   1.00
O1175  O     0.75828   0.83334   0.86379   0.00000  Uiso   1.00
O1176  O     0.90839   0.83333   0.80288   0.00000  Uiso   1.00
O1177  O     0.75828   0.83333   0.78460   0.00000  Uiso   1.00
O1178  O     0.90839   0.83334   0.88207   0.00000  Uiso   1.00
C1179  C     0.99240   0.79436   0.78120   0.00000  Uiso   1.00
O1180  O     0.67033   0.79644   0.74112   0.00000  Uiso   1.00
O1181  O     0.96081   0.76209   0.79394   0.00000  Uiso   1.00
H1182  H     0.94888   0.74305   0.76674   0.00000  Uiso   1.00
C1183  C     0.67427   0.87230   0.88547   0.00000  Uiso   1.00
O1184  O     0.99634   0.87023   0.92555   0.00000  Uiso   1.00
O1185  O     0.70586   0.90458   0.87273   0.00000  Uiso   1.00
H1186  H     0.71778   0.92362   0.89992   0.00000  Uiso   1.00
Br1187 Br    0.75286   0.77043   0.93828   0.00000  Uiso   1.00
Br1188 Br    0.91381   0.89624   0.72839   0.00000  Uiso   1.00
loop_
_geom_bond_atom_site_label_1
_geom_bond_atom_site_label_2
_geom_bond_distance
_geom_bond_site_symmetry_2
_ccdc_geom_bond_type
C1     O29     1.293   .     A
C1     C12     1.450   .     S
C1     O27     1.296   .     A
C2     O30     1.293   .     A
C2     C11     1.450   .     S
C2     O28     1.296   .     A
C3     O31     1.287   .     A
C3     O33     1.292   .     A
C3     C5      1.438   .     S
C4     O34     1.292   .     A
C4     O32     1.287   .     A
C4     C6      1.438   .     S
C5     C94     1.359   1_455 S
C5     C123    1.495   1_455 S
C6     C49     1.359   .     S
C6     C83     1.495   .     S
C7     H19     1.083   .     S
C7     C12     1.402   .     A
C7     C273    1.383   1_545 S
C8     H20     1.083   .     S
C8     C11     1.402   .     A
C8     C142    1.383   .     S
C9     C11     1.400   .     A
C9     H21     1.083   .     S
C9     C139    1.383   .     S
C10    H22     1.083   .     S
C10    C12     1.400   .     A
C10    C272    1.383   1_545 S
C13    N26     1.359   .     A
C13    H23     1.082   .     S
C13    C807    1.415   1_554 S
C14    N25     1.359   .     A
C14    H24     1.082   .     S
C14    C412    1.415   .     S
C15    Br43    1.914   .     S
C15    N25     1.382   .     A
C15    C409    1.415   .     S
C16    Br44    1.914   .     S
C16    N26     1.382   .     A
C16    C806    1.415   1_554 S
Cu17   N25     2.021   .     S
Cu17   Cu18    2.689   .     S
Cu17   O30     1.962   .     S
Cu17   O31     1.972   .     S
Cu17   O34     1.968   .     S
Cu17   O27     1.966   .     S
Cu18   N26     2.021   .     S
Cu18   O29     1.962   .     S
Cu18   O33     1.968   .     S
Cu18   O32     1.972   .     S
Cu18   O28     1.966   .     S
C35    O37     1.399   .     S
C35    C49     1.495   .     S
C35    O80     1.223   .     S
O36    C123    1.223   1_455 S
O37    H38     1.014   .     S
C39    O41     1.399   .     S
C39    C94     1.495   1_455 S
C39    O128    1.223   1_455 S
O40    C83     1.223   .     S
O41    H42     1.014   .     S
C45    O73     1.293   .     A
C45    C56     1.450   .     S
C45    O71     1.296   .     A
C46    O74     1.293   .     A
C46    C55     1.450   .     S
C46    O72     1.296   .     A
C47    O75     1.287   .     A
C47    O77     1.292   .     A
C47    C49     1.438   .     S
C48    O78     1.292   .     A
C48    O76     1.287   .     A
C48    C50     1.438   .     S
C50    C93     1.359   .     S
C50    C127    1.495   .     S
C51    H63     1.083   .     S
C51    C56     1.402   .     A
C51    C317    1.383   1_545 S
C52    H64     1.083   .     S
C52    C55     1.402   .     A
C52    C186    1.383   .     S
C53    C55     1.400   .     A
C53    H65     1.083   .     S
C53    C183    1.383   .     S
C54    H66     1.083   .     S
C54    C56     1.400   .     A
C54    C316    1.383   1_545 S
C57    N70     1.359   .     A
C57    H67     1.082   .     S
C57    C851    1.415   1_554 S
C58    N69     1.359   .     A
C58    H68     1.082   .     S
C58    C456    1.415   .     S
C59    Br87    1.914   .     S
C59    N69     1.382   .     A
C59    C453    1.415   .     S
C60    Br88    1.914   .     S
C60    N70     1.382   .     A
C60    C850    1.415   1_554 S
Cu61   N69     2.021   .     S
Cu61   Cu62    2.689   .     S
Cu61   O74     1.962   .     S
Cu61   O75     1.972   .     S
Cu61   O78     1.968   .     S
Cu61   O71     1.966   .     S
Cu62   N70     2.021   .     S
Cu62   O73     1.962   .     S
Cu62   O77     1.968   .     S
Cu62   O76     1.972   .     S
Cu62   O72     1.966   .     S
C79    O81     1.399   .     S
C79    C93     1.495   .     S
C79    O124    1.223   .     S
O81    H82     1.014   .     S
C83    O85     1.399   .     S
O84    C127    1.223   .     S
O85    H86     1.014   .     S
C89    O117    1.293   .     A
C89    C100    1.450   .     S
C89    O115    1.296   .     A
C90    O118    1.293   .     A
C90    C99     1.450   .     S
C90    O116    1.296   .     A
C91    O119    1.287   .     A
C91    O121    1.292   .     A
C91    C93     1.438   .     S
C92    O122    1.292   .     A
C92    O120    1.287   .     A
C92    C94     1.438   .     S
C94    C5      1.359   1_655 S
C94    C39     1.495   1_655 S
C95    H107    1.083   .     S
C95    C100    1.402   .     A
C95    C361    1.383   1_545 S
C96    H108    1.083   .     S
C96    C99     1.402   .     A
C96    C230    1.383   .     S
C97    C99     1.400   .     A
C97    H109    1.083   .     S
C97    C227    1.383   .     S
C98    H110    1.083   .     S
C98    C100    1.400   .     A
C98    C360    1.383   1_545 S
C101   N114    1.359   .     A
C101   H111    1.082   .     S
C101   C895    1.415   1_554 S
C102   N113    1.359   .     A
C102   H112    1.082   .     S
C102   C500    1.415   .     S
C103   Br131   1.914   .     S
C103   N113    1.382   .     A
C103   C497    1.415   .     S
C104   Br132   1.914   .     S
C104   N114    1.382   .     A
C104   C894    1.415   1_554 S
Cu105  N113    2.021   .     S
Cu105  Cu106   2.689   .     S
Cu105  O118    1.962   .     S
Cu105  O119    1.972   .     S
Cu105  O122    1.968   .     S
Cu105  O115    1.966   .     S
Cu106  N114    2.021   .     S
Cu106  O117    1.962   .     S
Cu106  O121    1.968   .     S
Cu106  O120    1.972   .     S
Cu106  O116    1.966   .     S
C123   O125    1.399   .     S
C123   C5      1.495   1_655 S
C123   O36     1.223   1_655 S
O125   H126    1.014   .     S
C127   O129    1.399   .     S
O128   C39     1.223   1_655 S
O129   H130    1.014   .     S
C133   O161    1.293   .     A
C133   C144    1.450   .     S
C133   O159    1.296   .     A
C134   O162    1.293   .     A
C134   C143    1.450   .     S
C134   O160    1.296   .     A
C135   O163    1.287   .     A
C135   O165    1.292   .     A
C135   C137    1.438   .     S
C136   O166    1.292   .     A
C136   O164    1.287   .     A
C136   C138    1.438   .     S
C137   C226    1.359   1_455 S
C137   C255    1.495   1_455 S
C138   C181    1.359   .     S
C138   C215    1.495   .     S
C139   H151    1.083   .     S
C139   C144    1.402   .     A
C140   H152    1.083   .     S
C140   C143    1.402   .     A
C140   C274    1.383   .     S
C141   C143    1.400   .     A
C141   H153    1.083   .     S
C141   C271    1.383   .     S
C142   H154    1.083   .     S
C142   C144    1.400   .     A
C145   N158    1.359   .     A
C145   H155    1.082   .     S
C145   C939    1.415   1_554 S
C146   N157    1.359   .     A
C146   H156    1.082   .     S
C146   C544    1.415   .     S
C147   Br175   1.914   .     S
C147   N157    1.382   .     A
C147   C541    1.415   .     S
C148   Br176   1.914   .     S
C148   N158    1.382   .     A
C148   C938    1.415   1_554 S
Cu149  N157    2.021   .     S
Cu149  Cu150   2.689   .     S
Cu149  O162    1.962   .     S
Cu149  O163    1.972   .     S
Cu149  O166    1.968   .     S
Cu149  O159    1.966   .     S
Cu150  N158    2.021   .     S
Cu150  O161    1.962   .     S
Cu150  O165    1.968   .     S
Cu150  O164    1.972   .     S
Cu150  O160    1.966   .     S
C167   O169    1.399   .     S
C167   C181    1.495   .     S
C167   O212    1.223   .     S
O168   C255    1.223   1_455 S
O169   H170    1.014   .     S
C171   O173    1.399   .     S
C171   C226    1.495   1_455 S
C171   O260    1.223   1_455 S
O172   C215    1.223   .     S
O173   H174    1.014   .     S
C177   O205    1.293   .     A
C177   C188    1.450   .     S
C177   O203    1.296   .     A
C178   O206    1.293   .     A
C178   C187    1.450   .     S
C178   O204    1.296   .     A
C179   O207    1.287   .     A
C179   O209    1.292   .     A
C179   C181    1.438   .     S
C180   O210    1.292   .     A
C180   O208    1.287   .     A
C180   C182    1.438   .     S
C182   C225    1.359   .     S
C182   C259    1.495   .     S
C183   H195    1.083   .     S
C183   C188    1.402   .     A
C184   H196    1.083   .     S
C184   C187    1.402   .     A
C184   C318    1.383   .     S
C185   C187    1.400   .     A
C185   H197    1.083   .     S
C185   C315    1.383   .     S
C186   H198    1.083   .     S
C186   C188    1.400   .     A
C189   N202    1.359   .     A
C189   H199    1.082   .     S
C189   C983    1.415   1_554 S
C190   N201    1.359   .     A
C190   H200    1.082   .     S
C190   C588    1.415   .     S
C191   Br219   1.914   .     S
C191   N201    1.382   .     A
C191   C585    1.415   .     S
C192   Br220   1.914   .     S
C192   N202    1.382   .     A
C192   C982    1.415   1_554 S
Cu193  N201    2.021   .     S
Cu193  Cu194   2.689   .     S
Cu193  O206    1.962   .     S
Cu193  O207    1.972   .     S
Cu193  O210    1.968   .     S
Cu193  O203    1.966   .     S
Cu194  N202    2.021   .     S
Cu194  O205    1.962   .     S
Cu194  O209    1.968   .     S
Cu194  O208    1.972   .     S
Cu194  O204    1.966   .     S
C211   O213    1.399   .     S
C211   C225    1.495   .     S
C211   O256    1.223   .     S
O213   H214    1.014   .     S
C215   O217    1.399   .     S
O216   C259    1.223   .     S
O217   H218    1.014   .     S
C221   O249    1.293   .     A
C221   C232    1.450   .     S
C221   O247    1.296   .     A
C222   O250    1.293   .     A
C222   C231    1.450   .     S
C222   O248    1.296   .     A
C223   O251    1.287   .     A
C223   O253    1.292   .     A
C223   C225    1.438   .     S
C224   O254    1.292   .     A
C224   O252    1.287   .     A
C224   C226    1.438   .     S
C226   C137    1.359   1_655 S
C226   C171    1.495   1_655 S
C227   H239    1.083   .     S
C227   C232    1.402   .     A
C228   H240    1.083   .     S
C228   C231    1.402   .     A
C228   C362    1.383   .     S
C229   C231    1.400   .     A
C229   H241    1.083   .     S
C229   C359    1.383   .     S
C230   H242    1.083   .     S
C230   C232    1.400   .     A
C233   N246    1.359   .     A
C233   H243    1.082   .     S
C233   C1027   1.415   1_554 S
C234   N245    1.359   .     A
C234   H244    1.082   .     S
C234   C632    1.415   .     S
C235   Br263   1.914   .     S
C235   N245    1.382   .     A
C235   C629    1.415   .     S
C236   Br264   1.914   .     S
C236   N246    1.382   .     A
C236   C1026   1.415   1_554 S
Cu237  N245    2.021   .     S
Cu237  Cu238   2.689   .     S
Cu237  O250    1.962   .     S
Cu237  O251    1.972   .     S
Cu237  O254    1.968   .     S
Cu237  O247    1.966   .     S
Cu238  N246    2.021   .     S
Cu238  O249    1.962   .     S
Cu238  O253    1.968   .     S
Cu238  O252    1.972   .     S
Cu238  O248    1.966   .     S
C255   O257    1.399   .     S
C255   C137    1.495   1_655 S
C255   O168    1.223   1_655 S
O257   H258    1.014   .     S
C259   O261    1.399   .     S
O260   C171    1.223   1_655 S
O261   H262    1.014   .     S
C265   O293    1.293   .     A
C265   C276    1.450   .     S
C265   O291    1.296   .     A
C266   O294    1.293   .     A
C266   C275    1.450   .     S
C266   O292    1.296   .     A
C267   O295    1.287   .     A
C267   O297    1.292   .     A
C267   C269    1.438   .     S
C268   O298    1.292   .     A
C268   O296    1.287   .     A
C268   C270    1.438   .     S
C269   C358    1.359   1_455 S
C269   C387    1.495   1_455 S
C270   C313    1.359   .     S
C270   C347    1.495   .     S
C271   H283    1.083   .     S
C271   C276    1.402   .     A
C272   H284    1.083   .     S
C272   C275    1.402   .     A
C272   C10     1.383   1_565 S
C273   C275    1.400   .     A
C273   H285    1.083   .     S
C273   C7      1.383   1_565 S
C274   H286    1.083   .     S
C274   C276    1.400   .     A
C277   N290    1.359   .     A
C277   H287    1.082   .     S
C277   C1071   1.415   1_554 S
C278   N289    1.359   .     A
C278   H288    1.082   .     S
C278   C676    1.415   .     S
C279   Br307   1.914   .     S
C279   N289    1.382   .     A
C279   C673    1.415   .     S
C280   Br308   1.914   .     S
C280   N290    1.382   .     A
C280   C1070   1.415   1_554 S
Cu281  N289    2.021   .     S
Cu281  Cu282   2.689   .     S
Cu281  O294    1.962   .     S
Cu281  O295    1.972   .     S
Cu281  O298    1.968   .     S
Cu281  O291    1.966   .     S
Cu282  N290    2.021   .     S
Cu282  O293    1.962   .     S
Cu282  O297    1.968   .     S
Cu282  O296    1.972   .     S
Cu282  O292    1.966   .     S
C299   O301    1.399   .     S
C299   C313    1.495   .     S
C299   O344    1.223   .     S
O300   C387    1.223   1_455 S
O301   H302    1.014   .     S
C303   O305    1.399   .     S
C303   C358    1.495   1_455 S
C303   O392    1.223   1_455 S
O304   C347    1.223   .     S
O305   H306    1.014   .     S
C309   O337    1.293   .     A
C309   C320    1.450   .     S
C309   O335    1.296   .     A
C310   O338    1.293   .     A
C310   C319    1.450   .     S
C310   O336    1.296   .     A
C311   O339    1.287   .     A
C311   O341    1.292   .     A
C311   C313    1.438   .     S
C312   O342    1.292   .     A
C312   O340    1.287   .     A
C312   C314    1.438   .     S
C314   C357    1.359   .     S
C314   C391    1.495   .     S
C315   H327    1.083   .     S
C315   C320    1.402   .     A
C316   H328    1.083   .     S
C316   C319    1.402   .     A
C316   C54     1.383   1_565 S
C317   C319    1.400   .     A
C317   H329    1.083   .     S
C317   C51     1.383   1_565 S
C318   H330    1.083   .     S
C318   C320    1.400   .     A
C321   N334    1.359   .     A
C321   H331    1.082   .     S
C321   C1115   1.415   1_554 S
C322   N333    1.359   .     A
C322   H332    1.082   .     S
C322   C720    1.415   .     S
C323   Br351   1.914   .     S
C323   N333    1.382   .     A
C323   C717    1.415   .     S
C324   Br352   1.914   .     S
C324   N334    1.382   .     A
C324   C1114   1.415   1_554 S
Cu325  N333    2.021   .     S
Cu325  Cu326   2.689   .     S
Cu325  O338    1.962   .     S
Cu325  O339    1.972   .     S
Cu325  O342    1.968   .     S
Cu325  O335    1.966   .     S
Cu326  N334    2.021   .     S
Cu326  O337    1.962   .     S
Cu326  O341    1.968   .     S
Cu326  O340    1.972   .     S
Cu326  O336    1.966   .     S
C343   O345    1.399   .     S
C343   C357    1.495   .     S
C343   O388    1.223   .     S
O345   H346    1.014   .     S
C347   O349    1.399   .     S
O348   C391    1.223   .     S
O349   H350    1.014   .     S
C353   O381    1.293   .     A
C353   C364    1.450   .     S
C353   O379    1.296   .     A
C354   O382    1.293   .     A
C354   C363    1.450   .     S
C354   O380    1.296   .     A
C355   O383    1.287   .     A
C355   O385    1.292   .     A
C355   C357    1.438   .     S
C356   O386    1.292   .     A
C356   O384    1.287   .     A
C356   C358    1.438   .     S
C358   C269    1.359   1_655 S
C358   C303    1.495   1_655 S
C359   H371    1.083   .     S
C359   C364    1.402   .     A
C360   H372    1.083   .     S
C360   C363    1.402   .     A
C360   C98     1.383   1_565 S
C361   C363    1.400   .     A
C361   H373    1.083   .     S
C361   C95     1.383   1_565 S
C362   H374    1.083   .     S
C362   C364    1.400   .     A
C365   N378    1.359   .     A
C365   H375    1.082   .     S
C365   C1159   1.415   1_554 S
C366   N377    1.359   .     A
C366   H376    1.082   .     S
C366   C764    1.415   .     S
C367   Br395   1.914   .     S
C367   N377    1.382   .     A
C367   C761    1.415   .     S
C368   Br396   1.914   .     S
C368   N378    1.382   .     A
C368   C1158   1.415   1_554 S
Cu369  N377    2.021   .     S
Cu369  Cu370   2.689   .     S
Cu369  O382    1.962   .     S
Cu369  O383    1.972   .     S
Cu369  O386    1.968   .     S
Cu369  O379    1.966   .     S
Cu370  N378    2.021   .     S
Cu370  O381    1.962   .     S
Cu370  O385    1.968   .     S
Cu370  O384    1.972   .     S
Cu370  O380    1.966   .     S
C387   O389    1.399   .     S
C387   C269    1.495   1_655 S
C387   O300    1.223   1_655 S
O389   H390    1.014   .     S
C391   O393    1.399   .     S
O392   C303    1.223   1_655 S
O393   H394    1.014   .     S
C397   O425    1.293   .     A
C397   C408    1.450   .     S
C397   O423    1.296   .     A
C398   O426    1.293   .     A
C398   C407    1.450   .     S
C398   O424    1.296   .     A
C399   O427    1.287   .     A
C399   O429    1.292   .     A
C399   C401    1.438   .     S
C400   O430    1.292   .     A
C400   O428    1.287   .     A
C400   C402    1.438   .     S
C401   C490    1.359   1_455 S
C401   C519    1.495   1_455 S
C402   C445    1.359   .     S
C402   C479    1.495   .     S
C403   H415    1.083   .     S
C403   C408    1.402   .     A
C403   C669    1.383   1_545 S
C404   H416    1.083   .     S
C404   C407    1.402   .     A
C404   C538    1.383   .     S
C405   C407    1.400   .     A
C405   H417    1.083   .     S
C405   C535    1.383   .     S
C406   H418    1.083   .     S
C406   C408    1.400   .     A
C406   C668    1.383   1_545 S
C409   N422    1.359   .     A
C409   H419    1.082   .     S
C410   N421    1.359   .     A
C410   H420    1.082   .     S
C410   C808    1.415   .     S
C411   Br439   1.914   .     S
C411   N421    1.382   .     A
C411   C805    1.415   .     S
C412   Br440   1.914   .     S
C412   N422    1.382   .     A
Cu413  N421    2.021   .     S
Cu413  Cu414   2.689   .     S
Cu413  O426    1.962   .     S
Cu413  O427    1.972   .     S
Cu413  O430    1.968   .     S
Cu413  O423    1.966   .     S
Cu414  N422    2.021   .     S
Cu414  O425    1.962   .     S
Cu414  O429    1.968   .     S
Cu414  O428    1.972   .     S
Cu414  O424    1.966   .     S
C431   O433    1.399   .     S
C431   C445    1.495   .     S
C431   O476    1.223   .     S
O432   C519    1.223   1_455 S
O433   H434    1.014   .     S
C435   O437    1.399   .     S
C435   C490    1.495   1_455 S
C435   O524    1.223   1_455 S
O436   C479    1.223   .     S
O437   H438    1.014   .     S
C441   O469    1.293   .     A
C441   C452    1.450   .     S
C441   O467    1.296   .     A
C442   O470    1.293   .     A
C442   C451    1.450   .     S
C442   O468    1.296   .     A
C443   O471    1.287   .     A
C443   O473    1.292   .     A
C443   C445    1.438   .     S
C444   O474    1.292   .     A
C444   O472    1.287   .     A
C444   C446    1.438   .     S
C446   C489    1.359   .     S
C446   C523    1.495   .     S
C447   H459    1.083   .     S
C447   C452    1.402   .     A
C447   C713    1.383   1_545 S
C448   H460    1.083   .     S
C448   C451    1.402   .     A
C448   C582    1.383   .     S
C449   C451    1.400   .     A
C449   H461    1.083   .     S
C449   C579    1.383   .     S
C450   H462    1.083   .     S
C450   C452    1.400   .     A
C450   C712    1.383   1_545 S
C453   N466    1.359   .     A
C453   H463    1.082   .     S
C454   N465    1.359   .     A
C454   H464    1.082   .     S
C454   C852    1.415   .     S
C455   Br483   1.914   .     S
C455   N465    1.382   .     A
C455   C849    1.415   .     S
C456   Br484   1.914   .     S
C456   N466    1.382   .     A
Cu457  N465    2.021   .     S
Cu457  Cu458   2.689   .     S
Cu457  O470    1.962   .     S
Cu457  O471    1.972   .     S
Cu457  O474    1.968   .     S
Cu457  O467    1.966   .     S
Cu458  N466    2.021   .     S
Cu458  O469    1.962   .     S
Cu458  O473    1.968   .     S
Cu458  O472    1.972   .     S
Cu458  O468    1.966   .     S
C475   O477    1.399   .     S
C475   C489    1.495   .     S
C475   O520    1.223   .     S
O477   H478    1.014   .     S
C479   O481    1.399   .     S
O480   C523    1.223   .     S
O481   H482    1.014   .     S
C485   O513    1.293   .     A
C485   C496    1.450   .     S
C485   O511    1.296   .     A
C486   O514    1.293   .     A
C486   C495    1.450   .     S
C486   O512    1.296   .     A
C487   O515    1.287   .     A
C487   O517    1.292   .     A
C487   C489    1.438   .     S
C488   O518    1.292   .     A
C488   O516    1.287   .     A
C488   C490    1.438   .     S
C490   C401    1.359   1_655 S
C490   C435    1.495   1_655 S
C491   H503    1.083   .     S
C491   C496    1.402   .     A
C491   C757    1.383   1_545 S
C492   H504    1.083   .     S
C492   C495    1.402   .     A
C492   C626    1.383   .     S
C493   C495    1.400   .     A
C493   H505    1.083   .     S
C493   C623    1.383   .     S
C494   H506    1.083   .     S
C494   C496    1.400   .     A
C494   C756    1.383   1_545 S
C497   N510    1.359   .     A
C497   H507    1.082   .     S
C498   N509    1.359   .     A
C498   H508    1.082   .     S
C498   C896    1.415   .     S
C499   Br527   1.914   .     S
C499   N509    1.382   .     A
C499   C893    1.415   .     S
C500   Br528   1.914   .     S
C500   N510    1.382   .     A
Cu501  N509    2.021   .     S
Cu501  Cu502   2.689   .     S
Cu501  O514    1.962   .     S
Cu501  O515    1.972   .     S
Cu501  O518    1.968   .     S
Cu501  O511    1.966   .     S
Cu502  N510    2.021   .     S
Cu502  O513    1.962   .     S
Cu502  O517    1.968   .     S
Cu502  O516    1.972   .     S
Cu502  O512    1.966   .     S
C519   O521    1.399   .     S
C519   C401    1.495   1_655 S
C519   O432    1.223   1_655 S
O521   H522    1.014   .     S
C523   O525    1.399   .     S
O524   C435    1.223   1_655 S
O525   H526    1.014   .     S
C529   O557    1.293   .     A
C529   C540    1.450   .     S
C529   O555    1.296   .     A
C530   O558    1.293   .     A
C530   C539    1.450   .     S
C530   O556    1.296   .     A
C531   O559    1.287   .     A
C531   O561    1.292   .     A
C531   C533    1.438   .     S
C532   O562    1.292   .     A
C532   O560    1.287   .     A
C532   C534    1.438   .     S
C533   C622    1.359   1_455 S
C533   C651    1.495   1_455 S
C534   C577    1.359   .     S
C534   C611    1.495   .     S
C535   H547    1.083   .     S
C535   C540    1.402   .     A
C536   H548    1.083   .     S
C536   C539    1.402   .     A
C536   C670    1.383   .     S
C537   C539    1.400   .     A
C537   H549    1.083   .     S
C537   C667    1.383   .     S
C538   H550    1.083   .     S
C538   C540    1.400   .     A
C541   N554    1.359   .     A
C541   H551    1.082   .     S
C542   N553    1.359   .     A
C542   H552    1.082   .     S
C542   C940    1.415   .     S
C543   Br571   1.914   .     S
C543   N553    1.382   .     A
C543   C937    1.415   .     S
C544   Br572   1.914   .     S
C544   N554    1.382   .     A
Cu545  N553    2.021   .     S
Cu545  Cu546   2.689   .     S
Cu545  O558    1.962   .     S
Cu545  O559    1.972   .     S
Cu545  O562    1.968   .     S
Cu545  O555    1.966   .     S
Cu546  N554    2.021   .     S
Cu546  O557    1.962   .     S
Cu546  O561    1.968   .     S
Cu546  O560    1.972   .     S
Cu546  O556    1.966   .     S
C563   O565    1.399   .     S
C563   C577    1.495   .     S
C563   O608    1.223   .     S
O564   C651    1.223   1_455 S
O565   H566    1.014   .     S
C567   O569    1.399   .     S
C567   C622    1.495   1_455 S
C567   O656    1.223   1_455 S
O568   C611    1.223   .     S
O569   H570    1.014   .     S
C573   O601    1.293   .     A
C573   C584    1.450   .     S
C573   O599    1.296   .     A
C574   O602    1.293   .     A
C574   C583    1.450   .     S
C574   O600    1.296   .     A
C575   O603    1.287   .     A
C575   O605    1.292   .     A
C575   C577    1.438   .     S
C576   O606    1.292   .     A
C576   O604    1.287   .     A
C576   C578    1.438   .     S
C578   C621    1.359   .     S
C578   C655    1.495   .     S
C579   H591    1.083   .     S
C579   C584    1.402   .     A
C580   H592    1.083   .     S
C580   C583    1.402   .     A
C580   C714    1.383   .     S
C581   C583    1.400   .     A
C581   H593    1.083   .     S
C581   C711    1.383   .     S
C582   H594    1.083   .     S
C582   C584    1.400   .     A
C585   N598    1.359   .     A
C585   H595    1.082   .     S
C586   N597    1.359   .     A
C586   H596    1.082   .     S
C586   C984    1.415   .     S
C587   Br615   1.914   .     S
C587   N597    1.382   .     A
C587   C981    1.415   .     S
C588   Br616   1.914   .     S
C588   N598    1.382   .     A
Cu589  N597    2.021   .     S
Cu589  Cu590   2.689   .     S
Cu589  O602    1.962   .     S
Cu589  O603    1.972   .     S
Cu589  O606    1.968   .     S
Cu589  O599    1.966   .     S
Cu590  N598    2.021   .     S
Cu590  O601    1.962   .     S
Cu590  O605    1.968   .     S
Cu590  O604    1.972   .     S
Cu590  O600    1.966   .     S
C607   O609    1.399   .     S
C607   C621    1.495   .     S
C607   O652    1.223   .     S
O609   H610    1.014   .     S
C611   O613    1.399   .     S
O612   C655    1.223   .     S
O613   H614    1.014   .     S
C617   O645    1.293   .     A
C617   C628    1.450   .     S
C617   O643    1.296   .     A
C618   O646    1.293   .     A
C618   C627    1.450   .     S
C618   O644    1.296   .     A
C619   O647    1.287   .     A
C619   O649    1.292   .     A
C619   C621    1.438   .     S
C620   O650    1.292   .     A
C620   O648    1.287   .     A
C620   C622    1.438   .     S
C622   C533    1.359   1_655 S
C622   C567    1.495   1_655 S
C623   H635    1.083   .     S
C623   C628    1.402   .     A
C624   H636    1.083   .     S
C624   C627    1.402   .     A
C624   C758    1.383   .     S
C625   C627    1.400   .     A
C625   H637    1.083   .     S
C625   C755    1.383   .     S
C626   H638    1.083   .     S
C626   C628    1.400   .     A
C629   N642    1.359   .     A
C629   H639    1.082   .     S
C630   N641    1.359   .     A
C630   H640    1.082   .     S
C630   C1028   1.415   .     S
C631   Br659   1.914   .     S
C631   N641    1.382   .     A
C631   C1025   1.415   .     S
C632   Br660   1.914   .     S
C632   N642    1.382   .     A
Cu633  N641    2.021   .     S
Cu633  Cu634   2.689   .     S
Cu633  O646    1.962   .     S
Cu633  O647    1.972   .     S
Cu633  O650    1.968   .     S
Cu633  O643    1.966   .     S
Cu634  N642    2.021   .     S
Cu634  O645    1.962   .     S
Cu634  O649    1.968   .     S
Cu634  O648    1.972   .     S
Cu634  O644    1.966   .     S
C651   O653    1.399   .     S
C651   C533    1.495   1_655 S
C651   O564    1.223   1_655 S
O653   H654    1.014   .     S
C655   O657    1.399   .     S
O656   C567    1.223   1_655 S
O657   H658    1.014   .     S
C661   O689    1.293   .     A
C661   C672    1.450   .     S
C661   O687    1.296   .     A
C662   O690    1.293   .     A
C662   C671    1.450   .     S
C662   O688    1.296   .     A
C663   O691    1.287   .     A
C663   O693    1.292   .     A
C663   C665    1.438   .     S
C664   O694    1.292   .     A
C664   O692    1.287   .     A
C664   C666    1.438   .     S
C665   C754    1.359   1_455 S
C665   C783    1.495   1_455 S
C666   C709    1.359   .     S
C666   C743    1.495   .     S
C667   H679    1.083   .     S
C667   C672    1.402   .     A
C668   H680    1.083   .     S
C668   C671    1.402   .     A
C668   C406    1.383   1_565 S
C669   C671    1.400   .     A
C669   H681    1.083   .     S
C669   C403    1.383   1_565 S
C670   H682    1.083   .     S
C670   C672    1.400   .     A
C673   N686    1.359   .     A
C673   H683    1.082   .     S
C674   N685    1.359   .     A
C674   H684    1.082   .     S
C674   C1072   1.415   .     S
C675   Br703   1.914   .     S
C675   N685    1.382   .     A
C675   C1069   1.415   .     S
C676   Br704   1.914   .     S
C676   N686    1.382   .     A
Cu677  N685    2.021   .     S
Cu677  Cu678   2.689   .     S
Cu677  O690    1.962   .     S
Cu677  O691    1.972   .     S
Cu677  O694    1.968   .     S
Cu677  O687    1.966   .     S
Cu678  N686    2.021   .     S
Cu678  O689    1.962   .     S
Cu678  O693    1.968   .     S
Cu678  O692    1.972   .     S
Cu678  O688    1.966   .     S
C695   O697    1.399   .     S
C695   C709    1.495   .     S
C695   O740    1.223   .     S
O696   C783    1.223   1_455 S
O697   H698    1.014   .     S
C699   O701    1.399   .     S
C699   C754    1.495   1_455 S
C699   O788    1.223   1_455 S
O700   C743    1.223   .     S
O701   H702    1.014   .     S
C705   O733    1.293   .     A
C705   C716    1.450   .     S
C705   O731    1.296   .     A
C706   O734    1.293   .     A
C706   C715    1.450   .     S
C706   O732    1.296   .     A
C707   O735    1.287   .     A
C707   O737    1.292   .     A
C707   C709    1.438   .     S
C708   O738    1.292   .     A
C708   O736    1.287   .     A
C708   C710    1.438   .     S
C710   C753    1.359   .     S
C710   C787    1.495   .     S
C711   H723    1.083   .     S
C711   C716    1.402   .     A
C712   H724    1.083   .     S
C712   C715    1.402   .     A
C712   C450    1.383   1_565 S
C713   C715    1.400   .     A
C713   H725    1.083   .     S
C713   C447    1.383   1_565 S
C714   H726    1.083   .     S
C714   C716    1.400   .     A
C717   N730    1.359   .     A
C717   H727    1.082   .     S
C718   N729    1.359   .     A
C718   H728    1.082   .     S
C718   C1116   1.415   .     S
C719   Br747   1.914   .     S
C719   N729    1.382   .     A
C719   C1113   1.415   .     S
C720   Br748   1.914   .     S
C720   N730    1.382   .     A
Cu721  N729    2.021   .     S
Cu721  Cu722   2.689   .     S
Cu721  O734    1.962   .     S
Cu721  O735    1.972   .     S
Cu721  O738    1.968   .     S
Cu721  O731    1.966   .     S
Cu722  N730    2.021   .     S
Cu722  O733    1.962   .     S
Cu722  O737    1.968   .     S
Cu722  O736    1.972   .     S
Cu722  O732    1.966   .     S
C739   O741    1.399   .     S
C739   C753    1.495   .     S
C739   O784    1.223   .     S
O741   H742    1.014   .     S
C743   O745    1.399   .     S
O744   C787    1.223   .     S
O745   H746    1.014   .     S
C749   O777    1.293   .     A
C749   C760    1.450   .     S
C749   O775    1.296   .     A
C750   O778    1.293   .     A
C750   C759    1.450   .     S
C750   O776    1.296   .     A
C751   O779    1.287   .     A
C751   O781    1.292   .     A
C751   C753    1.438   .     S
C752   O782    1.292   .     A
C752   O780    1.287   .     A
C752   C754    1.438   .     S
C754   C665    1.359   1_655 S
C754   C699    1.495   1_655 S
C755   H767    1.083   .     S
C755   C760    1.402   .     A
C756   H768    1.083   .     S
C756   C759    1.402   .     A
C756   C494    1.383   1_565 S
C757   C759    1.400   .     A
C757   H769    1.083   .     S
C757   C491    1.383   1_565 S
C758   H770    1.083   .     S
C758   C760    1.400   .     A
C761   N774    1.359   .     A
C761   H771    1.082   .     S
C762   N773    1.359   .     A
C762   H772    1.082   .     S
C762   C1160   1.415   .     S
C763   Br791   1.914   .     S
C763   N773    1.382   .     A
C763   C1157   1.415   .     S
C764   Br792   1.914   .     S
C764   N774    1.382   .     A
Cu765  N773    2.021   .     S
Cu765  Cu766   2.689   .     S
Cu765  O778    1.962   .     S
Cu765  O779    1.972   .     S
Cu765  O782    1.968   .     S
Cu765  O775    1.966   .     S
Cu766  N774    2.021   .     S
Cu766  O777    1.962   .     S
Cu766  O781    1.968   .     S
Cu766  O780    1.972   .     S
Cu766  O776    1.966   .     S
C783   O785    1.399   .     S
C783   C665    1.495   1_655 S
C783   O696    1.223   1_655 S
O785   H786    1.014   .     S
C787   O789    1.399   .     S
O788   C699    1.223   1_655 S
O789   H790    1.014   .     S
C793   O821    1.293   .     A
C793   C804    1.450   .     S
C793   O819    1.296   .     A
C794   O822    1.293   .     A
C794   C803    1.450   .     S
C794   O820    1.296   .     A
C795   O823    1.287   .     A
C795   O825    1.292   .     A
C795   C797    1.438   .     S
C796   O826    1.292   .     A
C796   O824    1.287   .     A
C796   C798    1.438   .     S
C797   C886    1.359   1_455 S
C797   C915    1.495   1_455 S
C798   C841    1.359   .     S
C798   C875    1.495   .     S
C799   H811    1.083   .     S
C799   C804    1.402   .     A
C799   C1065   1.383   1_545 S
C800   H812    1.083   .     S
C800   C803    1.402   .     A
C800   C934    1.383   .     S
C801   C803    1.400   .     A
C801   H813    1.083   .     S
C801   C931    1.383   .     S
C802   H814    1.083   .     S
C802   C804    1.400   .     A
C802   C1064   1.383   1_545 S
C805   N818    1.359   .     A
C805   H815    1.082   .     S
C806   N817    1.359   .     A
C806   H816    1.082   .     S
C806   C16     1.415   1_556 S
C807   Br835   1.914   .     S
C807   N817    1.382   .     A
C807   C13     1.415   1_556 S
C808   Br836   1.914   .     S
C808   N818    1.382   .     A
Cu809  N817    2.021   .     S
Cu809  Cu810   2.689   .     S
Cu809  O822    1.962   .     S
Cu809  O823    1.972   .     S
Cu809  O826    1.968   .     S
Cu809  O819    1.966   .     S
Cu810  N818    2.021   .     S
Cu810  O821    1.962   .     S
Cu810  O825    1.968   .     S
Cu810  O824    1.972   .     S
Cu810  O820    1.966   .     S
C827   O829    1.399   .     S
C827   C841    1.495   .     S
C827   O872    1.223   .     S
O828   C915    1.223   1_455 S
O829   H830    1.014   .     S
C831   O833    1.399   .     S
C831   C886    1.495   1_455 S
C831   O920    1.223   1_455 S
O832   C875    1.223   .     S
O833   H834    1.014   .     S
C837   O865    1.293   .     A
C837   C848    1.450   .     S
C837   O863    1.296   .     A
C838   O866    1.293   .     A
C838   C847    1.450   .     S
C838   O864    1.296   .     A
C839   O867    1.287   .     A
C839   O869    1.292   .     A
C839   C841    1.438   .     S
C840   O870    1.292   .     A
C840   O868    1.287   .     A
C840   C842    1.438   .     S
C842   C885    1.359   .     S
C842   C919    1.495   .     S
C843   H855    1.083   .     S
C843   C848    1.402   .     A
C843   C1109   1.383   1_545 S
C844   H856    1.083   .     S
C844   C847    1.402   .     A
C844   C978    1.383   .     S
C845   C847    1.400   .     A
C845   H857    1.083   .     S
C845   C975    1.383   .     S
C846   H858    1.083   .     S
C846   C848    1.400   .     A
C846   C1108   1.383   1_545 S
C849   N862    1.359   .     A
C849   H859    1.082   .     S
C850   N861    1.359   .     A
C850   H860    1.082   .     S
C850   C60     1.415   1_556 S
C851   Br879   1.914   .     S
C851   N861    1.382   .     A
C851   C57     1.415   1_556 S
C852   Br880   1.914   .     S
C852   N862    1.382   .     A
Cu853  N861    2.021   .     S
Cu853  Cu854   2.689   .     S
Cu853  O866    1.962   .     S
Cu853  O867    1.972   .     S
Cu853  O870    1.968   .     S
Cu853  O863    1.966   .     S
Cu854  N862    2.021   .     S
Cu854  O865    1.962   .     S
Cu854  O869    1.968   .     S
Cu854  O868    1.972   .     S
Cu854  O864    1.966   .     S
C871   O873    1.399   .     S
C871   C885    1.495   .     S
C871   O916    1.223   .     S
O873   H874    1.014   .     S
C875   O877    1.399   .     S
O876   C919    1.223   .     S
O877   H878    1.014   .     S
C881   O909    1.293   .     A
C881   C892    1.450   .     S
C881   O907    1.296   .     A
C882   O910    1.293   .     A
C882   C891    1.450   .     S
C882   O908    1.296   .     A
C883   O911    1.287   .     A
C883   O913    1.292   .     A
C883   C885    1.438   .     S
C884   O914    1.292   .     A
C884   O912    1.287   .     A
C884   C886    1.438   .     S
C886   C797    1.359   1_655 S
C886   C831    1.495   1_655 S
C887   H899    1.083   .     S
C887   C892    1.402   .     A
C887   C1153   1.383   1_545 S
C888   H900    1.083   .     S
C888   C891    1.402   .     A
C888   C1022   1.383   .     S
C889   C891    1.400   .     A
C889   H901    1.083   .     S
C889   C1019   1.383   .     S
C890   H902    1.083   .     S
C890   C892    1.400   .     A
C890   C1152   1.383   1_545 S
C893   N906    1.359   .     A
C893   H903    1.082   .     S
C894   N905    1.359   .     A
C894   H904    1.082   .     S
C894   C104    1.415   1_556 S
C895   Br923   1.914   .     S
C895   N905    1.382   .     A
C895   C101    1.415   1_556 S
C896   Br924   1.914   .     S
C896   N906    1.382   .     A
Cu897  N905    2.021   .     S
Cu897  Cu898   2.689   .     S
Cu897  O910    1.962   .     S
Cu897  O911    1.972   .     S
Cu897  O914    1.968   .     S
Cu897  O907    1.966   .     S
Cu898  N906    2.021   .     S
Cu898  O909    1.962   .     S
Cu898  O913    1.968   .     S
Cu898  O912    1.972   .     S
Cu898  O908    1.966   .     S
C915   O917    1.399   .     S
C915   C797    1.495   1_655 S
C915   O828    1.223   1_655 S
O917   H918    1.014   .     S
C919   O921    1.399   .     S
O920   C831    1.223   1_655 S
O921   H922    1.014   .     S
C925   O953    1.293   .     A
C925   C936    1.450   .     S
C925   O951    1.296   .     A
C926   O954    1.293   .     A
C926   C935    1.450   .     S
C926   O952    1.296   .     A
C927   O955    1.287   .     A
C927   O957    1.292   .     A
C927   C929    1.438   .     S
C928   O958    1.292   .     A
C928   O956    1.287   .     A
C928   C930    1.438   .     S
C929   C1018   1.359   1_455 S
C929   C1047   1.495   1_455 S
C930   C973    1.359   .     S
C930   C1007   1.495   .     S
C931   H943    1.083   .     S
C931   C936    1.402   .     A
C932   H944    1.083   .     S
C932   C935    1.402   .     A
C932   C1066   1.383   .     S
C933   C935    1.400   .     A
C933   H945    1.083   .     S
C933   C1063   1.383   .     S
C934   H946    1.083   .     S
C934   C936    1.400   .     A
C937   N950    1.359   .     A
C937   H947    1.082   .     S
C938   N949    1.359   .     A
C938   H948    1.082   .     S
C938   C148    1.415   1_556 S
C939   Br967   1.914   .     S
C939   N949    1.382   .     A
C939   C145    1.415   1_556 S
C940   Br968   1.914   .     S
C940   N950    1.382   .     A
Cu941  N949    2.021   .     S
Cu941  Cu942   2.689   .     S
Cu941  O954    1.962   .     S
Cu941  O955    1.972   .     S
Cu941  O958    1.968   .     S
Cu941  O951    1.966   .     S
Cu942  N950    2.021   .     S
Cu942  O953    1.962   .     S
Cu942  O957    1.968   .     S
Cu942  O956    1.972   .     S
Cu942  O952    1.966   .     S
C959   O961    1.399   .     S
C959   C973    1.495   .     S
C959   O1004   1.223   .     S
O960   C1047   1.223   1_455 S
O961   H962    1.014   .     S
C963   O965    1.399   .     S
C963   C1018   1.495   1_455 S
C963   O1052   1.223   1_455 S
O964   C1007   1.223   .     S
O965   H966    1.014   .     S
C969   O997    1.293   .     A
C969   C980    1.450   .     S
C969   O995    1.296   .     A
C970   O998    1.293   .     A
C970   C979    1.450   .     S
C970   O996    1.296   .     A
C971   O999    1.287   .     A
C971   O1001   1.292   .     A
C971   C973    1.438   .     S
C972   O1002   1.292   .     A
C972   O1000   1.287   .     A
C972   C974    1.438   .     S
C974   C1017   1.359   .     S
C974   C1051   1.495   .     S
C975   H987    1.083   .     S
C975   C980    1.402   .     A
C976   H988    1.083   .     S
C976   C979    1.402   .     A
C976   C1110   1.383   .     S
C977   C979    1.400   .     A
C977   H989    1.083   .     S
C977   C1107   1.383   .     S
C978   H990    1.083   .     S
C978   C980    1.400   .     A
C981   N994    1.359   .     A
C981   H991    1.082   .     S
C982   N993    1.359   .     A
C982   H992    1.082   .     S
C982   C192    1.415   1_556 S
C983   Br1011  1.914   .     S
C983   N993    1.382   .     A
C983   C189    1.415   1_556 S
C984   Br1012  1.914   .     S
C984   N994    1.382   .     A
Cu985  N993    2.021   .     S
Cu985  Cu986   2.689   .     S
Cu985  O998    1.962   .     S
Cu985  O999    1.972   .     S
Cu985  O1002   1.968   .     S
Cu985  O995    1.966   .     S
Cu986  N994    2.021   .     S
Cu986  O997    1.962   .     S
Cu986  O1001   1.968   .     S
Cu986  O1000   1.972   .     S
Cu986  O996    1.966   .     S
C1003  O1005   1.399   .     S
C1003  C1017   1.495   .     S
C1003  O1048   1.223   .     S
O1005  H1006   1.014   .     S
C1007  O1009   1.399   .     S
O1008  C1051   1.223   .     S
O1009  H1010   1.014   .     S
C1013  O1041   1.293   .     A
C1013  C1024   1.450   .     S
C1013  O1039   1.296   .     A
C1014  O1042   1.293   .     A
C1014  C1023   1.450   .     S
C1014  O1040   1.296   .     A
C1015  O1043   1.287   .     A
C1015  O1045   1.292   .     A
C1015  C1017   1.438   .     S
C1016  O1046   1.292   .     A
C1016  O1044   1.287   .     A
C1016  C1018   1.438   .     S
C1018  C929    1.359   1_655 S
C1018  C963    1.495   1_655 S
C1019  H1031   1.083   .     S
C1019  C1024   1.402   .     A
C1020  H1032   1.083   .     S
C1020  C1023   1.402   .     A
C1020  C1154   1.383   .     S
C1021  C1023   1.400   .     A
C1021  H1033   1.083   .     S
C1021  C1151   1.383   .     S
C1022  H1034   1.083   .     S
C1022  C1024   1.400   .     A
C1025  N1038   1.359   .     A
C1025  H1035   1.082   .     S
C1026  N1037   1.359   .     A
C1026  H1036   1.082   .     S
C1026  C236    1.415   1_556 S
C1027  Br1055  1.914   .     S
C1027  N1037   1.382   .     A
C1027  C233    1.415   1_556 S
C1028  Br1056  1.914   .     S
C1028  N1038   1.382   .     A
Cu1029 N1037   2.021   .     S
Cu1029 Cu1030  2.689   .     S
Cu1029 O1042   1.962   .     S
Cu1029 O1043   1.972   .     S
Cu1029 O1046   1.968   .     S
Cu1029 O1039   1.966   .     S
Cu1030 N1038   2.021   .     S
Cu1030 O1041   1.962   .     S
Cu1030 O1045   1.968   .     S
Cu1030 O1044   1.972   .     S
Cu1030 O1040   1.966   .     S
C1047  O1049   1.399   .     S
C1047  C929    1.495   1_655 S
C1047  O960    1.223   1_655 S
O1049  H1050   1.014   .     S
C1051  O1053   1.399   .     S
O1052  C963    1.223   1_655 S
O1053  H1054   1.014   .     S
C1057  O1085   1.293   .     A
C1057  C1068   1.450   .     S
C1057  O1083   1.296   .     A
C1058  O1086   1.293   .     A
C1058  C1067   1.450   .     S
C1058  O1084   1.296   .     A
C1059  O1087   1.287   .     A
C1059  O1089   1.292   .     A
C1059  C1061   1.438   .     S
C1060  O1090   1.292   .     A
C1060  O1088   1.287   .     A
C1060  C1062   1.438   .     S
C1061  C1150   1.359   1_455 S
C1061  C1179   1.495   1_455 S
C1062  C1105   1.359   .     S
C1062  C1139   1.495   .     S
C1063  H1075   1.083   .     S
C1063  C1068   1.402   .     A
C1064  H1076   1.083   .     S
C1064  C1067   1.402   .     A
C1064  C802    1.383   1_565 S
C1065  C1067   1.400   .     A
C1065  H1077   1.083   .     S
C1065  C799    1.383   1_565 S
C1066  H1078   1.083   .     S
C1066  C1068   1.400   .     A
C1069  N1082   1.359   .     A
C1069  H1079   1.082   .     S
C1070  N1081   1.359   .     A
C1070  H1080   1.082   .     S
C1070  C280    1.415   1_556 S
C1071  Br1099  1.914   .     S
C1071  N1081   1.382   .     A
C1071  C277    1.415   1_556 S
C1072  Br1100  1.914   .     S
C1072  N1082   1.382   .     A
Cu1073 N1081   2.021   .     S
Cu1073 Cu1074  2.689   .     S
Cu1073 O1086   1.962   .     S
Cu1073 O1087   1.972   .     S
Cu1073 O1090   1.968   .     S
Cu1073 O1083   1.966   .     S
Cu1074 N1082   2.021   .     S
Cu1074 O1085   1.962   .     S
Cu1074 O1089   1.968   .     S
Cu1074 O1088   1.972   .     S
Cu1074 O1084   1.966   .     S
C1091  O1093   1.399   .     S
C1091  C1105   1.495   .     S
C1091  O1136   1.223   .     S
O1092  C1179   1.223   1_455 S
O1093  H1094   1.014   .     S
C1095  O1097   1.399   .     S
C1095  C1150   1.495   1_455 S
C1095  O1184   1.223   1_455 S
O1096  C1139   1.223   .     S
O1097  H1098   1.014   .     S
C1101  O1129   1.293   .     A
C1101  C1112   1.450   .     S
C1101  O1127   1.296   .     A
C1102  O1130   1.293   .     A
C1102  C1111   1.450   .     S
C1102  O1128   1.296   .     A
C1103  O1131   1.287   .     A
C1103  O1133   1.292   .     A
C1103  C1105   1.438   .     S
C1104  O1134   1.292   .     A
C1104  O1132   1.287   .     A
C1104  C1106   1.438   .     S
C1106  C1149   1.359   .     S
C1106  C1183   1.495   .     S
C1107  H1119   1.083   .     S
C1107  C1112   1.402   .     A
C1108  H1120   1.083   .     S
C1108  C1111   1.402   .     A
C1108  C846    1.383   1_565 S
C1109  C1111   1.400   .     A
C1109  H1121   1.083   .     S
C1109  C843    1.383   1_565 S
C1110  H1122   1.083   .     S
C1110  C1112   1.400   .     A
C1113  N1126   1.359   .     A
C1113  H1123   1.082   .     S
C1114  N1125   1.359   .     A
C1114  H1124   1.082   .     S
C1114  C324    1.415   1_556 S
C1115  Br1143  1.914   .     S
C1115  N1125   1.382   .     A
C1115  C321    1.415   1_556 S
C1116  Br1144  1.914   .     S
C1116  N1126   1.382   .     A
Cu1117 N1125   2.021   .     S
Cu1117 Cu1118  2.689   .     S
Cu1117 O1130   1.962   .     S
Cu1117 O1131   1.972   .     S
Cu1117 O1134   1.968   .     S
Cu1117 O1127   1.966   .     S
Cu1118 N1126   2.021   .     S
Cu1118 O1129   1.962   .     S
Cu1118 O1133   1.968   .     S
Cu1118 O1132   1.972   .     S
Cu1118 O1128   1.966   .     S
C1135  O1137   1.399   .     S
C1135  C1149   1.495   .     S
C1135  O1180   1.223   .     S
O1137  H1138   1.014   .     S
C1139  O1141   1.399   .     S
O1140  C1183   1.223   .     S
O1141  H1142   1.014   .     S
C1145  O1173   1.293   .     A
C1145  C1156   1.450   .     S
C1145  O1171   1.296   .     A
C1146  O1174   1.293   .     A
C1146  C1155   1.450   .     S
C1146  O1172   1.296   .     A
C1147  O1175   1.287   .     A
C1147  O1177   1.292   .     A
C1147  C1149   1.438   .     S
C1148  O1178   1.292   .     A
C1148  O1176   1.287   .     A
C1148  C1150   1.438   .     S
C1150  C1061   1.359   1_655 S
C1150  C1095   1.495   1_655 S
C1151  H1163   1.083   .     S
C1151  C1156   1.402   .     A
C1152  H1164   1.083   .     S
C1152  C1155   1.402   .     A
C1152  C890    1.383   1_565 S
C1153  C1155   1.400   .     A
C1153  H1165   1.083   .     S
C1153  C887    1.383   1_565 S
C1154  H1166   1.083   .     S
C1154  C1156   1.400   .     A
C1157  N1170   1.359   .     A
C1157  H1167   1.082   .     S
C1158  N1169   1.359   .     A
C1158  H1168   1.082   .     S
C1158  C368    1.415   1_556 S
C1159  Br1187  1.914   .     S
C1159  N1169   1.382   .     A
C1159  C365    1.415   1_556 S
C1160  Br1188  1.914   .     S
C1160  N1170   1.382   .     A
Cu1161 N1169   2.021   .     S
Cu1161 Cu1162  2.689   .     S
Cu1161 O1174   1.962   .     S
Cu1161 O1175   1.972   .     S
Cu1161 O1178   1.968   .     S
Cu1161 O1171   1.966   .     S
Cu1162 N1170   2.021   .     S
Cu1162 O1173   1.962   .     S
Cu1162 O1177   1.968   .     S
Cu1162 O1176   1.972   .     S
Cu1162 O1172   1.966   .     S
C1179  O1181   1.399   .     S
C1179  C1061   1.495   1_655 S
C1179  O1092   1.223   1_655 S
O1181  H1182   1.014   .     S
C1183  O1185   1.399   .     S
O1184  C1095   1.223   1_655 S
O1185  H1186   1.014   .     S
