data_str_m3_o1_o10_pcu_sym.180
_audit_creation_date              2020-01-03
_audit_creation_method            'Materials Studio'
_symmetry_space_group_name_H-M    'P1'
_symmetry_Int_Tables_number       1
_symmetry_cell_setting            triclinic
loop_
_symmetry_equiv_pos_as_xyz
  x,y,z
_cell_length_a                    25.8673
_cell_length_b                    32.0120
_cell_length_c                    29.6287
_cell_angle_alpha                 90.7630
_cell_angle_beta                  97.6189
_cell_angle_gamma                 90.0491
loop_
_atom_site_label
_atom_site_type_symbol
_atom_site_fract_x
_atom_site_fract_y
_atom_site_fract_z
_atom_site_U_iso_or_equiv
_atom_site_adp_type
_atom_site_occupancy
C1     C     0.16762   0.08673   0.16642   0.00000  Uiso   1.00
C2     C     0.16571   0.24660   0.16691   0.00000  Uiso   1.00
C3     C     0.06743   0.16836   0.15530   0.00000  Uiso   1.00
C4     C     0.26590   0.16497   0.17803   0.00000  Uiso   1.00
C5     C     0.01351   0.17667   0.15173   0.00000  Uiso   1.00
C6     C     0.31982   0.15666   0.18160   0.00000  Uiso   1.00
C7     C     0.19632   0.02012   0.13666   0.00000  Uiso   1.00
C8     C     0.13701   0.31322   0.19667   0.00000  Uiso   1.00
C9     C     0.19498   0.31066   0.13774   0.00000  Uiso   1.00
C10    C     0.13836   0.02268   0.19559   0.00000  Uiso   1.00
C11    C     0.16563   0.29074   0.16744   0.00000  Uiso   1.00
C12    C     0.16770   0.04259   0.16589   0.00000  Uiso   1.00
C13    C     0.19743   0.19379   0.02820   0.00000  Uiso   1.00
C14    C     0.13590   0.13954   0.30513   0.00000  Uiso   1.00
C15    C     0.19779   0.19376   0.31383   0.00000  Uiso   1.00
C16    C     0.13554   0.13958   0.01950   0.00000  Uiso   1.00
H17    H     0.21753   0.29286   0.11584   0.00000  Uiso   1.00
H18    H     0.11580   0.04047   0.21749   0.00000  Uiso   1.00
H19    H     0.22169   0.21563   0.04968   0.00000  Uiso   1.00
H20    H     0.11164   0.11771   0.28366   0.00000  Uiso   1.00
N21    N     0.16665   0.16666   0.28573   0.00000  Uiso   1.00
N22    N     0.16668   0.16668   0.04760   0.00000  Uiso   1.00
O23    O     0.16666   0.10558   0.20487   0.00000  Uiso   1.00
O24    O     0.16667   0.22775   0.12846   0.00000  Uiso   1.00
O25    O     0.16666   0.10559   0.12843   0.00000  Uiso   1.00
O26    O     0.16667   0.22774   0.20490   0.00000  Uiso   1.00
O27    O     0.09058   0.16666   0.19595   0.00000  Uiso   1.00
O28    O     0.24275   0.16667   0.13739   0.00000  Uiso   1.00
O29    O     0.09058   0.16667   0.11950   0.00000  Uiso   1.00
O30    O     0.24275   0.16666   0.21383   0.00000  Uiso   1.00
Zn31   Zn    0.16667   0.16666   0.21771   0.00000  Uiso   1.00
Zn32   Zn    0.16667   0.16667   0.11563   0.00000  Uiso   1.00
C33    C     0.32476   0.21221   0.12015   0.00000  Uiso   1.00
C34    C     0.03072   0.24589   0.11102   0.00000  Uiso   1.00
H35    H     0.05285   0.25720   0.14345   0.00000  Uiso   1.00
H36    H     0.05794   0.23401   0.08792   0.00000  Uiso   1.00
H37    H     0.00954   0.27280   0.09407   0.00000  Uiso   1.00
H38    H     0.30743   0.19838   0.08701   0.00000  Uiso   1.00
H39    H     0.29392   0.22943   0.13544   0.00000  Uiso   1.00
C40    C     0.00857   0.12111   0.21318   0.00000  Uiso   1.00
C41    C     0.30261   0.08743   0.22228   0.00000  Uiso   1.00
H42    H     0.27537   0.09929   0.24537   0.00000  Uiso   1.00
H43    H     0.28051   0.07612   0.18984   0.00000  Uiso   1.00
H44    H     0.32379   0.06052   0.23923   0.00000  Uiso   1.00
H45    H     0.03943   0.10390   0.19790   0.00000  Uiso   1.00
H46    H     0.02588   0.13494   0.24633   0.00000  Uiso   1.00
Br47   Br    0.23983   0.04525   0.09647   0.00000  Uiso   1.00
Br48   Br    0.09348   0.28808   0.23684   0.00000  Uiso   1.00
Br49   Br    0.24378   0.23230   0.29052   0.00000  Uiso   1.00
Br50   Br    0.08956   0.10103   0.04282   0.00000  Uiso   1.00
C51    C     0.50095   0.08673   0.16642   0.00000  Uiso   1.00
C52    C     0.49905   0.24660   0.16691   0.00000  Uiso   1.00
C53    C     0.40076   0.16836   0.15530   0.00000  Uiso   1.00
C54    C     0.59924   0.16497   0.17803   0.00000  Uiso   1.00
C55    C     0.34684   0.17667   0.15173   0.00000  Uiso   1.00
C56    C     0.65316   0.15666   0.18160   0.00000  Uiso   1.00
C57    C     0.52965   0.02012   0.13666   0.00000  Uiso   1.00
C58    C     0.47034   0.31322   0.19667   0.00000  Uiso   1.00
C59    C     0.52831   0.31066   0.13774   0.00000  Uiso   1.00
C60    C     0.47169   0.02268   0.19559   0.00000  Uiso   1.00
C61    C     0.49896   0.29074   0.16744   0.00000  Uiso   1.00
C62    C     0.50104   0.04259   0.16589   0.00000  Uiso   1.00
C63    C     0.53076   0.19379   0.02820   0.00000  Uiso   1.00
C64    C     0.46924   0.13954   0.30513   0.00000  Uiso   1.00
C65    C     0.53113   0.19376   0.31383   0.00000  Uiso   1.00
C66    C     0.46887   0.13958   0.01950   0.00000  Uiso   1.00
H67    H     0.55086   0.29286   0.11584   0.00000  Uiso   1.00
H68    H     0.44914   0.04047   0.21749   0.00000  Uiso   1.00
H69    H     0.55502   0.21563   0.04968   0.00000  Uiso   1.00
H70    H     0.44498   0.11771   0.28366   0.00000  Uiso   1.00
N71    N     0.49999   0.16666   0.28573   0.00000  Uiso   1.00
N72    N     0.50001   0.16668   0.04760   0.00000  Uiso   1.00
O73    O     0.50000   0.10558   0.20487   0.00000  Uiso   1.00
O74    O     0.50000   0.22775   0.12846   0.00000  Uiso   1.00
O75    O     0.50000   0.10559   0.12843   0.00000  Uiso   1.00
O76    O     0.50000   0.22774   0.20490   0.00000  Uiso   1.00
O77    O     0.42392   0.16666   0.19595   0.00000  Uiso   1.00
O78    O     0.57608   0.16667   0.13739   0.00000  Uiso   1.00
O79    O     0.42392   0.16667   0.11950   0.00000  Uiso   1.00
O80    O     0.57608   0.16666   0.21383   0.00000  Uiso   1.00
Zn81   Zn    0.50000   0.16666   0.21771   0.00000  Uiso   1.00
Zn82   Zn    0.50000   0.16667   0.11563   0.00000  Uiso   1.00
C83    C     0.65809   0.21221   0.12015   0.00000  Uiso   1.00
C84    C     0.36406   0.24589   0.11102   0.00000  Uiso   1.00
H85    H     0.38618   0.25720   0.14345   0.00000  Uiso   1.00
H86    H     0.39127   0.23401   0.08792   0.00000  Uiso   1.00
H87    H     0.34287   0.27280   0.09407   0.00000  Uiso   1.00
H88    H     0.64076   0.19838   0.08701   0.00000  Uiso   1.00
H89    H     0.62725   0.22943   0.13544   0.00000  Uiso   1.00
C90    C     0.34190   0.12111   0.21318   0.00000  Uiso   1.00
C91    C     0.63594   0.08743   0.22228   0.00000  Uiso   1.00
H92    H     0.60871   0.09929   0.24537   0.00000  Uiso   1.00
H93    H     0.61384   0.07612   0.18984   0.00000  Uiso   1.00
H94    H     0.65713   0.06052   0.23923   0.00000  Uiso   1.00
H95    H     0.37276   0.10390   0.19790   0.00000  Uiso   1.00
H96    H     0.35921   0.13494   0.24633   0.00000  Uiso   1.00
Br97   Br    0.57316   0.04525   0.09647   0.00000  Uiso   1.00
Br98   Br    0.42682   0.28808   0.23684   0.00000  Uiso   1.00
Br99   Br    0.57711   0.23230   0.29052   0.00000  Uiso   1.00
Br100  Br    0.42289   0.10103   0.04282   0.00000  Uiso   1.00
C101   C     0.83429   0.08673   0.16642   0.00000  Uiso   1.00
C102   C     0.83238   0.24660   0.16691   0.00000  Uiso   1.00
C103   C     0.73410   0.16836   0.15530   0.00000  Uiso   1.00
C104   C     0.93257   0.16497   0.17803   0.00000  Uiso   1.00
C105   C     0.68018   0.17667   0.15173   0.00000  Uiso   1.00
C106   C     0.98649   0.15666   0.18160   0.00000  Uiso   1.00
C107   C     0.86299   0.02012   0.13666   0.00000  Uiso   1.00
C108   C     0.80367   0.31322   0.19667   0.00000  Uiso   1.00
C109   C     0.86164   0.31066   0.13774   0.00000  Uiso   1.00
C110   C     0.80502   0.02268   0.19559   0.00000  Uiso   1.00
C111   C     0.83230   0.29074   0.16744   0.00000  Uiso   1.00
C112   C     0.83437   0.04259   0.16589   0.00000  Uiso   1.00
C113   C     0.86410   0.19379   0.02820   0.00000  Uiso   1.00
C114   C     0.80257   0.13954   0.30513   0.00000  Uiso   1.00
C115   C     0.86446   0.19376   0.31383   0.00000  Uiso   1.00
C116   C     0.80221   0.13958   0.01950   0.00000  Uiso   1.00
H117   H     0.88420   0.29286   0.11584   0.00000  Uiso   1.00
H118   H     0.78247   0.04047   0.21749   0.00000  Uiso   1.00
H119   H     0.88835   0.21563   0.04968   0.00000  Uiso   1.00
H120   H     0.77831   0.11771   0.28366   0.00000  Uiso   1.00
N121   N     0.83332   0.16666   0.28573   0.00000  Uiso   1.00
N122   N     0.83335   0.16668   0.04760   0.00000  Uiso   1.00
O123   O     0.83333   0.10558   0.20487   0.00000  Uiso   1.00
O124   O     0.83334   0.22775   0.12846   0.00000  Uiso   1.00
O125   O     0.83333   0.10559   0.12843   0.00000  Uiso   1.00
O126   O     0.83334   0.22774   0.20490   0.00000  Uiso   1.00
O127   O     0.75725   0.16666   0.19595   0.00000  Uiso   1.00
O128   O     0.90942   0.16667   0.13739   0.00000  Uiso   1.00
O129   O     0.75725   0.16667   0.11950   0.00000  Uiso   1.00
O130   O     0.90942   0.16666   0.21383   0.00000  Uiso   1.00
Zn131  Zn    0.83333   0.16666   0.21771   0.00000  Uiso   1.00
Zn132  Zn    0.83333   0.16667   0.11563   0.00000  Uiso   1.00
C133   C     0.99143   0.21221   0.12015   0.00000  Uiso   1.00
C134   C     0.69739   0.24589   0.11102   0.00000  Uiso   1.00
H135   H     0.71952   0.25720   0.14345   0.00000  Uiso   1.00
H136   H     0.72460   0.23401   0.08792   0.00000  Uiso   1.00
H137   H     0.67621   0.27280   0.09407   0.00000  Uiso   1.00
H138   H     0.97409   0.19838   0.08701   0.00000  Uiso   1.00
H139   H     0.96059   0.22943   0.13544   0.00000  Uiso   1.00
C140   C     0.67524   0.12111   0.21318   0.00000  Uiso   1.00
C141   C     0.96928   0.08743   0.22228   0.00000  Uiso   1.00
H142   H     0.94204   0.09929   0.24537   0.00000  Uiso   1.00
H143   H     0.94717   0.07612   0.18984   0.00000  Uiso   1.00
H144   H     0.99046   0.06052   0.23923   0.00000  Uiso   1.00
H145   H     0.70609   0.10390   0.19790   0.00000  Uiso   1.00
H146   H     0.69254   0.13494   0.24633   0.00000  Uiso   1.00
Br147  Br    0.90650   0.04525   0.09647   0.00000  Uiso   1.00
Br148  Br    0.76015   0.28808   0.23684   0.00000  Uiso   1.00
Br149  Br    0.91044   0.23230   0.29052   0.00000  Uiso   1.00
Br150  Br    0.75622   0.10103   0.04282   0.00000  Uiso   1.00
C151   C     0.16762   0.42006   0.16642   0.00000  Uiso   1.00
C152   C     0.16571   0.57994   0.16691   0.00000  Uiso   1.00
C153   C     0.06743   0.50169   0.15530   0.00000  Uiso   1.00
C154   C     0.26590   0.49831   0.17803   0.00000  Uiso   1.00
C155   C     0.01351   0.51000   0.15173   0.00000  Uiso   1.00
C156   C     0.31982   0.48999   0.18160   0.00000  Uiso   1.00
C157   C     0.19632   0.35345   0.13666   0.00000  Uiso   1.00
C158   C     0.13701   0.64655   0.19667   0.00000  Uiso   1.00
C159   C     0.19498   0.64399   0.13774   0.00000  Uiso   1.00
C160   C     0.13836   0.35601   0.19559   0.00000  Uiso   1.00
C161   C     0.16563   0.62407   0.16744   0.00000  Uiso   1.00
C162   C     0.16770   0.37593   0.16589   0.00000  Uiso   1.00
C163   C     0.19743   0.52712   0.02820   0.00000  Uiso   1.00
C164   C     0.13590   0.47288   0.30513   0.00000  Uiso   1.00
C165   C     0.19779   0.52709   0.31383   0.00000  Uiso   1.00
C166   C     0.13554   0.47291   0.01950   0.00000  Uiso   1.00
H167   H     0.21753   0.62620   0.11584   0.00000  Uiso   1.00
H168   H     0.11580   0.37380   0.21749   0.00000  Uiso   1.00
H169   H     0.22169   0.54896   0.04968   0.00000  Uiso   1.00
H170   H     0.11164   0.45104   0.28366   0.00000  Uiso   1.00
N171   N     0.16665   0.49999   0.28573   0.00000  Uiso   1.00
N172   N     0.16668   0.50001   0.04760   0.00000  Uiso   1.00
O173   O     0.16666   0.43892   0.20487   0.00000  Uiso   1.00
O174   O     0.16667   0.56108   0.12846   0.00000  Uiso   1.00
O175   O     0.16666   0.43893   0.12843   0.00000  Uiso   1.00
O176   O     0.16667   0.56107   0.20490   0.00000  Uiso   1.00
O177   O     0.09058   0.50000   0.19595   0.00000  Uiso   1.00
O178   O     0.24275   0.50000   0.13739   0.00000  Uiso   1.00
O179   O     0.09058   0.50000   0.11950   0.00000  Uiso   1.00
O180   O     0.24275   0.50000   0.21383   0.00000  Uiso   1.00
Zn181  Zn    0.16667   0.49999   0.21771   0.00000  Uiso   1.00
Zn182  Zn    0.16667   0.50001   0.11563   0.00000  Uiso   1.00
C183   C     0.32476   0.54555   0.12015   0.00000  Uiso   1.00
C184   C     0.03072   0.57922   0.11102   0.00000  Uiso   1.00
H185   H     0.05285   0.59053   0.14345   0.00000  Uiso   1.00
H186   H     0.05794   0.56734   0.08792   0.00000  Uiso   1.00
H187   H     0.00954   0.60613   0.09407   0.00000  Uiso   1.00
H188   H     0.30743   0.53171   0.08701   0.00000  Uiso   1.00
H189   H     0.29392   0.56277   0.13544   0.00000  Uiso   1.00
C190   C     0.00857   0.45445   0.21318   0.00000  Uiso   1.00
C191   C     0.30261   0.42076   0.22228   0.00000  Uiso   1.00
H192   H     0.27537   0.43262   0.24537   0.00000  Uiso   1.00
H193   H     0.28051   0.40945   0.18984   0.00000  Uiso   1.00
H194   H     0.32379   0.39385   0.23923   0.00000  Uiso   1.00
H195   H     0.03943   0.43724   0.19790   0.00000  Uiso   1.00
H196   H     0.02588   0.46828   0.24633   0.00000  Uiso   1.00
Br197  Br    0.23983   0.37859   0.09647   0.00000  Uiso   1.00
Br198  Br    0.09348   0.62141   0.23684   0.00000  Uiso   1.00
Br199  Br    0.24378   0.56563   0.29052   0.00000  Uiso   1.00
Br200  Br    0.08956   0.43436   0.04282   0.00000  Uiso   1.00
C201   C     0.50095   0.42006   0.16642   0.00000  Uiso   1.00
C202   C     0.49905   0.57994   0.16691   0.00000  Uiso   1.00
C203   C     0.40076   0.50169   0.15530   0.00000  Uiso   1.00
C204   C     0.59924   0.49831   0.17803   0.00000  Uiso   1.00
C205   C     0.34684   0.51000   0.15173   0.00000  Uiso   1.00
C206   C     0.65316   0.48999   0.18160   0.00000  Uiso   1.00
C207   C     0.52965   0.35345   0.13666   0.00000  Uiso   1.00
C208   C     0.47034   0.64655   0.19667   0.00000  Uiso   1.00
C209   C     0.52831   0.64399   0.13774   0.00000  Uiso   1.00
C210   C     0.47169   0.35601   0.19559   0.00000  Uiso   1.00
C211   C     0.49896   0.62407   0.16744   0.00000  Uiso   1.00
C212   C     0.50104   0.37593   0.16589   0.00000  Uiso   1.00
C213   C     0.53076   0.52712   0.02820   0.00000  Uiso   1.00
C214   C     0.46924   0.47288   0.30513   0.00000  Uiso   1.00
C215   C     0.53113   0.52709   0.31383   0.00000  Uiso   1.00
C216   C     0.46887   0.47291   0.01950   0.00000  Uiso   1.00
H217   H     0.55086   0.62620   0.11584   0.00000  Uiso   1.00
H218   H     0.44914   0.37380   0.21749   0.00000  Uiso   1.00
H219   H     0.55502   0.54896   0.04968   0.00000  Uiso   1.00
H220   H     0.44498   0.45104   0.28366   0.00000  Uiso   1.00
N221   N     0.49999   0.49999   0.28573   0.00000  Uiso   1.00
N222   N     0.50001   0.50001   0.04760   0.00000  Uiso   1.00
O223   O     0.50000   0.43892   0.20487   0.00000  Uiso   1.00
O224   O     0.50000   0.56108   0.12846   0.00000  Uiso   1.00
O225   O     0.50000   0.43893   0.12843   0.00000  Uiso   1.00
O226   O     0.50000   0.56107   0.20490   0.00000  Uiso   1.00
O227   O     0.42392   0.50000   0.19595   0.00000  Uiso   1.00
O228   O     0.57608   0.50000   0.13739   0.00000  Uiso   1.00
O229   O     0.42392   0.50000   0.11950   0.00000  Uiso   1.00
O230   O     0.57608   0.50000   0.21383   0.00000  Uiso   1.00
Zn231  Zn    0.50000   0.49999   0.21771   0.00000  Uiso   1.00
Zn232  Zn    0.50000   0.50001   0.11563   0.00000  Uiso   1.00
C233   C     0.65809   0.54555   0.12015   0.00000  Uiso   1.00
C234   C     0.36406   0.57922   0.11102   0.00000  Uiso   1.00
H235   H     0.38618   0.59053   0.14345   0.00000  Uiso   1.00
H236   H     0.39127   0.56734   0.08792   0.00000  Uiso   1.00
H237   H     0.34287   0.60613   0.09407   0.00000  Uiso   1.00
H238   H     0.64076   0.53171   0.08701   0.00000  Uiso   1.00
H239   H     0.62725   0.56277   0.13544   0.00000  Uiso   1.00
C240   C     0.34190   0.45445   0.21318   0.00000  Uiso   1.00
C241   C     0.63594   0.42076   0.22228   0.00000  Uiso   1.00
H242   H     0.60871   0.43262   0.24537   0.00000  Uiso   1.00
H243   H     0.61384   0.40945   0.18984   0.00000  Uiso   1.00
H244   H     0.65713   0.39385   0.23923   0.00000  Uiso   1.00
H245   H     0.37276   0.43724   0.19790   0.00000  Uiso   1.00
H246   H     0.35921   0.46828   0.24633   0.00000  Uiso   1.00
Br247  Br    0.57316   0.37859   0.09647   0.00000  Uiso   1.00
Br248  Br    0.42682   0.62141   0.23684   0.00000  Uiso   1.00
Br249  Br    0.57711   0.56563   0.29052   0.00000  Uiso   1.00
Br250  Br    0.42289   0.43436   0.04282   0.00000  Uiso   1.00
C251   C     0.83429   0.42006   0.16642   0.00000  Uiso   1.00
C252   C     0.83238   0.57994   0.16691   0.00000  Uiso   1.00
C253   C     0.73410   0.50169   0.15530   0.00000  Uiso   1.00
C254   C     0.93257   0.49831   0.17803   0.00000  Uiso   1.00
C255   C     0.68018   0.51000   0.15173   0.00000  Uiso   1.00
C256   C     0.98649   0.48999   0.18160   0.00000  Uiso   1.00
C257   C     0.86299   0.35345   0.13666   0.00000  Uiso   1.00
C258   C     0.80367   0.64655   0.19667   0.00000  Uiso   1.00
C259   C     0.86164   0.64399   0.13774   0.00000  Uiso   1.00
C260   C     0.80502   0.35601   0.19559   0.00000  Uiso   1.00
C261   C     0.83230   0.62407   0.16744   0.00000  Uiso   1.00
C262   C     0.83437   0.37593   0.16589   0.00000  Uiso   1.00
C263   C     0.86410   0.52712   0.02820   0.00000  Uiso   1.00
C264   C     0.80257   0.47288   0.30513   0.00000  Uiso   1.00
C265   C     0.86446   0.52709   0.31383   0.00000  Uiso   1.00
C266   C     0.80221   0.47291   0.01950   0.00000  Uiso   1.00
H267   H     0.88420   0.62620   0.11584   0.00000  Uiso   1.00
H268   H     0.78247   0.37380   0.21749   0.00000  Uiso   1.00
H269   H     0.88835   0.54896   0.04968   0.00000  Uiso   1.00
H270   H     0.77831   0.45104   0.28366   0.00000  Uiso   1.00
N271   N     0.83332   0.49999   0.28573   0.00000  Uiso   1.00
N272   N     0.83335   0.50001   0.04760   0.00000  Uiso   1.00
O273   O     0.83333   0.43892   0.20487   0.00000  Uiso   1.00
O274   O     0.83334   0.56108   0.12846   0.00000  Uiso   1.00
O275   O     0.83333   0.43893   0.12843   0.00000  Uiso   1.00
O276   O     0.83334   0.56107   0.20490   0.00000  Uiso   1.00
O277   O     0.75725   0.50000   0.19595   0.00000  Uiso   1.00
O278   O     0.90942   0.50000   0.13739   0.00000  Uiso   1.00
O279   O     0.75725   0.50000   0.11950   0.00000  Uiso   1.00
O280   O     0.90942   0.50000   0.21383   0.00000  Uiso   1.00
Zn281  Zn    0.83333   0.49999   0.21771   0.00000  Uiso   1.00
Zn282  Zn    0.83333   0.50001   0.11563   0.00000  Uiso   1.00
C283   C     0.99143   0.54555   0.12015   0.00000  Uiso   1.00
C284   C     0.69739   0.57922   0.11102   0.00000  Uiso   1.00
H285   H     0.71952   0.59053   0.14345   0.00000  Uiso   1.00
H286   H     0.72460   0.56734   0.08792   0.00000  Uiso   1.00
H287   H     0.67621   0.60613   0.09407   0.00000  Uiso   1.00
H288   H     0.97409   0.53171   0.08701   0.00000  Uiso   1.00
H289   H     0.96059   0.56277   0.13544   0.00000  Uiso   1.00
C290   C     0.67524   0.45445   0.21318   0.00000  Uiso   1.00
C291   C     0.96928   0.42076   0.22228   0.00000  Uiso   1.00
H292   H     0.94204   0.43262   0.24537   0.00000  Uiso   1.00
H293   H     0.94717   0.40945   0.18984   0.00000  Uiso   1.00
H294   H     0.99046   0.39385   0.23923   0.00000  Uiso   1.00
H295   H     0.70609   0.43724   0.19790   0.00000  Uiso   1.00
H296   H     0.69254   0.46828   0.24633   0.00000  Uiso   1.00
Br297  Br    0.90650   0.37859   0.09647   0.00000  Uiso   1.00
Br298  Br    0.76015   0.62141   0.23684   0.00000  Uiso   1.00
Br299  Br    0.91044   0.56563   0.29052   0.00000  Uiso   1.00
Br300  Br    0.75622   0.43436   0.04282   0.00000  Uiso   1.00
C301   C     0.16762   0.75340   0.16642   0.00000  Uiso   1.00
C302   C     0.16571   0.91327   0.16691   0.00000  Uiso   1.00
C303   C     0.06743   0.83503   0.15530   0.00000  Uiso   1.00
C304   C     0.26590   0.83164   0.17803   0.00000  Uiso   1.00
C305   C     0.01351   0.84333   0.15173   0.00000  Uiso   1.00
C306   C     0.31982   0.82333   0.18160   0.00000  Uiso   1.00
C307   C     0.19632   0.68678   0.13666   0.00000  Uiso   1.00
C308   C     0.13701   0.97988   0.19667   0.00000  Uiso   1.00
C309   C     0.19498   0.97732   0.13774   0.00000  Uiso   1.00
C310   C     0.13836   0.68934   0.19559   0.00000  Uiso   1.00
C311   C     0.16563   0.95741   0.16744   0.00000  Uiso   1.00
C312   C     0.16770   0.70926   0.16589   0.00000  Uiso   1.00
C313   C     0.19743   0.86046   0.02820   0.00000  Uiso   1.00
C314   C     0.13590   0.80621   0.30513   0.00000  Uiso   1.00
C315   C     0.19779   0.86042   0.31383   0.00000  Uiso   1.00
C316   C     0.13554   0.80624   0.01950   0.00000  Uiso   1.00
H317   H     0.21753   0.95953   0.11584   0.00000  Uiso   1.00
H318   H     0.11580   0.70714   0.21749   0.00000  Uiso   1.00
H319   H     0.22169   0.88229   0.04968   0.00000  Uiso   1.00
H320   H     0.11164   0.78437   0.28366   0.00000  Uiso   1.00
N321   N     0.16665   0.83332   0.28573   0.00000  Uiso   1.00
N322   N     0.16668   0.83334   0.04760   0.00000  Uiso   1.00
O323   O     0.16666   0.77225   0.20487   0.00000  Uiso   1.00
O324   O     0.16667   0.89442   0.12846   0.00000  Uiso   1.00
O325   O     0.16666   0.77226   0.12843   0.00000  Uiso   1.00
O326   O     0.16667   0.89441   0.20490   0.00000  Uiso   1.00
O327   O     0.09058   0.83333   0.19595   0.00000  Uiso   1.00
O328   O     0.24275   0.83334   0.13739   0.00000  Uiso   1.00
O329   O     0.09058   0.83334   0.11950   0.00000  Uiso   1.00
O330   O     0.24275   0.83333   0.21383   0.00000  Uiso   1.00
Zn331  Zn    0.16667   0.83333   0.21771   0.00000  Uiso   1.00
Zn332  Zn    0.16667   0.83334   0.11563   0.00000  Uiso   1.00
C333   C     0.32476   0.87888   0.12015   0.00000  Uiso   1.00
C334   C     0.03072   0.91255   0.11102   0.00000  Uiso   1.00
H335   H     0.05285   0.92386   0.14345   0.00000  Uiso   1.00
H336   H     0.05794   0.90068   0.08792   0.00000  Uiso   1.00
H337   H     0.00954   0.93947   0.09407   0.00000  Uiso   1.00
H338   H     0.30743   0.86505   0.08701   0.00000  Uiso   1.00
H339   H     0.29392   0.89610   0.13544   0.00000  Uiso   1.00
C340   C     0.00857   0.78778   0.21318   0.00000  Uiso   1.00
C341   C     0.30261   0.75409   0.22228   0.00000  Uiso   1.00
H342   H     0.27537   0.76596   0.24537   0.00000  Uiso   1.00
H343   H     0.28051   0.74279   0.18984   0.00000  Uiso   1.00
H344   H     0.32379   0.72718   0.23923   0.00000  Uiso   1.00
H345   H     0.03943   0.77057   0.19790   0.00000  Uiso   1.00
H346   H     0.02588   0.80161   0.24633   0.00000  Uiso   1.00
Br347  Br    0.23983   0.71192   0.09647   0.00000  Uiso   1.00
Br348  Br    0.09348   0.95474   0.23684   0.00000  Uiso   1.00
Br349  Br    0.24378   0.89897   0.29052   0.00000  Uiso   1.00
Br350  Br    0.08956   0.76770   0.04282   0.00000  Uiso   1.00
C351   C     0.50095   0.75340   0.16642   0.00000  Uiso   1.00
C352   C     0.49905   0.91327   0.16691   0.00000  Uiso   1.00
C353   C     0.40076   0.83503   0.15530   0.00000  Uiso   1.00
C354   C     0.59924   0.83164   0.17803   0.00000  Uiso   1.00
C355   C     0.34684   0.84333   0.15173   0.00000  Uiso   1.00
C356   C     0.65316   0.82333   0.18160   0.00000  Uiso   1.00
C357   C     0.52965   0.68678   0.13666   0.00000  Uiso   1.00
C358   C     0.47034   0.97988   0.19667   0.00000  Uiso   1.00
C359   C     0.52831   0.97732   0.13774   0.00000  Uiso   1.00
C360   C     0.47169   0.68934   0.19559   0.00000  Uiso   1.00
C361   C     0.49896   0.95741   0.16744   0.00000  Uiso   1.00
C362   C     0.50104   0.70926   0.16589   0.00000  Uiso   1.00
C363   C     0.53076   0.86046   0.02820   0.00000  Uiso   1.00
C364   C     0.46924   0.80621   0.30513   0.00000  Uiso   1.00
C365   C     0.53113   0.86042   0.31383   0.00000  Uiso   1.00
C366   C     0.46887   0.80624   0.01950   0.00000  Uiso   1.00
H367   H     0.55086   0.95953   0.11584   0.00000  Uiso   1.00
H368   H     0.44914   0.70714   0.21749   0.00000  Uiso   1.00
H369   H     0.55502   0.88229   0.04968   0.00000  Uiso   1.00
H370   H     0.44498   0.78437   0.28366   0.00000  Uiso   1.00
N371   N     0.49999   0.83332   0.28573   0.00000  Uiso   1.00
N372   N     0.50001   0.83334   0.04760   0.00000  Uiso   1.00
O373   O     0.50000   0.77225   0.20487   0.00000  Uiso   1.00
O374   O     0.50000   0.89442   0.12846   0.00000  Uiso   1.00
O375   O     0.50000   0.77226   0.12843   0.00000  Uiso   1.00
O376   O     0.50000   0.89441   0.20490   0.00000  Uiso   1.00
O377   O     0.42392   0.83333   0.19595   0.00000  Uiso   1.00
O378   O     0.57608   0.83334   0.13739   0.00000  Uiso   1.00
O379   O     0.42392   0.83334   0.11950   0.00000  Uiso   1.00
O380   O     0.57608   0.83333   0.21383   0.00000  Uiso   1.00
Zn381  Zn    0.50000   0.83333   0.21771   0.00000  Uiso   1.00
Zn382  Zn    0.50000   0.83334   0.11563   0.00000  Uiso   1.00
C383   C     0.65809   0.87888   0.12015   0.00000  Uiso   1.00
C384   C     0.36406   0.91255   0.11102   0.00000  Uiso   1.00
H385   H     0.38618   0.92386   0.14345   0.00000  Uiso   1.00
H386   H     0.39127   0.90068   0.08792   0.00000  Uiso   1.00
H387   H     0.34287   0.93947   0.09407   0.00000  Uiso   1.00
H388   H     0.64076   0.86505   0.08701   0.00000  Uiso   1.00
H389   H     0.62725   0.89610   0.13544   0.00000  Uiso   1.00
C390   C     0.34190   0.78778   0.21318   0.00000  Uiso   1.00
C391   C     0.63594   0.75409   0.22228   0.00000  Uiso   1.00
H392   H     0.60871   0.76596   0.24537   0.00000  Uiso   1.00
H393   H     0.61384   0.74279   0.18984   0.00000  Uiso   1.00
H394   H     0.65713   0.72718   0.23923   0.00000  Uiso   1.00
H395   H     0.37276   0.77057   0.19790   0.00000  Uiso   1.00
H396   H     0.35921   0.80161   0.24633   0.00000  Uiso   1.00
Br397  Br    0.57316   0.71192   0.09647   0.00000  Uiso   1.00
Br398  Br    0.42682   0.95474   0.23684   0.00000  Uiso   1.00
Br399  Br    0.57711   0.89897   0.29052   0.00000  Uiso   1.00
Br400  Br    0.42289   0.76770   0.04282   0.00000  Uiso   1.00
C401   C     0.83429   0.75340   0.16642   0.00000  Uiso   1.00
C402   C     0.83238   0.91327   0.16691   0.00000  Uiso   1.00
C403   C     0.73410   0.83503   0.15530   0.00000  Uiso   1.00
C404   C     0.93257   0.83164   0.17803   0.00000  Uiso   1.00
C405   C     0.68018   0.84333   0.15173   0.00000  Uiso   1.00
C406   C     0.98649   0.82333   0.18160   0.00000  Uiso   1.00
C407   C     0.86299   0.68678   0.13666   0.00000  Uiso   1.00
C408   C     0.80367   0.97988   0.19667   0.00000  Uiso   1.00
C409   C     0.86164   0.97732   0.13774   0.00000  Uiso   1.00
C410   C     0.80502   0.68934   0.19559   0.00000  Uiso   1.00
C411   C     0.83230   0.95741   0.16744   0.00000  Uiso   1.00
C412   C     0.83437   0.70926   0.16589   0.00000  Uiso   1.00
C413   C     0.86410   0.86046   0.02820   0.00000  Uiso   1.00
C414   C     0.80257   0.80621   0.30513   0.00000  Uiso   1.00
C415   C     0.86446   0.86042   0.31383   0.00000  Uiso   1.00
C416   C     0.80221   0.80624   0.01950   0.00000  Uiso   1.00
H417   H     0.88420   0.95953   0.11584   0.00000  Uiso   1.00
H418   H     0.78247   0.70714   0.21749   0.00000  Uiso   1.00
H419   H     0.88835   0.88229   0.04968   0.00000  Uiso   1.00
H420   H     0.77831   0.78437   0.28366   0.00000  Uiso   1.00
N421   N     0.83332   0.83332   0.28573   0.00000  Uiso   1.00
N422   N     0.83335   0.83334   0.04760   0.00000  Uiso   1.00
O423   O     0.83333   0.77225   0.20487   0.00000  Uiso   1.00
O424   O     0.83334   0.89442   0.12846   0.00000  Uiso   1.00
O425   O     0.83333   0.77226   0.12843   0.00000  Uiso   1.00
O426   O     0.83334   0.89441   0.20490   0.00000  Uiso   1.00
O427   O     0.75725   0.83333   0.19595   0.00000  Uiso   1.00
O428   O     0.90942   0.83334   0.13739   0.00000  Uiso   1.00
O429   O     0.75725   0.83334   0.11950   0.00000  Uiso   1.00
O430   O     0.90942   0.83333   0.21383   0.00000  Uiso   1.00
Zn431  Zn    0.83333   0.83333   0.21771   0.00000  Uiso   1.00
Zn432  Zn    0.83333   0.83334   0.11563   0.00000  Uiso   1.00
C433   C     0.99143   0.87888   0.12015   0.00000  Uiso   1.00
C434   C     0.69739   0.91255   0.11102   0.00000  Uiso   1.00
H435   H     0.71952   0.92386   0.14345   0.00000  Uiso   1.00
H436   H     0.72460   0.90068   0.08792   0.00000  Uiso   1.00
H437   H     0.67621   0.93947   0.09407   0.00000  Uiso   1.00
H438   H     0.97409   0.86505   0.08701   0.00000  Uiso   1.00
H439   H     0.96059   0.89610   0.13544   0.00000  Uiso   1.00
C440   C     0.67524   0.78778   0.21318   0.00000  Uiso   1.00
C441   C     0.96928   0.75409   0.22228   0.00000  Uiso   1.00
H442   H     0.94204   0.76596   0.24537   0.00000  Uiso   1.00
H443   H     0.94717   0.74279   0.18984   0.00000  Uiso   1.00
H444   H     0.99046   0.72718   0.23923   0.00000  Uiso   1.00
H445   H     0.70609   0.77057   0.19790   0.00000  Uiso   1.00
H446   H     0.69254   0.80161   0.24633   0.00000  Uiso   1.00
Br447  Br    0.90650   0.71192   0.09647   0.00000  Uiso   1.00
Br448  Br    0.76015   0.95474   0.23684   0.00000  Uiso   1.00
Br449  Br    0.91044   0.89897   0.29052   0.00000  Uiso   1.00
Br450  Br    0.75622   0.76770   0.04282   0.00000  Uiso   1.00
C451   C     0.16762   0.08673   0.49976   0.00000  Uiso   1.00
C452   C     0.16571   0.24660   0.50025   0.00000  Uiso   1.00
C453   C     0.06743   0.16836   0.48863   0.00000  Uiso   1.00
C454   C     0.26590   0.16497   0.51137   0.00000  Uiso   1.00
C455   C     0.01351   0.17667   0.48507   0.00000  Uiso   1.00
C456   C     0.31982   0.15666   0.51493   0.00000  Uiso   1.00
C457   C     0.19632   0.02012   0.46999   0.00000  Uiso   1.00
C458   C     0.13701   0.31322   0.53000   0.00000  Uiso   1.00
C459   C     0.19498   0.31066   0.47108   0.00000  Uiso   1.00
C460   C     0.13836   0.02268   0.52892   0.00000  Uiso   1.00
C461   C     0.16563   0.29074   0.50077   0.00000  Uiso   1.00
C462   C     0.16770   0.04259   0.49923   0.00000  Uiso   1.00
C463   C     0.19743   0.19379   0.36153   0.00000  Uiso   1.00
C464   C     0.13590   0.13954   0.63847   0.00000  Uiso   1.00
C465   C     0.19779   0.19376   0.64717   0.00000  Uiso   1.00
C466   C     0.13554   0.13958   0.35283   0.00000  Uiso   1.00
H467   H     0.21753   0.29286   0.44917   0.00000  Uiso   1.00
H468   H     0.11580   0.04047   0.55083   0.00000  Uiso   1.00
H469   H     0.22169   0.21563   0.38301   0.00000  Uiso   1.00
H470   H     0.11164   0.11771   0.61699   0.00000  Uiso   1.00
N471   N     0.16665   0.16666   0.61907   0.00000  Uiso   1.00
N472   N     0.16668   0.16668   0.38093   0.00000  Uiso   1.00
O473   O     0.16666   0.10558   0.53821   0.00000  Uiso   1.00
O474   O     0.16667   0.22775   0.46179   0.00000  Uiso   1.00
O475   O     0.16666   0.10559   0.46176   0.00000  Uiso   1.00
O476   O     0.16667   0.22774   0.53824   0.00000  Uiso   1.00
O477   O     0.09058   0.16666   0.52928   0.00000  Uiso   1.00
O478   O     0.24275   0.16667   0.47072   0.00000  Uiso   1.00
O479   O     0.09058   0.16667   0.45284   0.00000  Uiso   1.00
O480   O     0.24275   0.16666   0.54716   0.00000  Uiso   1.00
Zn481  Zn    0.16667   0.16666   0.55104   0.00000  Uiso   1.00
Zn482  Zn    0.16667   0.16667   0.44896   0.00000  Uiso   1.00
C483   C     0.32476   0.21221   0.45348   0.00000  Uiso   1.00
C484   C     0.03072   0.24589   0.44435   0.00000  Uiso   1.00
H485   H     0.05285   0.25720   0.47679   0.00000  Uiso   1.00
H486   H     0.05794   0.23401   0.42125   0.00000  Uiso   1.00
H487   H     0.00954   0.27280   0.42740   0.00000  Uiso   1.00
H488   H     0.30743   0.19838   0.42034   0.00000  Uiso   1.00
H489   H     0.29392   0.22943   0.46878   0.00000  Uiso   1.00
C490   C     0.00857   0.12111   0.54652   0.00000  Uiso   1.00
C491   C     0.30261   0.08743   0.55561   0.00000  Uiso   1.00
H492   H     0.27537   0.09929   0.57870   0.00000  Uiso   1.00
H493   H     0.28051   0.07612   0.52317   0.00000  Uiso   1.00
H494   H     0.32379   0.06052   0.57257   0.00000  Uiso   1.00
H495   H     0.03943   0.10390   0.53124   0.00000  Uiso   1.00
H496   H     0.02588   0.13494   0.57967   0.00000  Uiso   1.00
Br497  Br    0.23983   0.04525   0.42980   0.00000  Uiso   1.00
Br498  Br    0.09348   0.28808   0.57018   0.00000  Uiso   1.00
Br499  Br    0.24378   0.23230   0.62385   0.00000  Uiso   1.00
Br500  Br    0.08956   0.10103   0.37615   0.00000  Uiso   1.00
C501   C     0.50095   0.08673   0.49976   0.00000  Uiso   1.00
C502   C     0.49905   0.24660   0.50025   0.00000  Uiso   1.00
C503   C     0.40076   0.16836   0.48863   0.00000  Uiso   1.00
C504   C     0.59924   0.16497   0.51137   0.00000  Uiso   1.00
C505   C     0.34684   0.17667   0.48507   0.00000  Uiso   1.00
C506   C     0.65316   0.15666   0.51493   0.00000  Uiso   1.00
C507   C     0.52965   0.02012   0.46999   0.00000  Uiso   1.00
C508   C     0.47034   0.31322   0.53000   0.00000  Uiso   1.00
C509   C     0.52831   0.31066   0.47108   0.00000  Uiso   1.00
C510   C     0.47169   0.02268   0.52892   0.00000  Uiso   1.00
C511   C     0.49896   0.29074   0.50077   0.00000  Uiso   1.00
C512   C     0.50104   0.04259   0.49923   0.00000  Uiso   1.00
C513   C     0.53076   0.19379   0.36153   0.00000  Uiso   1.00
C514   C     0.46924   0.13954   0.63847   0.00000  Uiso   1.00
C515   C     0.53113   0.19376   0.64717   0.00000  Uiso   1.00
C516   C     0.46887   0.13958   0.35283   0.00000  Uiso   1.00
H517   H     0.55086   0.29286   0.44917   0.00000  Uiso   1.00
H518   H     0.44914   0.04047   0.55083   0.00000  Uiso   1.00
H519   H     0.55502   0.21563   0.38301   0.00000  Uiso   1.00
H520   H     0.44498   0.11771   0.61699   0.00000  Uiso   1.00
N521   N     0.49999   0.16666   0.61907   0.00000  Uiso   1.00
N522   N     0.50001   0.16668   0.38093   0.00000  Uiso   1.00
O523   O     0.50000   0.10558   0.53821   0.00000  Uiso   1.00
O524   O     0.50000   0.22775   0.46179   0.00000  Uiso   1.00
O525   O     0.50000   0.10559   0.46176   0.00000  Uiso   1.00
O526   O     0.50000   0.22774   0.53824   0.00000  Uiso   1.00
O527   O     0.42392   0.16666   0.52928   0.00000  Uiso   1.00
O528   O     0.57608   0.16667   0.47072   0.00000  Uiso   1.00
O529   O     0.42392   0.16667   0.45284   0.00000  Uiso   1.00
O530   O     0.57608   0.16666   0.54716   0.00000  Uiso   1.00
Zn531  Zn    0.50000   0.16666   0.55104   0.00000  Uiso   1.00
Zn532  Zn    0.50000   0.16667   0.44896   0.00000  Uiso   1.00
C533   C     0.65809   0.21221   0.45348   0.00000  Uiso   1.00
C534   C     0.36406   0.24589   0.44435   0.00000  Uiso   1.00
H535   H     0.38618   0.25720   0.47679   0.00000  Uiso   1.00
H536   H     0.39127   0.23401   0.42125   0.00000  Uiso   1.00
H537   H     0.34287   0.27280   0.42740   0.00000  Uiso   1.00
H538   H     0.64076   0.19838   0.42034   0.00000  Uiso   1.00
H539   H     0.62725   0.22943   0.46878   0.00000  Uiso   1.00
C540   C     0.34190   0.12111   0.54652   0.00000  Uiso   1.00
C541   C     0.63594   0.08743   0.55561   0.00000  Uiso   1.00
H542   H     0.60871   0.09929   0.57870   0.00000  Uiso   1.00
H543   H     0.61384   0.07612   0.52317   0.00000  Uiso   1.00
H544   H     0.65713   0.06052   0.57257   0.00000  Uiso   1.00
H545   H     0.37276   0.10390   0.53124   0.00000  Uiso   1.00
H546   H     0.35921   0.13494   0.57967   0.00000  Uiso   1.00
Br547  Br    0.57316   0.04525   0.42980   0.00000  Uiso   1.00
Br548  Br    0.42682   0.28808   0.57018   0.00000  Uiso   1.00
Br549  Br    0.57711   0.23230   0.62385   0.00000  Uiso   1.00
Br550  Br    0.42289   0.10103   0.37615   0.00000  Uiso   1.00
C551   C     0.83429   0.08673   0.49976   0.00000  Uiso   1.00
C552   C     0.83238   0.24660   0.50025   0.00000  Uiso   1.00
C553   C     0.73410   0.16836   0.48863   0.00000  Uiso   1.00
C554   C     0.93257   0.16497   0.51137   0.00000  Uiso   1.00
C555   C     0.68018   0.17667   0.48507   0.00000  Uiso   1.00
C556   C     0.98649   0.15666   0.51493   0.00000  Uiso   1.00
C557   C     0.86299   0.02012   0.46999   0.00000  Uiso   1.00
C558   C     0.80367   0.31322   0.53000   0.00000  Uiso   1.00
C559   C     0.86164   0.31066   0.47108   0.00000  Uiso   1.00
C560   C     0.80502   0.02268   0.52892   0.00000  Uiso   1.00
C561   C     0.83230   0.29074   0.50077   0.00000  Uiso   1.00
C562   C     0.83437   0.04259   0.49923   0.00000  Uiso   1.00
C563   C     0.86410   0.19379   0.36153   0.00000  Uiso   1.00
C564   C     0.80257   0.13954   0.63847   0.00000  Uiso   1.00
C565   C     0.86446   0.19376   0.64717   0.00000  Uiso   1.00
C566   C     0.80221   0.13958   0.35283   0.00000  Uiso   1.00
H567   H     0.88420   0.29286   0.44917   0.00000  Uiso   1.00
H568   H     0.78247   0.04047   0.55083   0.00000  Uiso   1.00
H569   H     0.88835   0.21563   0.38301   0.00000  Uiso   1.00
H570   H     0.77831   0.11771   0.61699   0.00000  Uiso   1.00
N571   N     0.83332   0.16666   0.61907   0.00000  Uiso   1.00
N572   N     0.83335   0.16668   0.38093   0.00000  Uiso   1.00
O573   O     0.83333   0.10558   0.53821   0.00000  Uiso   1.00
O574   O     0.83334   0.22775   0.46179   0.00000  Uiso   1.00
O575   O     0.83333   0.10559   0.46176   0.00000  Uiso   1.00
O576   O     0.83334   0.22774   0.53824   0.00000  Uiso   1.00
O577   O     0.75725   0.16666   0.52928   0.00000  Uiso   1.00
O578   O     0.90942   0.16667   0.47072   0.00000  Uiso   1.00
O579   O     0.75725   0.16667   0.45284   0.00000  Uiso   1.00
O580   O     0.90942   0.16666   0.54716   0.00000  Uiso   1.00
Zn581  Zn    0.83333   0.16666   0.55104   0.00000  Uiso   1.00
Zn582  Zn    0.83333   0.16667   0.44896   0.00000  Uiso   1.00
C583   C     0.99143   0.21221   0.45348   0.00000  Uiso   1.00
C584   C     0.69739   0.24589   0.44435   0.00000  Uiso   1.00
H585   H     0.71952   0.25720   0.47679   0.00000  Uiso   1.00
H586   H     0.72460   0.23401   0.42125   0.00000  Uiso   1.00
H587   H     0.67621   0.27280   0.42740   0.00000  Uiso   1.00
H588   H     0.97409   0.19838   0.42034   0.00000  Uiso   1.00
H589   H     0.96059   0.22943   0.46878   0.00000  Uiso   1.00
C590   C     0.67524   0.12111   0.54652   0.00000  Uiso   1.00
C591   C     0.96928   0.08743   0.55561   0.00000  Uiso   1.00
H592   H     0.94204   0.09929   0.57870   0.00000  Uiso   1.00
H593   H     0.94717   0.07612   0.52317   0.00000  Uiso   1.00
H594   H     0.99046   0.06052   0.57257   0.00000  Uiso   1.00
H595   H     0.70609   0.10390   0.53124   0.00000  Uiso   1.00
H596   H     0.69254   0.13494   0.57967   0.00000  Uiso   1.00
Br597  Br    0.90650   0.04525   0.42980   0.00000  Uiso   1.00
Br598  Br    0.76015   0.28808   0.57018   0.00000  Uiso   1.00
Br599  Br    0.91044   0.23230   0.62385   0.00000  Uiso   1.00
Br600  Br    0.75622   0.10103   0.37615   0.00000  Uiso   1.00
C601   C     0.16762   0.42006   0.49976   0.00000  Uiso   1.00
C602   C     0.16571   0.57994   0.50025   0.00000  Uiso   1.00
C603   C     0.06743   0.50169   0.48863   0.00000  Uiso   1.00
C604   C     0.26590   0.49831   0.51137   0.00000  Uiso   1.00
C605   C     0.01351   0.51000   0.48507   0.00000  Uiso   1.00
C606   C     0.31982   0.48999   0.51493   0.00000  Uiso   1.00
C607   C     0.19632   0.35345   0.46999   0.00000  Uiso   1.00
C608   C     0.13701   0.64655   0.53000   0.00000  Uiso   1.00
C609   C     0.19498   0.64399   0.47108   0.00000  Uiso   1.00
C610   C     0.13836   0.35601   0.52892   0.00000  Uiso   1.00
C611   C     0.16563   0.62407   0.50077   0.00000  Uiso   1.00
C612   C     0.16770   0.37593   0.49923   0.00000  Uiso   1.00
C613   C     0.19743   0.52712   0.36153   0.00000  Uiso   1.00
C614   C     0.13590   0.47288   0.63847   0.00000  Uiso   1.00
C615   C     0.19779   0.52709   0.64717   0.00000  Uiso   1.00
C616   C     0.13554   0.47291   0.35283   0.00000  Uiso   1.00
H617   H     0.21753   0.62620   0.44917   0.00000  Uiso   1.00
H618   H     0.11580   0.37380   0.55083   0.00000  Uiso   1.00
H619   H     0.22169   0.54896   0.38301   0.00000  Uiso   1.00
H620   H     0.11164   0.45104   0.61699   0.00000  Uiso   1.00
N621   N     0.16665   0.49999   0.61907   0.00000  Uiso   1.00
N622   N     0.16668   0.50001   0.38093   0.00000  Uiso   1.00
O623   O     0.16666   0.43892   0.53821   0.00000  Uiso   1.00
O624   O     0.16667   0.56108   0.46179   0.00000  Uiso   1.00
O625   O     0.16666   0.43893   0.46176   0.00000  Uiso   1.00
O626   O     0.16667   0.56107   0.53824   0.00000  Uiso   1.00
O627   O     0.09058   0.50000   0.52928   0.00000  Uiso   1.00
O628   O     0.24275   0.50000   0.47072   0.00000  Uiso   1.00
O629   O     0.09058   0.50000   0.45284   0.00000  Uiso   1.00
O630   O     0.24275   0.50000   0.54716   0.00000  Uiso   1.00
Zn631  Zn    0.16667   0.49999   0.55104   0.00000  Uiso   1.00
Zn632  Zn    0.16667   0.50001   0.44896   0.00000  Uiso   1.00
C633   C     0.32476   0.54555   0.45348   0.00000  Uiso   1.00
C634   C     0.03072   0.57922   0.44435   0.00000  Uiso   1.00
H635   H     0.05285   0.59053   0.47679   0.00000  Uiso   1.00
H636   H     0.05794   0.56734   0.42125   0.00000  Uiso   1.00
H637   H     0.00954   0.60613   0.42740   0.00000  Uiso   1.00
H638   H     0.30743   0.53171   0.42034   0.00000  Uiso   1.00
H639   H     0.29392   0.56277   0.46878   0.00000  Uiso   1.00
C640   C     0.00857   0.45445   0.54652   0.00000  Uiso   1.00
C641   C     0.30261   0.42076   0.55561   0.00000  Uiso   1.00
H642   H     0.27537   0.43262   0.57870   0.00000  Uiso   1.00
H643   H     0.28051   0.40945   0.52317   0.00000  Uiso   1.00
H644   H     0.32379   0.39385   0.57257   0.00000  Uiso   1.00
H645   H     0.03943   0.43724   0.53124   0.00000  Uiso   1.00
H646   H     0.02588   0.46828   0.57967   0.00000  Uiso   1.00
Br647  Br    0.23983   0.37859   0.42980   0.00000  Uiso   1.00
Br648  Br    0.09348   0.62141   0.57018   0.00000  Uiso   1.00
Br649  Br    0.24378   0.56563   0.62385   0.00000  Uiso   1.00
Br650  Br    0.08956   0.43436   0.37615   0.00000  Uiso   1.00
C651   C     0.50095   0.42006   0.49976   0.00000  Uiso   1.00
C652   C     0.49905   0.57994   0.50025   0.00000  Uiso   1.00
C653   C     0.40076   0.50169   0.48863   0.00000  Uiso   1.00
C654   C     0.59924   0.49831   0.51137   0.00000  Uiso   1.00
C655   C     0.34684   0.51000   0.48507   0.00000  Uiso   1.00
C656   C     0.65316   0.48999   0.51493   0.00000  Uiso   1.00
C657   C     0.52965   0.35345   0.46999   0.00000  Uiso   1.00
C658   C     0.47034   0.64655   0.53000   0.00000  Uiso   1.00
C659   C     0.52831   0.64399   0.47108   0.00000  Uiso   1.00
C660   C     0.47169   0.35601   0.52892   0.00000  Uiso   1.00
C661   C     0.49896   0.62407   0.50077   0.00000  Uiso   1.00
C662   C     0.50104   0.37593   0.49923   0.00000  Uiso   1.00
C663   C     0.53076   0.52712   0.36153   0.00000  Uiso   1.00
C664   C     0.46924   0.47288   0.63847   0.00000  Uiso   1.00
C665   C     0.53113   0.52709   0.64717   0.00000  Uiso   1.00
C666   C     0.46887   0.47291   0.35283   0.00000  Uiso   1.00
H667   H     0.55086   0.62620   0.44917   0.00000  Uiso   1.00
H668   H     0.44914   0.37380   0.55083   0.00000  Uiso   1.00
H669   H     0.55502   0.54896   0.38301   0.00000  Uiso   1.00
H670   H     0.44498   0.45104   0.61699   0.00000  Uiso   1.00
N671   N     0.49999   0.49999   0.61907   0.00000  Uiso   1.00
N672   N     0.50001   0.50001   0.38093   0.00000  Uiso   1.00
O673   O     0.50000   0.43892   0.53821   0.00000  Uiso   1.00
O674   O     0.50000   0.56108   0.46179   0.00000  Uiso   1.00
O675   O     0.50000   0.43893   0.46176   0.00000  Uiso   1.00
O676   O     0.50000   0.56107   0.53824   0.00000  Uiso   1.00
O677   O     0.42392   0.50000   0.52928   0.00000  Uiso   1.00
O678   O     0.57608   0.50000   0.47072   0.00000  Uiso   1.00
O679   O     0.42392   0.50000   0.45284   0.00000  Uiso   1.00
O680   O     0.57608   0.50000   0.54716   0.00000  Uiso   1.00
Zn681  Zn    0.50000   0.49999   0.55104   0.00000  Uiso   1.00
Zn682  Zn    0.50000   0.50001   0.44896   0.00000  Uiso   1.00
C683   C     0.65809   0.54555   0.45348   0.00000  Uiso   1.00
C684   C     0.36406   0.57922   0.44435   0.00000  Uiso   1.00
H685   H     0.38618   0.59053   0.47679   0.00000  Uiso   1.00
H686   H     0.39127   0.56734   0.42125   0.00000  Uiso   1.00
H687   H     0.34287   0.60613   0.42740   0.00000  Uiso   1.00
H688   H     0.64076   0.53171   0.42034   0.00000  Uiso   1.00
H689   H     0.62725   0.56277   0.46878   0.00000  Uiso   1.00
C690   C     0.34190   0.45445   0.54652   0.00000  Uiso   1.00
C691   C     0.63594   0.42076   0.55561   0.00000  Uiso   1.00
H692   H     0.60871   0.43262   0.57870   0.00000  Uiso   1.00
H693   H     0.61384   0.40945   0.52317   0.00000  Uiso   1.00
H694   H     0.65713   0.39385   0.57257   0.00000  Uiso   1.00
H695   H     0.37276   0.43724   0.53124   0.00000  Uiso   1.00
H696   H     0.35921   0.46828   0.57967   0.00000  Uiso   1.00
Br697  Br    0.57316   0.37859   0.42980   0.00000  Uiso   1.00
Br698  Br    0.42682   0.62141   0.57018   0.00000  Uiso   1.00
Br699  Br    0.57711   0.56563   0.62385   0.00000  Uiso   1.00
Br700  Br    0.42289   0.43436   0.37615   0.00000  Uiso   1.00
C701   C     0.83429   0.42006   0.49976   0.00000  Uiso   1.00
C702   C     0.83238   0.57994   0.50025   0.00000  Uiso   1.00
C703   C     0.73410   0.50169   0.48863   0.00000  Uiso   1.00
C704   C     0.93257   0.49831   0.51137   0.00000  Uiso   1.00
C705   C     0.68018   0.51000   0.48507   0.00000  Uiso   1.00
C706   C     0.98649   0.48999   0.51493   0.00000  Uiso   1.00
C707   C     0.86299   0.35345   0.46999   0.00000  Uiso   1.00
C708   C     0.80367   0.64655   0.53000   0.00000  Uiso   1.00
C709   C     0.86164   0.64399   0.47108   0.00000  Uiso   1.00
C710   C     0.80502   0.35601   0.52892   0.00000  Uiso   1.00
C711   C     0.83230   0.62407   0.50077   0.00000  Uiso   1.00
C712   C     0.83437   0.37593   0.49923   0.00000  Uiso   1.00
C713   C     0.86410   0.52712   0.36153   0.00000  Uiso   1.00
C714   C     0.80257   0.47288   0.63847   0.00000  Uiso   1.00
C715   C     0.86446   0.52709   0.64717   0.00000  Uiso   1.00
C716   C     0.80221   0.47291   0.35283   0.00000  Uiso   1.00
H717   H     0.88420   0.62620   0.44917   0.00000  Uiso   1.00
H718   H     0.78247   0.37380   0.55083   0.00000  Uiso   1.00
H719   H     0.88835   0.54896   0.38301   0.00000  Uiso   1.00
H720   H     0.77831   0.45104   0.61699   0.00000  Uiso   1.00
N721   N     0.83332   0.49999   0.61907   0.00000  Uiso   1.00
N722   N     0.83335   0.50001   0.38093   0.00000  Uiso   1.00
O723   O     0.83333   0.43892   0.53821   0.00000  Uiso   1.00
O724   O     0.83334   0.56108   0.46179   0.00000  Uiso   1.00
O725   O     0.83333   0.43893   0.46176   0.00000  Uiso   1.00
O726   O     0.83334   0.56107   0.53824   0.00000  Uiso   1.00
O727   O     0.75725   0.50000   0.52928   0.00000  Uiso   1.00
O728   O     0.90942   0.50000   0.47072   0.00000  Uiso   1.00
O729   O     0.75725   0.50000   0.45284   0.00000  Uiso   1.00
O730   O     0.90942   0.50000   0.54716   0.00000  Uiso   1.00
Zn731  Zn    0.83333   0.49999   0.55104   0.00000  Uiso   1.00
Zn732  Zn    0.83333   0.50001   0.44896   0.00000  Uiso   1.00
C733   C     0.99143   0.54555   0.45348   0.00000  Uiso   1.00
C734   C     0.69739   0.57922   0.44435   0.00000  Uiso   1.00
H735   H     0.71952   0.59053   0.47679   0.00000  Uiso   1.00
H736   H     0.72460   0.56734   0.42125   0.00000  Uiso   1.00
H737   H     0.67621   0.60613   0.42740   0.00000  Uiso   1.00
H738   H     0.97409   0.53171   0.42034   0.00000  Uiso   1.00
H739   H     0.96059   0.56277   0.46878   0.00000  Uiso   1.00
C740   C     0.67524   0.45445   0.54652   0.00000  Uiso   1.00
C741   C     0.96928   0.42076   0.55561   0.00000  Uiso   1.00
H742   H     0.94204   0.43262   0.57870   0.00000  Uiso   1.00
H743   H     0.94717   0.40945   0.52317   0.00000  Uiso   1.00
H744   H     0.99046   0.39385   0.57257   0.00000  Uiso   1.00
H745   H     0.70609   0.43724   0.53124   0.00000  Uiso   1.00
H746   H     0.69254   0.46828   0.57967   0.00000  Uiso   1.00
Br747  Br    0.90650   0.37859   0.42980   0.00000  Uiso   1.00
Br748  Br    0.76015   0.62141   0.57018   0.00000  Uiso   1.00
Br749  Br    0.91044   0.56563   0.62385   0.00000  Uiso   1.00
Br750  Br    0.75622   0.43436   0.37615   0.00000  Uiso   1.00
C751   C     0.16762   0.75340   0.49976   0.00000  Uiso   1.00
C752   C     0.16571   0.91327   0.50025   0.00000  Uiso   1.00
C753   C     0.06743   0.83503   0.48863   0.00000  Uiso   1.00
C754   C     0.26590   0.83164   0.51137   0.00000  Uiso   1.00
C755   C     0.01351   0.84333   0.48507   0.00000  Uiso   1.00
C756   C     0.31982   0.82333   0.51493   0.00000  Uiso   1.00
C757   C     0.19632   0.68678   0.46999   0.00000  Uiso   1.00
C758   C     0.13701   0.97988   0.53000   0.00000  Uiso   1.00
C759   C     0.19498   0.97732   0.47108   0.00000  Uiso   1.00
C760   C     0.13836   0.68934   0.52892   0.00000  Uiso   1.00
C761   C     0.16563   0.95741   0.50077   0.00000  Uiso   1.00
C762   C     0.16770   0.70926   0.49923   0.00000  Uiso   1.00
C763   C     0.19743   0.86046   0.36153   0.00000  Uiso   1.00
C764   C     0.13590   0.80621   0.63847   0.00000  Uiso   1.00
C765   C     0.19779   0.86042   0.64717   0.00000  Uiso   1.00
C766   C     0.13554   0.80624   0.35283   0.00000  Uiso   1.00
H767   H     0.21753   0.95953   0.44917   0.00000  Uiso   1.00
H768   H     0.11580   0.70714   0.55083   0.00000  Uiso   1.00
H769   H     0.22169   0.88229   0.38301   0.00000  Uiso   1.00
H770   H     0.11164   0.78437   0.61699   0.00000  Uiso   1.00
N771   N     0.16665   0.83332   0.61907   0.00000  Uiso   1.00
N772   N     0.16668   0.83334   0.38093   0.00000  Uiso   1.00
O773   O     0.16666   0.77225   0.53821   0.00000  Uiso   1.00
O774   O     0.16667   0.89442   0.46179   0.00000  Uiso   1.00
O775   O     0.16666   0.77226   0.46176   0.00000  Uiso   1.00
O776   O     0.16667   0.89441   0.53824   0.00000  Uiso   1.00
O777   O     0.09058   0.83333   0.52928   0.00000  Uiso   1.00
O778   O     0.24275   0.83334   0.47072   0.00000  Uiso   1.00
O779   O     0.09058   0.83334   0.45284   0.00000  Uiso   1.00
O780   O     0.24275   0.83333   0.54716   0.00000  Uiso   1.00
Zn781  Zn    0.16667   0.83333   0.55104   0.00000  Uiso   1.00
Zn782  Zn    0.16667   0.83334   0.44896   0.00000  Uiso   1.00
C783   C     0.32476   0.87888   0.45348   0.00000  Uiso   1.00
C784   C     0.03072   0.91255   0.44435   0.00000  Uiso   1.00
H785   H     0.05285   0.92386   0.47679   0.00000  Uiso   1.00
H786   H     0.05794   0.90068   0.42125   0.00000  Uiso   1.00
H787   H     0.00954   0.93947   0.42740   0.00000  Uiso   1.00
H788   H     0.30743   0.86505   0.42034   0.00000  Uiso   1.00
H789   H     0.29392   0.89610   0.46878   0.00000  Uiso   1.00
C790   C     0.00857   0.78778   0.54652   0.00000  Uiso   1.00
C791   C     0.30261   0.75409   0.55561   0.00000  Uiso   1.00
H792   H     0.27537   0.76596   0.57870   0.00000  Uiso   1.00
H793   H     0.28051   0.74279   0.52317   0.00000  Uiso   1.00
H794   H     0.32379   0.72718   0.57257   0.00000  Uiso   1.00
H795   H     0.03943   0.77057   0.53124   0.00000  Uiso   1.00
H796   H     0.02588   0.80161   0.57967   0.00000  Uiso   1.00
Br797  Br    0.23983   0.71192   0.42980   0.00000  Uiso   1.00
Br798  Br    0.09348   0.95474   0.57018   0.00000  Uiso   1.00
Br799  Br    0.24378   0.89897   0.62385   0.00000  Uiso   1.00
Br800  Br    0.08956   0.76770   0.37615   0.00000  Uiso   1.00
C801   C     0.50095   0.75340   0.49976   0.00000  Uiso   1.00
C802   C     0.49905   0.91327   0.50025   0.00000  Uiso   1.00
C803   C     0.40076   0.83503   0.48863   0.00000  Uiso   1.00
C804   C     0.59924   0.83164   0.51137   0.00000  Uiso   1.00
C805   C     0.34684   0.84333   0.48507   0.00000  Uiso   1.00
C806   C     0.65316   0.82333   0.51493   0.00000  Uiso   1.00
C807   C     0.52965   0.68678   0.46999   0.00000  Uiso   1.00
C808   C     0.47034   0.97988   0.53000   0.00000  Uiso   1.00
C809   C     0.52831   0.97732   0.47108   0.00000  Uiso   1.00
C810   C     0.47169   0.68934   0.52892   0.00000  Uiso   1.00
C811   C     0.49896   0.95741   0.50077   0.00000  Uiso   1.00
C812   C     0.50104   0.70926   0.49923   0.00000  Uiso   1.00
C813   C     0.53076   0.86046   0.36153   0.00000  Uiso   1.00
C814   C     0.46924   0.80621   0.63847   0.00000  Uiso   1.00
C815   C     0.53113   0.86042   0.64717   0.00000  Uiso   1.00
C816   C     0.46887   0.80624   0.35283   0.00000  Uiso   1.00
H817   H     0.55086   0.95953   0.44917   0.00000  Uiso   1.00
H818   H     0.44914   0.70714   0.55083   0.00000  Uiso   1.00
H819   H     0.55502   0.88229   0.38301   0.00000  Uiso   1.00
H820   H     0.44498   0.78437   0.61699   0.00000  Uiso   1.00
N821   N     0.49999   0.83332   0.61907   0.00000  Uiso   1.00
N822   N     0.50001   0.83334   0.38093   0.00000  Uiso   1.00
O823   O     0.50000   0.77225   0.53821   0.00000  Uiso   1.00
O824   O     0.50000   0.89442   0.46179   0.00000  Uiso   1.00
O825   O     0.50000   0.77226   0.46176   0.00000  Uiso   1.00
O826   O     0.50000   0.89441   0.53824   0.00000  Uiso   1.00
O827   O     0.42392   0.83333   0.52928   0.00000  Uiso   1.00
O828   O     0.57608   0.83334   0.47072   0.00000  Uiso   1.00
O829   O     0.42392   0.83334   0.45284   0.00000  Uiso   1.00
O830   O     0.57608   0.83333   0.54716   0.00000  Uiso   1.00
Zn831  Zn    0.50000   0.83333   0.55104   0.00000  Uiso   1.00
Zn832  Zn    0.50000   0.83334   0.44896   0.00000  Uiso   1.00
C833   C     0.65809   0.87888   0.45348   0.00000  Uiso   1.00
C834   C     0.36406   0.91255   0.44435   0.00000  Uiso   1.00
H835   H     0.38618   0.92386   0.47679   0.00000  Uiso   1.00
H836   H     0.39127   0.90068   0.42125   0.00000  Uiso   1.00
H837   H     0.34287   0.93947   0.42740   0.00000  Uiso   1.00
H838   H     0.64076   0.86505   0.42034   0.00000  Uiso   1.00
H839   H     0.62725   0.89610   0.46878   0.00000  Uiso   1.00
C840   C     0.34190   0.78778   0.54652   0.00000  Uiso   1.00
C841   C     0.63594   0.75409   0.55561   0.00000  Uiso   1.00
H842   H     0.60871   0.76596   0.57870   0.00000  Uiso   1.00
H843   H     0.61384   0.74279   0.52317   0.00000  Uiso   1.00
H844   H     0.65713   0.72718   0.57257   0.00000  Uiso   1.00
H845   H     0.37276   0.77057   0.53124   0.00000  Uiso   1.00
H846   H     0.35921   0.80161   0.57967   0.00000  Uiso   1.00
Br847  Br    0.57316   0.71192   0.42980   0.00000  Uiso   1.00
Br848  Br    0.42682   0.95474   0.57018   0.00000  Uiso   1.00
Br849  Br    0.57711   0.89897   0.62385   0.00000  Uiso   1.00
Br850  Br    0.42289   0.76770   0.37615   0.00000  Uiso   1.00
C851   C     0.83429   0.75340   0.49976   0.00000  Uiso   1.00
C852   C     0.83238   0.91327   0.50025   0.00000  Uiso   1.00
C853   C     0.73410   0.83503   0.48863   0.00000  Uiso   1.00
C854   C     0.93257   0.83164   0.51137   0.00000  Uiso   1.00
C855   C     0.68018   0.84333   0.48507   0.00000  Uiso   1.00
C856   C     0.98649   0.82333   0.51493   0.00000  Uiso   1.00
C857   C     0.86299   0.68678   0.46999   0.00000  Uiso   1.00
C858   C     0.80367   0.97988   0.53000   0.00000  Uiso   1.00
C859   C     0.86164   0.97732   0.47108   0.00000  Uiso   1.00
C860   C     0.80502   0.68934   0.52892   0.00000  Uiso   1.00
C861   C     0.83230   0.95741   0.50077   0.00000  Uiso   1.00
C862   C     0.83437   0.70926   0.49923   0.00000  Uiso   1.00
C863   C     0.86410   0.86046   0.36153   0.00000  Uiso   1.00
C864   C     0.80257   0.80621   0.63847   0.00000  Uiso   1.00
C865   C     0.86446   0.86042   0.64717   0.00000  Uiso   1.00
C866   C     0.80221   0.80624   0.35283   0.00000  Uiso   1.00
H867   H     0.88420   0.95953   0.44917   0.00000  Uiso   1.00
H868   H     0.78247   0.70714   0.55083   0.00000  Uiso   1.00
H869   H     0.88835   0.88229   0.38301   0.00000  Uiso   1.00
H870   H     0.77831   0.78437   0.61699   0.00000  Uiso   1.00
N871   N     0.83332   0.83332   0.61907   0.00000  Uiso   1.00
N872   N     0.83335   0.83334   0.38093   0.00000  Uiso   1.00
O873   O     0.83333   0.77225   0.53821   0.00000  Uiso   1.00
O874   O     0.83334   0.89442   0.46179   0.00000  Uiso   1.00
O875   O     0.83333   0.77226   0.46176   0.00000  Uiso   1.00
O876   O     0.83334   0.89441   0.53824   0.00000  Uiso   1.00
O877   O     0.75725   0.83333   0.52928   0.00000  Uiso   1.00
O878   O     0.90942   0.83334   0.47072   0.00000  Uiso   1.00
O879   O     0.75725   0.83334   0.45284   0.00000  Uiso   1.00
O880   O     0.90942   0.83333   0.54716   0.00000  Uiso   1.00
Zn881  Zn    0.83333   0.83333   0.55104   0.00000  Uiso   1.00
Zn882  Zn    0.83333   0.83334   0.44896   0.00000  Uiso   1.00
C883   C     0.99143   0.87888   0.45348   0.00000  Uiso   1.00
C884   C     0.69739   0.91255   0.44435   0.00000  Uiso   1.00
H885   H     0.71952   0.92386   0.47679   0.00000  Uiso   1.00
H886   H     0.72460   0.90068   0.42125   0.00000  Uiso   1.00
H887   H     0.67621   0.93947   0.42740   0.00000  Uiso   1.00
H888   H     0.97409   0.86505   0.42034   0.00000  Uiso   1.00
H889   H     0.96059   0.89610   0.46878   0.00000  Uiso   1.00
C890   C     0.67524   0.78778   0.54652   0.00000  Uiso   1.00
C891   C     0.96928   0.75409   0.55561   0.00000  Uiso   1.00
H892   H     0.94204   0.76596   0.57870   0.00000  Uiso   1.00
H893   H     0.94717   0.74279   0.52317   0.00000  Uiso   1.00
H894   H     0.99046   0.72718   0.57257   0.00000  Uiso   1.00
H895   H     0.70609   0.77057   0.53124   0.00000  Uiso   1.00
H896   H     0.69254   0.80161   0.57967   0.00000  Uiso   1.00
Br897  Br    0.90650   0.71192   0.42980   0.00000  Uiso   1.00
Br898  Br    0.76015   0.95474   0.57018   0.00000  Uiso   1.00
Br899  Br    0.91044   0.89897   0.62385   0.00000  Uiso   1.00
Br900  Br    0.75622   0.76770   0.37615   0.00000  Uiso   1.00
C901   C     0.16762   0.08673   0.83309   0.00000  Uiso   1.00
C902   C     0.16571   0.24660   0.83358   0.00000  Uiso   1.00
C903   C     0.06743   0.16836   0.82197   0.00000  Uiso   1.00
C904   C     0.26590   0.16497   0.84470   0.00000  Uiso   1.00
C905   C     0.01351   0.17667   0.81840   0.00000  Uiso   1.00
C906   C     0.31982   0.15666   0.84826   0.00000  Uiso   1.00
C907   C     0.19632   0.02012   0.80333   0.00000  Uiso   1.00
C908   C     0.13701   0.31322   0.86334   0.00000  Uiso   1.00
C909   C     0.19498   0.31066   0.80441   0.00000  Uiso   1.00
C910   C     0.13836   0.02268   0.86226   0.00000  Uiso   1.00
C911   C     0.16563   0.29074   0.83411   0.00000  Uiso   1.00
C912   C     0.16770   0.04259   0.83256   0.00000  Uiso   1.00
C913   C     0.19743   0.19379   0.69487   0.00000  Uiso   1.00
C914   C     0.13590   0.13954   0.97180   0.00000  Uiso   1.00
C915   C     0.19779   0.19376   0.98050   0.00000  Uiso   1.00
C916   C     0.13554   0.13958   0.68617   0.00000  Uiso   1.00
H917   H     0.21753   0.29286   0.78251   0.00000  Uiso   1.00
H918   H     0.11580   0.04047   0.88416   0.00000  Uiso   1.00
H919   H     0.22169   0.21563   0.71634   0.00000  Uiso   1.00
H920   H     0.11164   0.11771   0.95032   0.00000  Uiso   1.00
N921   N     0.16665   0.16666   0.95240   0.00000  Uiso   1.00
N922   N     0.16668   0.16668   0.71427   0.00000  Uiso   1.00
O923   O     0.16666   0.10558   0.87154   0.00000  Uiso   1.00
O924   O     0.16667   0.22775   0.79513   0.00000  Uiso   1.00
O925   O     0.16666   0.10559   0.79510   0.00000  Uiso   1.00
O926   O     0.16667   0.22774   0.87157   0.00000  Uiso   1.00
O927   O     0.09058   0.16666   0.86261   0.00000  Uiso   1.00
O928   O     0.24275   0.16667   0.80405   0.00000  Uiso   1.00
O929   O     0.09058   0.16667   0.78617   0.00000  Uiso   1.00
O930   O     0.24275   0.16666   0.88050   0.00000  Uiso   1.00
Zn931  Zn    0.16667   0.16666   0.88437   0.00000  Uiso   1.00
Zn932  Zn    0.16667   0.16667   0.78229   0.00000  Uiso   1.00
C933   C     0.32476   0.21221   0.78681   0.00000  Uiso   1.00
C934   C     0.03072   0.24589   0.77769   0.00000  Uiso   1.00
H935   H     0.05285   0.25720   0.81012   0.00000  Uiso   1.00
H936   H     0.05794   0.23401   0.75458   0.00000  Uiso   1.00
H937   H     0.00954   0.27280   0.76074   0.00000  Uiso   1.00
H938   H     0.30743   0.19838   0.75367   0.00000  Uiso   1.00
H939   H     0.29392   0.22943   0.80211   0.00000  Uiso   1.00
C940   C     0.00857   0.12111   0.87985   0.00000  Uiso   1.00
C941   C     0.30261   0.08743   0.88895   0.00000  Uiso   1.00
H942   H     0.27537   0.09929   0.91204   0.00000  Uiso   1.00
H943   H     0.28051   0.07612   0.85650   0.00000  Uiso   1.00
H944   H     0.32379   0.06052   0.90590   0.00000  Uiso   1.00
H945   H     0.03943   0.10390   0.86457   0.00000  Uiso   1.00
H946   H     0.02588   0.13494   0.91300   0.00000  Uiso   1.00
Br947  Br    0.23983   0.04525   0.76314   0.00000  Uiso   1.00
Br948  Br    0.09348   0.28808   0.90351   0.00000  Uiso   1.00
Br949  Br    0.24378   0.23230   0.95718   0.00000  Uiso   1.00
Br950  Br    0.08956   0.10103   0.70949   0.00000  Uiso   1.00
C951   C     0.50095   0.08673   0.83309   0.00000  Uiso   1.00
C952   C     0.49905   0.24660   0.83358   0.00000  Uiso   1.00
C953   C     0.40076   0.16836   0.82197   0.00000  Uiso   1.00
C954   C     0.59924   0.16497   0.84470   0.00000  Uiso   1.00
C955   C     0.34684   0.17667   0.81840   0.00000  Uiso   1.00
C956   C     0.65316   0.15666   0.84826   0.00000  Uiso   1.00
C957   C     0.52965   0.02012   0.80333   0.00000  Uiso   1.00
C958   C     0.47034   0.31322   0.86334   0.00000  Uiso   1.00
C959   C     0.52831   0.31066   0.80441   0.00000  Uiso   1.00
C960   C     0.47169   0.02268   0.86226   0.00000  Uiso   1.00
C961   C     0.49896   0.29074   0.83411   0.00000  Uiso   1.00
C962   C     0.50104   0.04259   0.83256   0.00000  Uiso   1.00
C963   C     0.53076   0.19379   0.69487   0.00000  Uiso   1.00
C964   C     0.46924   0.13954   0.97180   0.00000  Uiso   1.00
C965   C     0.53113   0.19376   0.98050   0.00000  Uiso   1.00
C966   C     0.46887   0.13958   0.68617   0.00000  Uiso   1.00
H967   H     0.55086   0.29286   0.78251   0.00000  Uiso   1.00
H968   H     0.44914   0.04047   0.88416   0.00000  Uiso   1.00
H969   H     0.55502   0.21563   0.71634   0.00000  Uiso   1.00
H970   H     0.44498   0.11771   0.95032   0.00000  Uiso   1.00
N971   N     0.49999   0.16666   0.95240   0.00000  Uiso   1.00
N972   N     0.50001   0.16668   0.71427   0.00000  Uiso   1.00
O973   O     0.50000   0.10558   0.87154   0.00000  Uiso   1.00
O974   O     0.50000   0.22775   0.79513   0.00000  Uiso   1.00
O975   O     0.50000   0.10559   0.79510   0.00000  Uiso   1.00
O976   O     0.50000   0.22774   0.87157   0.00000  Uiso   1.00
O977   O     0.42392   0.16666   0.86261   0.00000  Uiso   1.00
O978   O     0.57608   0.16667   0.80405   0.00000  Uiso   1.00
O979   O     0.42392   0.16667   0.78617   0.00000  Uiso   1.00
O980   O     0.57608   0.16666   0.88050   0.00000  Uiso   1.00
Zn981  Zn    0.50000   0.16666   0.88437   0.00000  Uiso   1.00
Zn982  Zn    0.50000   0.16667   0.78229   0.00000  Uiso   1.00
C983   C     0.65809   0.21221   0.78681   0.00000  Uiso   1.00
C984   C     0.36406   0.24589   0.77769   0.00000  Uiso   1.00
H985   H     0.38618   0.25720   0.81012   0.00000  Uiso   1.00
H986   H     0.39127   0.23401   0.75458   0.00000  Uiso   1.00
H987   H     0.34287   0.27280   0.76074   0.00000  Uiso   1.00
H988   H     0.64076   0.19838   0.75367   0.00000  Uiso   1.00
H989   H     0.62725   0.22943   0.80211   0.00000  Uiso   1.00
C990   C     0.34190   0.12111   0.87985   0.00000  Uiso   1.00
C991   C     0.63594   0.08743   0.88895   0.00000  Uiso   1.00
H992   H     0.60871   0.09929   0.91204   0.00000  Uiso   1.00
H993   H     0.61384   0.07612   0.85650   0.00000  Uiso   1.00
H994   H     0.65713   0.06052   0.90590   0.00000  Uiso   1.00
H995   H     0.37276   0.10390   0.86457   0.00000  Uiso   1.00
H996   H     0.35921   0.13494   0.91300   0.00000  Uiso   1.00
Br997  Br    0.57316   0.04525   0.76314   0.00000  Uiso   1.00
Br998  Br    0.42682   0.28808   0.90351   0.00000  Uiso   1.00
Br999  Br    0.57711   0.23230   0.95718   0.00000  Uiso   1.00
Br1000 Br    0.42289   0.10103   0.70949   0.00000  Uiso   1.00
C1001  C     0.83429   0.08673   0.83309   0.00000  Uiso   1.00
C1002  C     0.83238   0.24660   0.83358   0.00000  Uiso   1.00
C1003  C     0.73410   0.16836   0.82197   0.00000  Uiso   1.00
C1004  C     0.93257   0.16497   0.84470   0.00000  Uiso   1.00
C1005  C     0.68018   0.17667   0.81840   0.00000  Uiso   1.00
C1006  C     0.98649   0.15666   0.84826   0.00000  Uiso   1.00
C1007  C     0.86299   0.02012   0.80333   0.00000  Uiso   1.00
C1008  C     0.80367   0.31322   0.86334   0.00000  Uiso   1.00
C1009  C     0.86164   0.31066   0.80441   0.00000  Uiso   1.00
C1010  C     0.80502   0.02268   0.86226   0.00000  Uiso   1.00
C1011  C     0.83230   0.29074   0.83411   0.00000  Uiso   1.00
C1012  C     0.83437   0.04259   0.83256   0.00000  Uiso   1.00
C1013  C     0.86410   0.19379   0.69487   0.00000  Uiso   1.00
C1014  C     0.80257   0.13954   0.97180   0.00000  Uiso   1.00
C1015  C     0.86446   0.19376   0.98050   0.00000  Uiso   1.00
C1016  C     0.80221   0.13958   0.68617   0.00000  Uiso   1.00
H1017  H     0.88420   0.29286   0.78251   0.00000  Uiso   1.00
H1018  H     0.78247   0.04047   0.88416   0.00000  Uiso   1.00
H1019  H     0.88835   0.21563   0.71634   0.00000  Uiso   1.00
H1020  H     0.77831   0.11771   0.95032   0.00000  Uiso   1.00
N1021  N     0.83332   0.16666   0.95240   0.00000  Uiso   1.00
N1022  N     0.83335   0.16668   0.71427   0.00000  Uiso   1.00
O1023  O     0.83333   0.10558   0.87154   0.00000  Uiso   1.00
O1024  O     0.83334   0.22775   0.79513   0.00000  Uiso   1.00
O1025  O     0.83333   0.10559   0.79510   0.00000  Uiso   1.00
O1026  O     0.83334   0.22774   0.87157   0.00000  Uiso   1.00
O1027  O     0.75725   0.16666   0.86261   0.00000  Uiso   1.00
O1028  O     0.90942   0.16667   0.80405   0.00000  Uiso   1.00
O1029  O     0.75725   0.16667   0.78617   0.00000  Uiso   1.00
O1030  O     0.90942   0.16666   0.88050   0.00000  Uiso   1.00
Zn1031 Zn    0.83333   0.16666   0.88437   0.00000  Uiso   1.00
Zn1032 Zn    0.83333   0.16667   0.78229   0.00000  Uiso   1.00
C1033  C     0.99143   0.21221   0.78681   0.00000  Uiso   1.00
C1034  C     0.69739   0.24589   0.77769   0.00000  Uiso   1.00
H1035  H     0.71952   0.25720   0.81012   0.00000  Uiso   1.00
H1036  H     0.72460   0.23401   0.75458   0.00000  Uiso   1.00
H1037  H     0.67621   0.27280   0.76074   0.00000  Uiso   1.00
H1038  H     0.97409   0.19838   0.75367   0.00000  Uiso   1.00
H1039  H     0.96059   0.22943   0.80211   0.00000  Uiso   1.00
C1040  C     0.67524   0.12111   0.87985   0.00000  Uiso   1.00
C1041  C     0.96928   0.08743   0.88895   0.00000  Uiso   1.00
H1042  H     0.94204   0.09929   0.91204   0.00000  Uiso   1.00
H1043  H     0.94717   0.07612   0.85650   0.00000  Uiso   1.00
H1044  H     0.99046   0.06052   0.90590   0.00000  Uiso   1.00
H1045  H     0.70609   0.10390   0.86457   0.00000  Uiso   1.00
H1046  H     0.69254   0.13494   0.91300   0.00000  Uiso   1.00
Br1047 Br    0.90650   0.04525   0.76314   0.00000  Uiso   1.00
Br1048 Br    0.76015   0.28808   0.90351   0.00000  Uiso   1.00
Br1049 Br    0.91044   0.23230   0.95718   0.00000  Uiso   1.00
Br1050 Br    0.75622   0.10103   0.70949   0.00000  Uiso   1.00
C1051  C     0.16762   0.42006   0.83309   0.00000  Uiso   1.00
C1052  C     0.16571   0.57994   0.83358   0.00000  Uiso   1.00
C1053  C     0.06743   0.50169   0.82197   0.00000  Uiso   1.00
C1054  C     0.26590   0.49831   0.84470   0.00000  Uiso   1.00
C1055  C     0.01351   0.51000   0.81840   0.00000  Uiso   1.00
C1056  C     0.31982   0.48999   0.84826   0.00000  Uiso   1.00
C1057  C     0.19632   0.35345   0.80333   0.00000  Uiso   1.00
C1058  C     0.13701   0.64655   0.86334   0.00000  Uiso   1.00
C1059  C     0.19498   0.64399   0.80441   0.00000  Uiso   1.00
C1060  C     0.13836   0.35601   0.86226   0.00000  Uiso   1.00
C1061  C     0.16563   0.62407   0.83411   0.00000  Uiso   1.00
C1062  C     0.16770   0.37593   0.83256   0.00000  Uiso   1.00
C1063  C     0.19743   0.52712   0.69487   0.00000  Uiso   1.00
C1064  C     0.13590   0.47288   0.97180   0.00000  Uiso   1.00
C1065  C     0.19779   0.52709   0.98050   0.00000  Uiso   1.00
C1066  C     0.13554   0.47291   0.68617   0.00000  Uiso   1.00
H1067  H     0.21753   0.62620   0.78251   0.00000  Uiso   1.00
H1068  H     0.11580   0.37380   0.88416   0.00000  Uiso   1.00
H1069  H     0.22169   0.54896   0.71634   0.00000  Uiso   1.00
H1070  H     0.11164   0.45104   0.95032   0.00000  Uiso   1.00
N1071  N     0.16665   0.49999   0.95240   0.00000  Uiso   1.00
N1072  N     0.16668   0.50001   0.71427   0.00000  Uiso   1.00
O1073  O     0.16666   0.43892   0.87154   0.00000  Uiso   1.00
O1074  O     0.16667   0.56108   0.79513   0.00000  Uiso   1.00
O1075  O     0.16666   0.43893   0.79510   0.00000  Uiso   1.00
O1076  O     0.16667   0.56107   0.87157   0.00000  Uiso   1.00
O1077  O     0.09058   0.50000   0.86261   0.00000  Uiso   1.00
O1078  O     0.24275   0.50000   0.80405   0.00000  Uiso   1.00
O1079  O     0.09058   0.50000   0.78617   0.00000  Uiso   1.00
O1080  O     0.24275   0.50000   0.88050   0.00000  Uiso   1.00
Zn1081 Zn    0.16667   0.49999   0.88437   0.00000  Uiso   1.00
Zn1082 Zn    0.16667   0.50001   0.78229   0.00000  Uiso   1.00
C1083  C     0.32476   0.54555   0.78681   0.00000  Uiso   1.00
C1084  C     0.03072   0.57922   0.77769   0.00000  Uiso   1.00
H1085  H     0.05285   0.59053   0.81012   0.00000  Uiso   1.00
H1086  H     0.05794   0.56734   0.75458   0.00000  Uiso   1.00
H1087  H     0.00954   0.60613   0.76074   0.00000  Uiso   1.00
H1088  H     0.30743   0.53171   0.75367   0.00000  Uiso   1.00
H1089  H     0.29392   0.56277   0.80211   0.00000  Uiso   1.00
C1090  C     0.00857   0.45445   0.87985   0.00000  Uiso   1.00
C1091  C     0.30261   0.42076   0.88895   0.00000  Uiso   1.00
H1092  H     0.27537   0.43262   0.91204   0.00000  Uiso   1.00
H1093  H     0.28051   0.40945   0.85650   0.00000  Uiso   1.00
H1094  H     0.32379   0.39385   0.90590   0.00000  Uiso   1.00
H1095  H     0.03943   0.43724   0.86457   0.00000  Uiso   1.00
H1096  H     0.02588   0.46828   0.91300   0.00000  Uiso   1.00
Br1097 Br    0.23983   0.37859   0.76314   0.00000  Uiso   1.00
Br1098 Br    0.09348   0.62141   0.90351   0.00000  Uiso   1.00
Br1099 Br    0.24378   0.56563   0.95718   0.00000  Uiso   1.00
Br1100 Br    0.08956   0.43436   0.70949   0.00000  Uiso   1.00
C1101  C     0.50095   0.42006   0.83309   0.00000  Uiso   1.00
C1102  C     0.49905   0.57994   0.83358   0.00000  Uiso   1.00
C1103  C     0.40076   0.50169   0.82197   0.00000  Uiso   1.00
C1104  C     0.59924   0.49831   0.84470   0.00000  Uiso   1.00
C1105  C     0.34684   0.51000   0.81840   0.00000  Uiso   1.00
C1106  C     0.65316   0.48999   0.84826   0.00000  Uiso   1.00
C1107  C     0.52965   0.35345   0.80333   0.00000  Uiso   1.00
C1108  C     0.47034   0.64655   0.86334   0.00000  Uiso   1.00
C1109  C     0.52831   0.64399   0.80441   0.00000  Uiso   1.00
C1110  C     0.47169   0.35601   0.86226   0.00000  Uiso   1.00
C1111  C     0.49896   0.62407   0.83411   0.00000  Uiso   1.00
C1112  C     0.50104   0.37593   0.83256   0.00000  Uiso   1.00
C1113  C     0.53076   0.52712   0.69487   0.00000  Uiso   1.00
C1114  C     0.46924   0.47288   0.97180   0.00000  Uiso   1.00
C1115  C     0.53113   0.52709   0.98050   0.00000  Uiso   1.00
C1116  C     0.46887   0.47291   0.68617   0.00000  Uiso   1.00
H1117  H     0.55086   0.62620   0.78251   0.00000  Uiso   1.00
H1118  H     0.44914   0.37380   0.88416   0.00000  Uiso   1.00
H1119  H     0.55502   0.54896   0.71634   0.00000  Uiso   1.00
H1120  H     0.44498   0.45104   0.95032   0.00000  Uiso   1.00
N1121  N     0.49999   0.49999   0.95240   0.00000  Uiso   1.00
N1122  N     0.50001   0.50001   0.71427   0.00000  Uiso   1.00
O1123  O     0.50000   0.43892   0.87154   0.00000  Uiso   1.00
O1124  O     0.50000   0.56108   0.79513   0.00000  Uiso   1.00
O1125  O     0.50000   0.43893   0.79510   0.00000  Uiso   1.00
O1126  O     0.50000   0.56107   0.87157   0.00000  Uiso   1.00
O1127  O     0.42392   0.50000   0.86261   0.00000  Uiso   1.00
O1128  O     0.57608   0.50000   0.80405   0.00000  Uiso   1.00
O1129  O     0.42392   0.50000   0.78617   0.00000  Uiso   1.00
O1130  O     0.57608   0.50000   0.88050   0.00000  Uiso   1.00
Zn1131 Zn    0.50000   0.49999   0.88437   0.00000  Uiso   1.00
Zn1132 Zn    0.50000   0.50001   0.78229   0.00000  Uiso   1.00
C1133  C     0.65809   0.54555   0.78681   0.00000  Uiso   1.00
C1134  C     0.36406   0.57922   0.77769   0.00000  Uiso   1.00
H1135  H     0.38618   0.59053   0.81012   0.00000  Uiso   1.00
H1136  H     0.39127   0.56734   0.75458   0.00000  Uiso   1.00
H1137  H     0.34287   0.60613   0.76074   0.00000  Uiso   1.00
H1138  H     0.64076   0.53171   0.75367   0.00000  Uiso   1.00
H1139  H     0.62725   0.56277   0.80211   0.00000  Uiso   1.00
C1140  C     0.34190   0.45445   0.87985   0.00000  Uiso   1.00
C1141  C     0.63594   0.42076   0.88895   0.00000  Uiso   1.00
H1142  H     0.60871   0.43262   0.91204   0.00000  Uiso   1.00
H1143  H     0.61384   0.40945   0.85650   0.00000  Uiso   1.00
H1144  H     0.65713   0.39385   0.90590   0.00000  Uiso   1.00
H1145  H     0.37276   0.43724   0.86457   0.00000  Uiso   1.00
H1146  H     0.35921   0.46828   0.91300   0.00000  Uiso   1.00
Br1147 Br    0.57316   0.37859   0.76314   0.00000  Uiso   1.00
Br1148 Br    0.42682   0.62141   0.90351   0.00000  Uiso   1.00
Br1149 Br    0.57711   0.56563   0.95718   0.00000  Uiso   1.00
Br1150 Br    0.42289   0.43436   0.70949   0.00000  Uiso   1.00
C1151  C     0.83429   0.42006   0.83309   0.00000  Uiso   1.00
C1152  C     0.83238   0.57994   0.83358   0.00000  Uiso   1.00
C1153  C     0.73410   0.50169   0.82197   0.00000  Uiso   1.00
C1154  C     0.93257   0.49831   0.84470   0.00000  Uiso   1.00
C1155  C     0.68018   0.51000   0.81840   0.00000  Uiso   1.00
C1156  C     0.98649   0.48999   0.84826   0.00000  Uiso   1.00
C1157  C     0.86299   0.35345   0.80333   0.00000  Uiso   1.00
C1158  C     0.80367   0.64655   0.86334   0.00000  Uiso   1.00
C1159  C     0.86164   0.64399   0.80441   0.00000  Uiso   1.00
C1160  C     0.80502   0.35601   0.86226   0.00000  Uiso   1.00
C1161  C     0.83230   0.62407   0.83411   0.00000  Uiso   1.00
C1162  C     0.83437   0.37593   0.83256   0.00000  Uiso   1.00
C1163  C     0.86410   0.52712   0.69487   0.00000  Uiso   1.00
C1164  C     0.80257   0.47288   0.97180   0.00000  Uiso   1.00
C1165  C     0.86446   0.52709   0.98050   0.00000  Uiso   1.00
C1166  C     0.80221   0.47291   0.68617   0.00000  Uiso   1.00
H1167  H     0.88420   0.62620   0.78251   0.00000  Uiso   1.00
H1168  H     0.78247   0.37380   0.88416   0.00000  Uiso   1.00
H1169  H     0.88835   0.54896   0.71634   0.00000  Uiso   1.00
H1170  H     0.77831   0.45104   0.95032   0.00000  Uiso   1.00
N1171  N     0.83332   0.49999   0.95240   0.00000  Uiso   1.00
N1172  N     0.83335   0.50001   0.71427   0.00000  Uiso   1.00
O1173  O     0.83333   0.43892   0.87154   0.00000  Uiso   1.00
O1174  O     0.83334   0.56108   0.79513   0.00000  Uiso   1.00
O1175  O     0.83333   0.43893   0.79510   0.00000  Uiso   1.00
O1176  O     0.83334   0.56107   0.87157   0.00000  Uiso   1.00
O1177  O     0.75725   0.50000   0.86261   0.00000  Uiso   1.00
O1178  O     0.90942   0.50000   0.80405   0.00000  Uiso   1.00
O1179  O     0.75725   0.50000   0.78617   0.00000  Uiso   1.00
O1180  O     0.90942   0.50000   0.88050   0.00000  Uiso   1.00
Zn1181 Zn    0.83333   0.49999   0.88437   0.00000  Uiso   1.00
Zn1182 Zn    0.83333   0.50001   0.78229   0.00000  Uiso   1.00
C1183  C     0.99143   0.54555   0.78681   0.00000  Uiso   1.00
C1184  C     0.69739   0.57922   0.77769   0.00000  Uiso   1.00
H1185  H     0.71952   0.59053   0.81012   0.00000  Uiso   1.00
H1186  H     0.72460   0.56734   0.75458   0.00000  Uiso   1.00
H1187  H     0.67621   0.60613   0.76074   0.00000  Uiso   1.00
H1188  H     0.97409   0.53171   0.75367   0.00000  Uiso   1.00
H1189  H     0.96059   0.56277   0.80211   0.00000  Uiso   1.00
C1190  C     0.67524   0.45445   0.87985   0.00000  Uiso   1.00
C1191  C     0.96928   0.42076   0.88895   0.00000  Uiso   1.00
H1192  H     0.94204   0.43262   0.91204   0.00000  Uiso   1.00
H1193  H     0.94717   0.40945   0.85650   0.00000  Uiso   1.00
H1194  H     0.99046   0.39385   0.90590   0.00000  Uiso   1.00
H1195  H     0.70609   0.43724   0.86457   0.00000  Uiso   1.00
H1196  H     0.69254   0.46828   0.91300   0.00000  Uiso   1.00
Br1197 Br    0.90650   0.37859   0.76314   0.00000  Uiso   1.00
Br1198 Br    0.76015   0.62141   0.90351   0.00000  Uiso   1.00
Br1199 Br    0.91044   0.56563   0.95718   0.00000  Uiso   1.00
Br1200 Br    0.75622   0.43436   0.70949   0.00000  Uiso   1.00
C1201  C     0.16762   0.75340   0.83309   0.00000  Uiso   1.00
C1202  C     0.16571   0.91327   0.83358   0.00000  Uiso   1.00
C1203  C     0.06743   0.83503   0.82197   0.00000  Uiso   1.00
C1204  C     0.26590   0.83164   0.84470   0.00000  Uiso   1.00
C1205  C     0.01351   0.84333   0.81840   0.00000  Uiso   1.00
C1206  C     0.31982   0.82333   0.84826   0.00000  Uiso   1.00
C1207  C     0.19632   0.68678   0.80333   0.00000  Uiso   1.00
C1208  C     0.13701   0.97988   0.86334   0.00000  Uiso   1.00
C1209  C     0.19498   0.97732   0.80441   0.00000  Uiso   1.00
C1210  C     0.13836   0.68934   0.86226   0.00000  Uiso   1.00
C1211  C     0.16563   0.95741   0.83411   0.00000  Uiso   1.00
C1212  C     0.16770   0.70926   0.83256   0.00000  Uiso   1.00
C1213  C     0.19743   0.86046   0.69487   0.00000  Uiso   1.00
C1214  C     0.13590   0.80621   0.97180   0.00000  Uiso   1.00
C1215  C     0.19779   0.86042   0.98050   0.00000  Uiso   1.00
C1216  C     0.13554   0.80624   0.68617   0.00000  Uiso   1.00
H1217  H     0.21753   0.95953   0.78251   0.00000  Uiso   1.00
H1218  H     0.11580   0.70714   0.88416   0.00000  Uiso   1.00
H1219  H     0.22169   0.88229   0.71634   0.00000  Uiso   1.00
H1220  H     0.11164   0.78437   0.95032   0.00000  Uiso   1.00
N1221  N     0.16665   0.83332   0.95240   0.00000  Uiso   1.00
N1222  N     0.16668   0.83334   0.71427   0.00000  Uiso   1.00
O1223  O     0.16666   0.77225   0.87154   0.00000  Uiso   1.00
O1224  O     0.16667   0.89442   0.79513   0.00000  Uiso   1.00
O1225  O     0.16666   0.77226   0.79510   0.00000  Uiso   1.00
O1226  O     0.16667   0.89441   0.87157   0.00000  Uiso   1.00
O1227  O     0.09058   0.83333   0.86261   0.00000  Uiso   1.00
O1228  O     0.24275   0.83334   0.80405   0.00000  Uiso   1.00
O1229  O     0.09058   0.83334   0.78617   0.00000  Uiso   1.00
O1230  O     0.24275   0.83333   0.88050   0.00000  Uiso   1.00
Zn1231 Zn    0.16667   0.83333   0.88437   0.00000  Uiso   1.00
Zn1232 Zn    0.16667   0.83334   0.78229   0.00000  Uiso   1.00
C1233  C     0.32476   0.87888   0.78681   0.00000  Uiso   1.00
C1234  C     0.03072   0.91255   0.77769   0.00000  Uiso   1.00
H1235  H     0.05285   0.92386   0.81012   0.00000  Uiso   1.00
H1236  H     0.05794   0.90068   0.75458   0.00000  Uiso   1.00
H1237  H     0.00954   0.93947   0.76074   0.00000  Uiso   1.00
H1238  H     0.30743   0.86505   0.75367   0.00000  Uiso   1.00
H1239  H     0.29392   0.89610   0.80211   0.00000  Uiso   1.00
C1240  C     0.00857   0.78778   0.87985   0.00000  Uiso   1.00
C1241  C     0.30261   0.75409   0.88895   0.00000  Uiso   1.00
H1242  H     0.27537   0.76596   0.91204   0.00000  Uiso   1.00
H1243  H     0.28051   0.74279   0.85650   0.00000  Uiso   1.00
H1244  H     0.32379   0.72718   0.90590   0.00000  Uiso   1.00
H1245  H     0.03943   0.77057   0.86457   0.00000  Uiso   1.00
H1246  H     0.02588   0.80161   0.91300   0.00000  Uiso   1.00
Br1247 Br    0.23983   0.71192   0.76314   0.00000  Uiso   1.00
Br1248 Br    0.09348   0.95474   0.90351   0.00000  Uiso   1.00
Br1249 Br    0.24378   0.89897   0.95718   0.00000  Uiso   1.00
Br1250 Br    0.08956   0.76770   0.70949   0.00000  Uiso   1.00
C1251  C     0.50095   0.75340   0.83309   0.00000  Uiso   1.00
C1252  C     0.49905   0.91327   0.83358   0.00000  Uiso   1.00
C1253  C     0.40076   0.83503   0.82197   0.00000  Uiso   1.00
C1254  C     0.59924   0.83164   0.84470   0.00000  Uiso   1.00
C1255  C     0.34684   0.84333   0.81840   0.00000  Uiso   1.00
C1256  C     0.65316   0.82333   0.84826   0.00000  Uiso   1.00
C1257  C     0.52965   0.68678   0.80333   0.00000  Uiso   1.00
C1258  C     0.47034   0.97988   0.86334   0.00000  Uiso   1.00
C1259  C     0.52831   0.97732   0.80441   0.00000  Uiso   1.00
C1260  C     0.47169   0.68934   0.86226   0.00000  Uiso   1.00
C1261  C     0.49896   0.95741   0.83411   0.00000  Uiso   1.00
C1262  C     0.50104   0.70926   0.83256   0.00000  Uiso   1.00
C1263  C     0.53076   0.86046   0.69487   0.00000  Uiso   1.00
C1264  C     0.46924   0.80621   0.97180   0.00000  Uiso   1.00
C1265  C     0.53113   0.86042   0.98050   0.00000  Uiso   1.00
C1266  C     0.46887   0.80624   0.68617   0.00000  Uiso   1.00
H1267  H     0.55086   0.95953   0.78251   0.00000  Uiso   1.00
H1268  H     0.44914   0.70714   0.88416   0.00000  Uiso   1.00
H1269  H     0.55502   0.88229   0.71634   0.00000  Uiso   1.00
H1270  H     0.44498   0.78437   0.95032   0.00000  Uiso   1.00
N1271  N     0.49999   0.83332   0.95240   0.00000  Uiso   1.00
N1272  N     0.50001   0.83334   0.71427   0.00000  Uiso   1.00
O1273  O     0.50000   0.77225   0.87154   0.00000  Uiso   1.00
O1274  O     0.50000   0.89442   0.79513   0.00000  Uiso   1.00
O1275  O     0.50000   0.77226   0.79510   0.00000  Uiso   1.00
O1276  O     0.50000   0.89441   0.87157   0.00000  Uiso   1.00
O1277  O     0.42392   0.83333   0.86261   0.00000  Uiso   1.00
O1278  O     0.57608   0.83334   0.80405   0.00000  Uiso   1.00
O1279  O     0.42392   0.83334   0.78617   0.00000  Uiso   1.00
O1280  O     0.57608   0.83333   0.88050   0.00000  Uiso   1.00
Zn1281 Zn    0.50000   0.83333   0.88437   0.00000  Uiso   1.00
Zn1282 Zn    0.50000   0.83334   0.78229   0.00000  Uiso   1.00
C1283  C     0.65809   0.87888   0.78681   0.00000  Uiso   1.00
C1284  C     0.36406   0.91255   0.77769   0.00000  Uiso   1.00
H1285  H     0.38618   0.92386   0.81012   0.00000  Uiso   1.00
H1286  H     0.39127   0.90068   0.75458   0.00000  Uiso   1.00
H1287  H     0.34287   0.93947   0.76074   0.00000  Uiso   1.00
H1288  H     0.64076   0.86505   0.75367   0.00000  Uiso   1.00
H1289  H     0.62725   0.89610   0.80211   0.00000  Uiso   1.00
C1290  C     0.34190   0.78778   0.87985   0.00000  Uiso   1.00
C1291  C     0.63594   0.75409   0.88895   0.00000  Uiso   1.00
H1292  H     0.60871   0.76596   0.91204   0.00000  Uiso   1.00
H1293  H     0.61384   0.74279   0.85650   0.00000  Uiso   1.00
H1294  H     0.65713   0.72718   0.90590   0.00000  Uiso   1.00
H1295  H     0.37276   0.77057   0.86457   0.00000  Uiso   1.00
H1296  H     0.35921   0.80161   0.91300   0.00000  Uiso   1.00
Br1297 Br    0.57316   0.71192   0.76314   0.00000  Uiso   1.00
Br1298 Br    0.42682   0.95474   0.90351   0.00000  Uiso   1.00
Br1299 Br    0.57711   0.89897   0.95718   0.00000  Uiso   1.00
Br1300 Br    0.42289   0.76770   0.70949   0.00000  Uiso   1.00
C1301  C     0.83429   0.75340   0.83309   0.00000  Uiso   1.00
C1302  C     0.83238   0.91327   0.83358   0.00000  Uiso   1.00
C1303  C     0.73410   0.83503   0.82197   0.00000  Uiso   1.00
C1304  C     0.93257   0.83164   0.84470   0.00000  Uiso   1.00
C1305  C     0.68018   0.84333   0.81840   0.00000  Uiso   1.00
C1306  C     0.98649   0.82333   0.84826   0.00000  Uiso   1.00
C1307  C     0.86299   0.68678   0.80333   0.00000  Uiso   1.00
C1308  C     0.80367   0.97988   0.86334   0.00000  Uiso   1.00
C1309  C     0.86164   0.97732   0.80441   0.00000  Uiso   1.00
C1310  C     0.80502   0.68934   0.86226   0.00000  Uiso   1.00
C1311  C     0.83230   0.95741   0.83411   0.00000  Uiso   1.00
C1312  C     0.83437   0.70926   0.83256   0.00000  Uiso   1.00
C1313  C     0.86410   0.86046   0.69487   0.00000  Uiso   1.00
C1314  C     0.80257   0.80621   0.97180   0.00000  Uiso   1.00
C1315  C     0.86446   0.86042   0.98050   0.00000  Uiso   1.00
C1316  C     0.80221   0.80624   0.68617   0.00000  Uiso   1.00
H1317  H     0.88420   0.95953   0.78251   0.00000  Uiso   1.00
H1318  H     0.78247   0.70714   0.88416   0.00000  Uiso   1.00
H1319  H     0.88835   0.88229   0.71634   0.00000  Uiso   1.00
H1320  H     0.77831   0.78437   0.95032   0.00000  Uiso   1.00
N1321  N     0.83332   0.83332   0.95240   0.00000  Uiso   1.00
N1322  N     0.83335   0.83334   0.71427   0.00000  Uiso   1.00
O1323  O     0.83333   0.77225   0.87154   0.00000  Uiso   1.00
O1324  O     0.83334   0.89442   0.79513   0.00000  Uiso   1.00
O1325  O     0.83333   0.77226   0.79510   0.00000  Uiso   1.00
O1326  O     0.83334   0.89441   0.87157   0.00000  Uiso   1.00
O1327  O     0.75725   0.83333   0.86261   0.00000  Uiso   1.00
O1328  O     0.90942   0.83334   0.80405   0.00000  Uiso   1.00
O1329  O     0.75725   0.83334   0.78617   0.00000  Uiso   1.00
O1330  O     0.90942   0.83333   0.88050   0.00000  Uiso   1.00
Zn1331 Zn    0.83333   0.83333   0.88437   0.00000  Uiso   1.00
Zn1332 Zn    0.83333   0.83334   0.78229   0.00000  Uiso   1.00
C1333  C     0.99143   0.87888   0.78681   0.00000  Uiso   1.00
C1334  C     0.69739   0.91255   0.77769   0.00000  Uiso   1.00
H1335  H     0.71952   0.92386   0.81012   0.00000  Uiso   1.00
H1336  H     0.72460   0.90068   0.75458   0.00000  Uiso   1.00
H1337  H     0.67621   0.93947   0.76074   0.00000  Uiso   1.00
H1338  H     0.97409   0.86505   0.75367   0.00000  Uiso   1.00
H1339  H     0.96059   0.89610   0.80211   0.00000  Uiso   1.00
C1340  C     0.67524   0.78778   0.87985   0.00000  Uiso   1.00
C1341  C     0.96928   0.75409   0.88895   0.00000  Uiso   1.00
H1342  H     0.94204   0.76596   0.91204   0.00000  Uiso   1.00
H1343  H     0.94717   0.74279   0.85650   0.00000  Uiso   1.00
H1344  H     0.99046   0.72718   0.90590   0.00000  Uiso   1.00
H1345  H     0.70609   0.77057   0.86457   0.00000  Uiso   1.00
H1346  H     0.69254   0.80161   0.91300   0.00000  Uiso   1.00
Br1347 Br    0.90650   0.71192   0.76314   0.00000  Uiso   1.00
Br1348 Br    0.76015   0.95474   0.90351   0.00000  Uiso   1.00
Br1349 Br    0.91044   0.89897   0.95718   0.00000  Uiso   1.00
Br1350 Br    0.75622   0.76770   0.70949   0.00000  Uiso   1.00
loop_
_geom_bond_atom_site_label_1
_geom_bond_atom_site_label_2
_geom_bond_distance
_geom_bond_site_symmetry_2
_ccdc_geom_bond_type
C1     O25     1.282   .     A
C1     C12     1.413   .     S
C1     O23     1.285   .     A
C2     O26     1.282   .     A
C2     C11     1.413   .     S
C2     O24     1.285   .     A
C3     O27     1.274   .     A
C3     O29     1.286   .     A
C3     C5      1.411   .     S
C4     C6      1.411   .     S
C4     O28     1.274   .     A
C4     O30     1.286   .     A
C5     C106    1.364   1_455 S
C5     C133    1.544   1_455 S
C6     C55     1.364   .     S
C6     C90     1.544   .     S
C7     C12     1.404   .     A
C7     Br47    1.927   .     S
C7     C309    1.371   1_545 S
C8     Br48    1.926   .     S
C8     C11     1.404   .     A
C8     C160    1.371   .     S
C9     C11     1.396   .     A
C9     H17     1.085   .     S
C9     C157    1.371   .     S
C10    C12     1.396   .     A
C10    H18     1.085   .     S
C10    C308    1.371   1_545 S
C13    N22     1.360   .     A
C13    H19     1.081   .     S
C13    C915    1.415   1_554 S
C14    N21     1.360   .     A
C14    H20     1.081   .     S
C14    C466    1.415   .     S
C15    N21     1.377   .     A
C15    Br49    1.911   .     S
C15    C463    1.415   .     S
C16    Br50    1.911   .     S
C16    N22     1.377   .     A
C16    C914    1.415   1_554 S
N21    Zn31    2.016   .     S
N22    Zn32    2.016   .     S
O23    Zn31    1.987   .     S
O24    Zn32    1.987   .     S
O25    Zn32    1.997   .     S
O26    Zn31    1.997   .     S
O27    Zn31    1.988   .     S
O28    Zn32    1.988   .     S
O29    Zn32    1.987   .     S
O30    Zn31    1.987   .     S
C33    H38     1.110   .     S
C33    H39     1.112   .     S
C33    C55     1.544   .     S
C33    C84     1.532   .     S
C34    H37     1.111   .     S
C34    H36     1.109   .     S
C34    H35     1.108   .     S
C34    C133    1.532   1_455 S
C40    H46     1.110   .     S
C40    H45     1.112   .     S
C40    C106    1.544   1_455 S
C40    C141    1.532   1_455 S
C41    H42     1.109   .     S
C41    H43     1.108   .     S
C41    H44     1.111   .     S
C41    C90     1.532   .     S
C51    O75     1.282   .     A
C51    C62     1.413   .     S
C51    O73     1.285   .     A
C52    O76     1.282   .     A
C52    C61     1.413   .     S
C52    O74     1.285   .     A
C53    O77     1.274   .     A
C53    O79     1.286   .     A
C53    C55     1.411   .     S
C54    C56     1.411   .     S
C54    O78     1.274   .     A
C54    O80     1.286   .     A
C56    C105    1.364   .     S
C56    C140    1.544   .     S
C57    C62     1.404   .     A
C57    Br97    1.927   .     S
C57    C359    1.371   1_545 S
C58    Br98    1.926   .     S
C58    C61     1.404   .     A
C58    C210    1.371   .     S
C59    C61     1.396   .     A
C59    H67     1.085   .     S
C59    C207    1.371   .     S
C60    C62     1.396   .     A
C60    H68     1.085   .     S
C60    C358    1.371   1_545 S
C63    N72     1.360   .     A
C63    H69     1.081   .     S
C63    C965    1.415   1_554 S
C64    N71     1.360   .     A
C64    H70     1.081   .     S
C64    C516    1.415   .     S
C65    N71     1.377   .     A
C65    Br99    1.911   .     S
C65    C513    1.415   .     S
C66    Br100   1.911   .     S
C66    N72     1.377   .     A
C66    C964    1.415   1_554 S
N71    Zn81    2.016   .     S
N72    Zn82    2.016   .     S
O73    Zn81    1.987   .     S
O74    Zn82    1.987   .     S
O75    Zn82    1.997   .     S
O76    Zn81    1.997   .     S
O77    Zn81    1.988   .     S
O78    Zn82    1.988   .     S
O79    Zn82    1.987   .     S
O80    Zn81    1.987   .     S
C83    H88     1.110   .     S
C83    H89     1.112   .     S
C83    C105    1.544   .     S
C83    C134    1.532   .     S
C84    H87     1.111   .     S
C84    H86     1.109   .     S
C84    H85     1.108   .     S
C90    H96     1.110   .     S
C90    H95     1.112   .     S
C91    H92     1.109   .     S
C91    H93     1.108   .     S
C91    H94     1.111   .     S
C91    C140    1.532   .     S
C101   O125    1.282   .     A
C101   C112    1.413   .     S
C101   O123    1.285   .     A
C102   O126    1.282   .     A
C102   C111    1.413   .     S
C102   O124    1.285   .     A
C103   O127    1.274   .     A
C103   O129    1.286   .     A
C103   C105    1.411   .     S
C104   C106    1.411   .     S
C104   O128    1.274   .     A
C104   O130    1.286   .     A
C106   C5      1.364   1_655 S
C106   C40     1.544   1_655 S
C107   C112    1.404   .     A
C107   Br147   1.927   .     S
C107   C409    1.371   1_545 S
C108   Br148   1.926   .     S
C108   C111    1.404   .     A
C108   C260    1.371   .     S
C109   C111    1.396   .     A
C109   H117    1.085   .     S
C109   C257    1.371   .     S
C110   C112    1.396   .     A
C110   H118    1.085   .     S
C110   C408    1.371   1_545 S
C113   N122    1.360   .     A
C113   H119    1.081   .     S
C113   C1015   1.415   1_554 S
C114   N121    1.360   .     A
C114   H120    1.081   .     S
C114   C566    1.415   .     S
C115   N121    1.377   .     A
C115   Br149   1.911   .     S
C115   C563    1.415   .     S
C116   Br150   1.911   .     S
C116   N122    1.377   .     A
C116   C1014   1.415   1_554 S
N121   Zn131   2.016   .     S
N122   Zn132   2.016   .     S
O123   Zn131   1.987   .     S
O124   Zn132   1.987   .     S
O125   Zn132   1.997   .     S
O126   Zn131   1.997   .     S
O127   Zn131   1.988   .     S
O128   Zn132   1.988   .     S
O129   Zn132   1.987   .     S
O130   Zn131   1.987   .     S
C133   H138    1.110   .     S
C133   H139    1.112   .     S
C133   C5      1.544   1_655 S
C133   C34     1.532   1_655 S
C134   H137    1.111   .     S
C134   H136    1.109   .     S
C134   H135    1.108   .     S
C140   H146    1.110   .     S
C140   H145    1.112   .     S
C141   H142    1.109   .     S
C141   H143    1.108   .     S
C141   H144    1.111   .     S
C141   C40     1.532   1_655 S
C151   O175    1.282   .     A
C151   C162    1.413   .     S
C151   O173    1.285   .     A
C152   O176    1.282   .     A
C152   C161    1.413   .     S
C152   O174    1.285   .     A
C153   O177    1.274   .     A
C153   O179    1.286   .     A
C153   C155    1.411   .     S
C154   C156    1.411   .     S
C154   O178    1.274   .     A
C154   O180    1.286   .     A
C155   C256    1.364   1_455 S
C155   C283    1.544   1_455 S
C156   C205    1.364   .     S
C156   C240    1.544   .     S
C157   C162    1.404   .     A
C157   Br197   1.927   .     S
C158   Br198   1.926   .     S
C158   C161    1.404   .     A
C158   C310    1.371   .     S
C159   C161    1.396   .     A
C159   H167    1.085   .     S
C159   C307    1.371   .     S
C160   C162    1.396   .     A
C160   H168    1.085   .     S
C163   N172    1.360   .     A
C163   H169    1.081   .     S
C163   C1065   1.415   1_554 S
C164   N171    1.360   .     A
C164   H170    1.081   .     S
C164   C616    1.415   .     S
C165   N171    1.377   .     A
C165   Br199   1.911   .     S
C165   C613    1.415   .     S
C166   Br200   1.911   .     S
C166   N172    1.377   .     A
C166   C1064   1.415   1_554 S
N171   Zn181   2.016   .     S
N172   Zn182   2.016   .     S
O173   Zn181   1.987   .     S
O174   Zn182   1.987   .     S
O175   Zn182   1.997   .     S
O176   Zn181   1.997   .     S
O177   Zn181   1.988   .     S
O178   Zn182   1.988   .     S
O179   Zn182   1.987   .     S
O180   Zn181   1.987   .     S
C183   H188    1.110   .     S
C183   H189    1.112   .     S
C183   C205    1.544   .     S
C183   C234    1.532   .     S
C184   H187    1.111   .     S
C184   H186    1.109   .     S
C184   H185    1.108   .     S
C184   C283    1.532   1_455 S
C190   H196    1.110   .     S
C190   H195    1.112   .     S
C190   C256    1.544   1_455 S
C190   C291    1.532   1_455 S
C191   H192    1.109   .     S
C191   H193    1.108   .     S
C191   H194    1.111   .     S
C191   C240    1.532   .     S
C201   O225    1.282   .     A
C201   C212    1.413   .     S
C201   O223    1.285   .     A
C202   O226    1.282   .     A
C202   C211    1.413   .     S
C202   O224    1.285   .     A
C203   O227    1.274   .     A
C203   O229    1.286   .     A
C203   C205    1.411   .     S
C204   C206    1.411   .     S
C204   O228    1.274   .     A
C204   O230    1.286   .     A
C206   C255    1.364   .     S
C206   C290    1.544   .     S
C207   C212    1.404   .     A
C207   Br247   1.927   .     S
C208   Br248   1.926   .     S
C208   C211    1.404   .     A
C208   C360    1.371   .     S
C209   C211    1.396   .     A
C209   H217    1.085   .     S
C209   C357    1.371   .     S
C210   C212    1.396   .     A
C210   H218    1.085   .     S
C213   N222    1.360   .     A
C213   H219    1.081   .     S
C213   C1115   1.415   1_554 S
C214   N221    1.360   .     A
C214   H220    1.081   .     S
C214   C666    1.415   .     S
C215   N221    1.377   .     A
C215   Br249   1.911   .     S
C215   C663    1.415   .     S
C216   Br250   1.911   .     S
C216   N222    1.377   .     A
C216   C1114   1.415   1_554 S
N221   Zn231   2.016   .     S
N222   Zn232   2.016   .     S
O223   Zn231   1.987   .     S
O224   Zn232   1.987   .     S
O225   Zn232   1.997   .     S
O226   Zn231   1.997   .     S
O227   Zn231   1.988   .     S
O228   Zn232   1.988   .     S
O229   Zn232   1.987   .     S
O230   Zn231   1.987   .     S
C233   H238    1.110   .     S
C233   H239    1.112   .     S
C233   C255    1.544   .     S
C233   C284    1.532   .     S
C234   H237    1.111   .     S
C234   H236    1.109   .     S
C234   H235    1.108   .     S
C240   H246    1.110   .     S
C240   H245    1.112   .     S
C241   H242    1.109   .     S
C241   H243    1.108   .     S
C241   H244    1.111   .     S
C241   C290    1.532   .     S
C251   O275    1.282   .     A
C251   C262    1.413   .     S
C251   O273    1.285   .     A
C252   O276    1.282   .     A
C252   C261    1.413   .     S
C252   O274    1.285   .     A
C253   O277    1.274   .     A
C253   O279    1.286   .     A
C253   C255    1.411   .     S
C254   C256    1.411   .     S
C254   O278    1.274   .     A
C254   O280    1.286   .     A
C256   C155    1.364   1_655 S
C256   C190    1.544   1_655 S
C257   C262    1.404   .     A
C257   Br297   1.927   .     S
C258   Br298   1.926   .     S
C258   C261    1.404   .     A
C258   C410    1.371   .     S
C259   C261    1.396   .     A
C259   H267    1.085   .     S
C259   C407    1.371   .     S
C260   C262    1.396   .     A
C260   H268    1.085   .     S
C263   N272    1.360   .     A
C263   H269    1.081   .     S
C263   C1165   1.415   1_554 S
C264   N271    1.360   .     A
C264   H270    1.081   .     S
C264   C716    1.415   .     S
C265   N271    1.377   .     A
C265   Br299   1.911   .     S
C265   C713    1.415   .     S
C266   Br300   1.911   .     S
C266   N272    1.377   .     A
C266   C1164   1.415   1_554 S
N271   Zn281   2.016   .     S
N272   Zn282   2.016   .     S
O273   Zn281   1.987   .     S
O274   Zn282   1.987   .     S
O275   Zn282   1.997   .     S
O276   Zn281   1.997   .     S
O277   Zn281   1.988   .     S
O278   Zn282   1.988   .     S
O279   Zn282   1.987   .     S
O280   Zn281   1.987   .     S
C283   H288    1.110   .     S
C283   H289    1.112   .     S
C283   C155    1.544   1_655 S
C283   C184    1.532   1_655 S
C284   H287    1.111   .     S
C284   H286    1.109   .     S
C284   H285    1.108   .     S
C290   H296    1.110   .     S
C290   H295    1.112   .     S
C291   H292    1.109   .     S
C291   H293    1.108   .     S
C291   H294    1.111   .     S
C291   C190    1.532   1_655 S
C301   O325    1.282   .     A
C301   C312    1.413   .     S
C301   O323    1.285   .     A
C302   O326    1.282   .     A
C302   C311    1.413   .     S
C302   O324    1.285   .     A
C303   O327    1.274   .     A
C303   O329    1.286   .     A
C303   C305    1.411   .     S
C304   C306    1.411   .     S
C304   O328    1.274   .     A
C304   O330    1.286   .     A
C305   C406    1.364   1_455 S
C305   C433    1.544   1_455 S
C306   C355    1.364   .     S
C306   C390    1.544   .     S
C307   C312    1.404   .     A
C307   Br347   1.927   .     S
C308   Br348   1.926   .     S
C308   C311    1.404   .     A
C308   C10     1.371   1_565 S
C309   C311    1.396   .     A
C309   H317    1.085   .     S
C309   C7      1.371   1_565 S
C310   C312    1.396   .     A
C310   H318    1.085   .     S
C313   N322    1.360   .     A
C313   H319    1.081   .     S
C313   C1215   1.415   1_554 S
C314   N321    1.360   .     A
C314   H320    1.081   .     S
C314   C766    1.415   .     S
C315   N321    1.377   .     A
C315   Br349   1.911   .     S
C315   C763    1.415   .     S
C316   Br350   1.911   .     S
C316   N322    1.377   .     A
C316   C1214   1.415   1_554 S
N321   Zn331   2.016   .     S
N322   Zn332   2.016   .     S
O323   Zn331   1.987   .     S
O324   Zn332   1.987   .     S
O325   Zn332   1.997   .     S
O326   Zn331   1.997   .     S
O327   Zn331   1.988   .     S
O328   Zn332   1.988   .     S
O329   Zn332   1.987   .     S
O330   Zn331   1.987   .     S
C333   H338    1.110   .     S
C333   H339    1.112   .     S
C333   C355    1.544   .     S
C333   C384    1.532   .     S
C334   H337    1.111   .     S
C334   H336    1.109   .     S
C334   H335    1.108   .     S
C334   C433    1.532   1_455 S
C340   H346    1.110   .     S
C340   H345    1.112   .     S
C340   C406    1.544   1_455 S
C340   C441    1.532   1_455 S
C341   H342    1.109   .     S
C341   H343    1.108   .     S
C341   H344    1.111   .     S
C341   C390    1.532   .     S
C351   O375    1.282   .     A
C351   C362    1.413   .     S
C351   O373    1.285   .     A
C352   O376    1.282   .     A
C352   C361    1.413   .     S
C352   O374    1.285   .     A
C353   O377    1.274   .     A
C353   O379    1.286   .     A
C353   C355    1.411   .     S
C354   C356    1.411   .     S
C354   O378    1.274   .     A
C354   O380    1.286   .     A
C356   C405    1.364   .     S
C356   C440    1.544   .     S
C357   C362    1.404   .     A
C357   Br397   1.927   .     S
C358   Br398   1.926   .     S
C358   C361    1.404   .     A
C358   C60     1.371   1_565 S
C359   C361    1.396   .     A
C359   H367    1.085   .     S
C359   C57     1.371   1_565 S
C360   C362    1.396   .     A
C360   H368    1.085   .     S
C363   N372    1.360   .     A
C363   H369    1.081   .     S
C363   C1265   1.415   1_554 S
C364   N371    1.360   .     A
C364   H370    1.081   .     S
C364   C816    1.415   .     S
C365   N371    1.377   .     A
C365   Br399   1.911   .     S
C365   C813    1.415   .     S
C366   Br400   1.911   .     S
C366   N372    1.377   .     A
C366   C1264   1.415   1_554 S
N371   Zn381   2.016   .     S
N372   Zn382   2.016   .     S
O373   Zn381   1.987   .     S
O374   Zn382   1.987   .     S
O375   Zn382   1.997   .     S
O376   Zn381   1.997   .     S
O377   Zn381   1.988   .     S
O378   Zn382   1.988   .     S
O379   Zn382   1.987   .     S
O380   Zn381   1.987   .     S
C383   H388    1.110   .     S
C383   H389    1.112   .     S
C383   C405    1.544   .     S
C383   C434    1.532   .     S
C384   H387    1.111   .     S
C384   H386    1.109   .     S
C384   H385    1.108   .     S
C390   H396    1.110   .     S
C390   H395    1.112   .     S
C391   H392    1.109   .     S
C391   H393    1.108   .     S
C391   H394    1.111   .     S
C391   C440    1.532   .     S
C401   O425    1.282   .     A
C401   C412    1.413   .     S
C401   O423    1.285   .     A
C402   O426    1.282   .     A
C402   C411    1.413   .     S
C402   O424    1.285   .     A
C403   O427    1.274   .     A
C403   O429    1.286   .     A
C403   C405    1.411   .     S
C404   C406    1.411   .     S
C404   O428    1.274   .     A
C404   O430    1.286   .     A
C406   C305    1.364   1_655 S
C406   C340    1.544   1_655 S
C407   C412    1.404   .     A
C407   Br447   1.927   .     S
C408   Br448   1.926   .     S
C408   C411    1.404   .     A
C408   C110    1.371   1_565 S
C409   C411    1.396   .     A
C409   H417    1.085   .     S
C409   C107    1.371   1_565 S
C410   C412    1.396   .     A
C410   H418    1.085   .     S
C413   N422    1.360   .     A
C413   H419    1.081   .     S
C413   C1315   1.415   1_554 S
C414   N421    1.360   .     A
C414   H420    1.081   .     S
C414   C866    1.415   .     S
C415   N421    1.377   .     A
C415   Br449   1.911   .     S
C415   C863    1.415   .     S
C416   Br450   1.911   .     S
C416   N422    1.377   .     A
C416   C1314   1.415   1_554 S
N421   Zn431   2.016   .     S
N422   Zn432   2.016   .     S
O423   Zn431   1.987   .     S
O424   Zn432   1.987   .     S
O425   Zn432   1.997   .     S
O426   Zn431   1.997   .     S
O427   Zn431   1.988   .     S
O428   Zn432   1.988   .     S
O429   Zn432   1.987   .     S
O430   Zn431   1.987   .     S
C433   H438    1.110   .     S
C433   H439    1.112   .     S
C433   C305    1.544   1_655 S
C433   C334    1.532   1_655 S
C434   H437    1.111   .     S
C434   H436    1.109   .     S
C434   H435    1.108   .     S
C440   H446    1.110   .     S
C440   H445    1.112   .     S
C441   H442    1.109   .     S
C441   H443    1.108   .     S
C441   H444    1.111   .     S
C441   C340    1.532   1_655 S
C451   O475    1.282   .     A
C451   C462    1.413   .     S
C451   O473    1.285   .     A
C452   O476    1.282   .     A
C452   C461    1.413   .     S
C452   O474    1.285   .     A
C453   O477    1.274   .     A
C453   O479    1.286   .     A
C453   C455    1.411   .     S
C454   C456    1.411   .     S
C454   O478    1.274   .     A
C454   O480    1.286   .     A
C455   C556    1.364   1_455 S
C455   C583    1.544   1_455 S
C456   C505    1.364   .     S
C456   C540    1.544   .     S
C457   C462    1.404   .     A
C457   Br497   1.927   .     S
C457   C759    1.371   1_545 S
C458   Br498   1.926   .     S
C458   C461    1.404   .     A
C458   C610    1.371   .     S
C459   C461    1.396   .     A
C459   H467    1.085   .     S
C459   C607    1.371   .     S
C460   C462    1.396   .     A
C460   H468    1.085   .     S
C460   C758    1.371   1_545 S
C463   N472    1.360   .     A
C463   H469    1.081   .     S
C464   N471    1.360   .     A
C464   H470    1.081   .     S
C464   C916    1.415   .     S
C465   N471    1.377   .     A
C465   Br499   1.911   .     S
C465   C913    1.415   .     S
C466   Br500   1.911   .     S
C466   N472    1.377   .     A
N471   Zn481   2.016   .     S
N472   Zn482   2.016   .     S
O473   Zn481   1.987   .     S
O474   Zn482   1.987   .     S
O475   Zn482   1.997   .     S
O476   Zn481   1.997   .     S
O477   Zn481   1.988   .     S
O478   Zn482   1.988   .     S
O479   Zn482   1.987   .     S
O480   Zn481   1.987   .     S
C483   H488    1.110   .     S
C483   H489    1.112   .     S
C483   C505    1.544   .     S
C483   C534    1.532   .     S
C484   H487    1.111   .     S
C484   H486    1.109   .     S
C484   H485    1.108   .     S
C484   C583    1.532   1_455 S
C490   H496    1.110   .     S
C490   H495    1.112   .     S
C490   C556    1.544   1_455 S
C490   C591    1.532   1_455 S
C491   H492    1.109   .     S
C491   H493    1.108   .     S
C491   H494    1.111   .     S
C491   C540    1.532   .     S
C501   O525    1.282   .     A
C501   C512    1.413   .     S
C501   O523    1.285   .     A
C502   O526    1.282   .     A
C502   C511    1.413   .     S
C502   O524    1.285   .     A
C503   O527    1.274   .     A
C503   O529    1.286   .     A
C503   C505    1.411   .     S
C504   C506    1.411   .     S
C504   O528    1.274   .     A
C504   O530    1.286   .     A
C506   C555    1.364   .     S
C506   C590    1.544   .     S
C507   C512    1.404   .     A
C507   Br547   1.927   .     S
C507   C809    1.371   1_545 S
C508   Br548   1.926   .     S
C508   C511    1.404   .     A
C508   C660    1.371   .     S
C509   C511    1.396   .     A
C509   H517    1.085   .     S
C509   C657    1.371   .     S
C510   C512    1.396   .     A
C510   H518    1.085   .     S
C510   C808    1.371   1_545 S
C513   N522    1.360   .     A
C513   H519    1.081   .     S
C514   N521    1.360   .     A
C514   H520    1.081   .     S
C514   C966    1.415   .     S
C515   N521    1.377   .     A
C515   Br549   1.911   .     S
C515   C963    1.415   .     S
C516   Br550   1.911   .     S
C516   N522    1.377   .     A
N521   Zn531   2.016   .     S
N522   Zn532   2.016   .     S
O523   Zn531   1.987   .     S
O524   Zn532   1.987   .     S
O525   Zn532   1.997   .     S
O526   Zn531   1.997   .     S
O527   Zn531   1.988   .     S
O528   Zn532   1.988   .     S
O529   Zn532   1.987   .     S
O530   Zn531   1.987   .     S
C533   H538    1.110   .     S
C533   H539    1.112   .     S
C533   C555    1.544   .     S
C533   C584    1.532   .     S
C534   H537    1.111   .     S
C534   H536    1.109   .     S
C534   H535    1.108   .     S
C540   H546    1.110   .     S
C540   H545    1.112   .     S
C541   H542    1.109   .     S
C541   H543    1.108   .     S
C541   H544    1.111   .     S
C541   C590    1.532   .     S
C551   O575    1.282   .     A
C551   C562    1.413   .     S
C551   O573    1.285   .     A
C552   O576    1.282   .     A
C552   C561    1.413   .     S
C552   O574    1.285   .     A
C553   O577    1.274   .     A
C553   O579    1.286   .     A
C553   C555    1.411   .     S
C554   C556    1.411   .     S
C554   O578    1.274   .     A
C554   O580    1.286   .     A
C556   C455    1.364   1_655 S
C556   C490    1.544   1_655 S
C557   C562    1.404   .     A
C557   Br597   1.927   .     S
C557   C859    1.371   1_545 S
C558   Br598   1.926   .     S
C558   C561    1.404   .     A
C558   C710    1.371   .     S
C559   C561    1.396   .     A
C559   H567    1.085   .     S
C559   C707    1.371   .     S
C560   C562    1.396   .     A
C560   H568    1.085   .     S
C560   C858    1.371   1_545 S
C563   N572    1.360   .     A
C563   H569    1.081   .     S
C564   N571    1.360   .     A
C564   H570    1.081   .     S
C564   C1016   1.415   .     S
C565   N571    1.377   .     A
C565   Br599   1.911   .     S
C565   C1013   1.415   .     S
C566   Br600   1.911   .     S
C566   N572    1.377   .     A
N571   Zn581   2.016   .     S
N572   Zn582   2.016   .     S
O573   Zn581   1.987   .     S
O574   Zn582   1.987   .     S
O575   Zn582   1.997   .     S
O576   Zn581   1.997   .     S
O577   Zn581   1.988   .     S
O578   Zn582   1.988   .     S
O579   Zn582   1.987   .     S
O580   Zn581   1.987   .     S
C583   H588    1.110   .     S
C583   H589    1.112   .     S
C583   C455    1.544   1_655 S
C583   C484    1.532   1_655 S
C584   H587    1.111   .     S
C584   H586    1.109   .     S
C584   H585    1.108   .     S
C590   H596    1.110   .     S
C590   H595    1.112   .     S
C591   H592    1.109   .     S
C591   H593    1.108   .     S
C591   H594    1.111   .     S
C591   C490    1.532   1_655 S
C601   O625    1.282   .     A
C601   C612    1.413   .     S
C601   O623    1.285   .     A
C602   O626    1.282   .     A
C602   C611    1.413   .     S
C602   O624    1.285   .     A
C603   O627    1.274   .     A
C603   O629    1.286   .     A
C603   C605    1.411   .     S
C604   C606    1.411   .     S
C604   O628    1.274   .     A
C604   O630    1.286   .     A
C605   C706    1.364   1_455 S
C605   C733    1.544   1_455 S
C606   C655    1.364   .     S
C606   C690    1.544   .     S
C607   C612    1.404   .     A
C607   Br647   1.927   .     S
C608   Br648   1.926   .     S
C608   C611    1.404   .     A
C608   C760    1.371   .     S
C609   C611    1.396   .     A
C609   H617    1.085   .     S
C609   C757    1.371   .     S
C610   C612    1.396   .     A
C610   H618    1.085   .     S
C613   N622    1.360   .     A
C613   H619    1.081   .     S
C614   N621    1.360   .     A
C614   H620    1.081   .     S
C614   C1066   1.415   .     S
C615   N621    1.377   .     A
C615   Br649   1.911   .     S
C615   C1063   1.415   .     S
C616   Br650   1.911   .     S
C616   N622    1.377   .     A
N621   Zn631   2.016   .     S
N622   Zn632   2.016   .     S
O623   Zn631   1.987   .     S
O624   Zn632   1.987   .     S
O625   Zn632   1.997   .     S
O626   Zn631   1.997   .     S
O627   Zn631   1.988   .     S
O628   Zn632   1.988   .     S
O629   Zn632   1.987   .     S
O630   Zn631   1.987   .     S
C633   H638    1.110   .     S
C633   H639    1.112   .     S
C633   C655    1.544   .     S
C633   C684    1.532   .     S
C634   H637    1.111   .     S
C634   H636    1.109   .     S
C634   H635    1.108   .     S
C634   C733    1.532   1_455 S
C640   H646    1.110   .     S
C640   H645    1.112   .     S
C640   C706    1.544   1_455 S
C640   C741    1.532   1_455 S
C641   H642    1.109   .     S
C641   H643    1.108   .     S
C641   H644    1.111   .     S
C641   C690    1.532   .     S
C651   O675    1.282   .     A
C651   C662    1.413   .     S
C651   O673    1.285   .     A
C652   O676    1.282   .     A
C652   C661    1.413   .     S
C652   O674    1.285   .     A
C653   O677    1.274   .     A
C653   O679    1.286   .     A
C653   C655    1.411   .     S
C654   C656    1.411   .     S
C654   O678    1.274   .     A
C654   O680    1.286   .     A
C656   C705    1.364   .     S
C656   C740    1.544   .     S
C657   C662    1.404   .     A
C657   Br697   1.927   .     S
C658   Br698   1.926   .     S
C658   C661    1.404   .     A
C658   C810    1.371   .     S
C659   C661    1.396   .     A
C659   H667    1.085   .     S
C659   C807    1.371   .     S
C660   C662    1.396   .     A
C660   H668    1.085   .     S
C663   N672    1.360   .     A
C663   H669    1.081   .     S
C664   N671    1.360   .     A
C664   H670    1.081   .     S
C664   C1116   1.415   .     S
C665   N671    1.377   .     A
C665   Br699   1.911   .     S
C665   C1113   1.415   .     S
C666   Br700   1.911   .     S
C666   N672    1.377   .     A
N671   Zn681   2.016   .     S
N672   Zn682   2.016   .     S
O673   Zn681   1.987   .     S
O674   Zn682   1.987   .     S
O675   Zn682   1.997   .     S
O676   Zn681   1.997   .     S
O677   Zn681   1.988   .     S
O678   Zn682   1.988   .     S
O679   Zn682   1.987   .     S
O680   Zn681   1.987   .     S
C683   H688    1.110   .     S
C683   H689    1.112   .     S
C683   C705    1.544   .     S
C683   C734    1.532   .     S
C684   H687    1.111   .     S
C684   H686    1.109   .     S
C684   H685    1.108   .     S
C690   H696    1.110   .     S
C690   H695    1.112   .     S
C691   H692    1.109   .     S
C691   H693    1.108   .     S
C691   H694    1.111   .     S
C691   C740    1.532   .     S
C701   O725    1.282   .     A
C701   C712    1.413   .     S
C701   O723    1.285   .     A
C702   O726    1.282   .     A
C702   C711    1.413   .     S
C702   O724    1.285   .     A
C703   O727    1.274   .     A
C703   O729    1.286   .     A
C703   C705    1.411   .     S
C704   C706    1.411   .     S
C704   O728    1.274   .     A
C704   O730    1.286   .     A
C706   C605    1.364   1_655 S
C706   C640    1.544   1_655 S
C707   C712    1.404   .     A
C707   Br747   1.927   .     S
C708   Br748   1.926   .     S
C708   C711    1.404   .     A
C708   C860    1.371   .     S
C709   C711    1.396   .     A
C709   H717    1.085   .     S
C709   C857    1.371   .     S
C710   C712    1.396   .     A
C710   H718    1.085   .     S
C713   N722    1.360   .     A
C713   H719    1.081   .     S
C714   N721    1.360   .     A
C714   H720    1.081   .     S
C714   C1166   1.415   .     S
C715   N721    1.377   .     A
C715   Br749   1.911   .     S
C715   C1163   1.415   .     S
C716   Br750   1.911   .     S
C716   N722    1.377   .     A
N721   Zn731   2.016   .     S
N722   Zn732   2.016   .     S
O723   Zn731   1.987   .     S
O724   Zn732   1.987   .     S
O725   Zn732   1.997   .     S
O726   Zn731   1.997   .     S
O727   Zn731   1.988   .     S
O728   Zn732   1.988   .     S
O729   Zn732   1.987   .     S
O730   Zn731   1.987   .     S
C733   H738    1.110   .     S
C733   H739    1.112   .     S
C733   C605    1.544   1_655 S
C733   C634    1.532   1_655 S
C734   H737    1.111   .     S
C734   H736    1.109   .     S
C734   H735    1.108   .     S
C740   H746    1.110   .     S
C740   H745    1.112   .     S
C741   H742    1.109   .     S
C741   H743    1.108   .     S
C741   H744    1.111   .     S
C741   C640    1.532   1_655 S
C751   O775    1.282   .     A
C751   C762    1.413   .     S
C751   O773    1.285   .     A
C752   O776    1.282   .     A
C752   C761    1.413   .     S
C752   O774    1.285   .     A
C753   O777    1.274   .     A
C753   O779    1.286   .     A
C753   C755    1.411   .     S
C754   C756    1.411   .     S
C754   O778    1.274   .     A
C754   O780    1.286   .     A
C755   C856    1.364   1_455 S
C755   C883    1.544   1_455 S
C756   C805    1.364   .     S
C756   C840    1.544   .     S
C757   C762    1.404   .     A
C757   Br797   1.927   .     S
C758   Br798   1.926   .     S
C758   C761    1.404   .     A
C758   C460    1.371   1_565 S
C759   C761    1.396   .     A
C759   H767    1.085   .     S
C759   C457    1.371   1_565 S
C760   C762    1.396   .     A
C760   H768    1.085   .     S
C763   N772    1.360   .     A
C763   H769    1.081   .     S
C764   N771    1.360   .     A
C764   H770    1.081   .     S
C764   C1216   1.415   .     S
C765   N771    1.377   .     A
C765   Br799   1.911   .     S
C765   C1213   1.415   .     S
C766   Br800   1.911   .     S
C766   N772    1.377   .     A
N771   Zn781   2.016   .     S
N772   Zn782   2.016   .     S
O773   Zn781   1.987   .     S
O774   Zn782   1.987   .     S
O775   Zn782   1.997   .     S
O776   Zn781   1.997   .     S
O777   Zn781   1.988   .     S
O778   Zn782   1.988   .     S
O779   Zn782   1.987   .     S
O780   Zn781   1.987   .     S
C783   H788    1.110   .     S
C783   H789    1.112   .     S
C783   C805    1.544   .     S
C783   C834    1.532   .     S
C784   H787    1.111   .     S
C784   H786    1.109   .     S
C784   H785    1.108   .     S
C784   C883    1.532   1_455 S
C790   H796    1.110   .     S
C790   H795    1.112   .     S
C790   C856    1.544   1_455 S
C790   C891    1.532   1_455 S
C791   H792    1.109   .     S
C791   H793    1.108   .     S
C791   H794    1.111   .     S
C791   C840    1.532   .     S
C801   O825    1.282   .     A
C801   C812    1.413   .     S
C801   O823    1.285   .     A
C802   O826    1.282   .     A
C802   C811    1.413   .     S
C802   O824    1.285   .     A
C803   O827    1.274   .     A
C803   O829    1.286   .     A
C803   C805    1.411   .     S
C804   C806    1.411   .     S
C804   O828    1.274   .     A
C804   O830    1.286   .     A
C806   C855    1.364   .     S
C806   C890    1.544   .     S
C807   C812    1.404   .     A
C807   Br847   1.927   .     S
C808   Br848   1.926   .     S
C808   C811    1.404   .     A
C808   C510    1.371   1_565 S
C809   C811    1.396   .     A
C809   H817    1.085   .     S
C809   C507    1.371   1_565 S
C810   C812    1.396   .     A
C810   H818    1.085   .     S
C813   N822    1.360   .     A
C813   H819    1.081   .     S
C814   N821    1.360   .     A
C814   H820    1.081   .     S
C814   C1266   1.415   .     S
C815   N821    1.377   .     A
C815   Br849   1.911   .     S
C815   C1263   1.415   .     S
C816   Br850   1.911   .     S
C816   N822    1.377   .     A
N821   Zn831   2.016   .     S
N822   Zn832   2.016   .     S
O823   Zn831   1.987   .     S
O824   Zn832   1.987   .     S
O825   Zn832   1.997   .     S
O826   Zn831   1.997   .     S
O827   Zn831   1.988   .     S
O828   Zn832   1.988   .     S
O829   Zn832   1.987   .     S
O830   Zn831   1.987   .     S
C833   H838    1.110   .     S
C833   H839    1.112   .     S
C833   C855    1.544   .     S
C833   C884    1.532   .     S
C834   H837    1.111   .     S
C834   H836    1.109   .     S
C834   H835    1.108   .     S
C840   H846    1.110   .     S
C840   H845    1.112   .     S
C841   H842    1.109   .     S
C841   H843    1.108   .     S
C841   H844    1.111   .     S
C841   C890    1.532   .     S
C851   O875    1.282   .     A
C851   C862    1.413   .     S
C851   O873    1.285   .     A
C852   O876    1.282   .     A
C852   C861    1.413   .     S
C852   O874    1.285   .     A
C853   O877    1.274   .     A
C853   O879    1.286   .     A
C853   C855    1.411   .     S
C854   C856    1.411   .     S
C854   O878    1.274   .     A
C854   O880    1.286   .     A
C856   C755    1.364   1_655 S
C856   C790    1.544   1_655 S
C857   C862    1.404   .     A
C857   Br897   1.927   .     S
C858   Br898   1.926   .     S
C858   C861    1.404   .     A
C858   C560    1.371   1_565 S
C859   C861    1.396   .     A
C859   H867    1.085   .     S
C859   C557    1.371   1_565 S
C860   C862    1.396   .     A
C860   H868    1.085   .     S
C863   N872    1.360   .     A
C863   H869    1.081   .     S
C864   N871    1.360   .     A
C864   H870    1.081   .     S
C864   C1316   1.415   .     S
C865   N871    1.377   .     A
C865   Br899   1.911   .     S
C865   C1313   1.415   .     S
C866   Br900   1.911   .     S
C866   N872    1.377   .     A
N871   Zn881   2.016   .     S
N872   Zn882   2.016   .     S
O873   Zn881   1.987   .     S
O874   Zn882   1.987   .     S
O875   Zn882   1.997   .     S
O876   Zn881   1.997   .     S
O877   Zn881   1.988   .     S
O878   Zn882   1.988   .     S
O879   Zn882   1.987   .     S
O880   Zn881   1.987   .     S
C883   H888    1.110   .     S
C883   H889    1.112   .     S
C883   C755    1.544   1_655 S
C883   C784    1.532   1_655 S
C884   H887    1.111   .     S
C884   H886    1.109   .     S
C884   H885    1.108   .     S
C890   H896    1.110   .     S
C890   H895    1.112   .     S
C891   H892    1.109   .     S
C891   H893    1.108   .     S
C891   H894    1.111   .     S
C891   C790    1.532   1_655 S
C901   O925    1.282   .     A
C901   C912    1.413   .     S
C901   O923    1.285   .     A
C902   O926    1.282   .     A
C902   C911    1.413   .     S
C902   O924    1.285   .     A
C903   O927    1.274   .     A
C903   O929    1.286   .     A
C903   C905    1.411   .     S
C904   C906    1.411   .     S
C904   O928    1.274   .     A
C904   O930    1.286   .     A
C905   C1006   1.364   1_455 S
C905   C1033   1.544   1_455 S
C906   C955    1.364   .     S
C906   C990    1.544   .     S
C907   C912    1.404   .     A
C907   Br947   1.927   .     S
C907   C1209   1.371   1_545 S
C908   Br948   1.926   .     S
C908   C911    1.404   .     A
C908   C1060   1.371   .     S
C909   C911    1.396   .     A
C909   H917    1.085   .     S
C909   C1057   1.371   .     S
C910   C912    1.396   .     A
C910   H918    1.085   .     S
C910   C1208   1.371   1_545 S
C913   N922    1.360   .     A
C913   H919    1.081   .     S
C914   N921    1.360   .     A
C914   H920    1.081   .     S
C914   C16     1.415   1_556 S
C915   N921    1.377   .     A
C915   Br949   1.911   .     S
C915   C13     1.415   1_556 S
C916   Br950   1.911   .     S
C916   N922    1.377   .     A
N921   Zn931   2.016   .     S
N922   Zn932   2.016   .     S
O923   Zn931   1.987   .     S
O924   Zn932   1.987   .     S
O925   Zn932   1.997   .     S
O926   Zn931   1.997   .     S
O927   Zn931   1.988   .     S
O928   Zn932   1.988   .     S
O929   Zn932   1.987   .     S
O930   Zn931   1.987   .     S
C933   H938    1.110   .     S
C933   H939    1.112   .     S
C933   C955    1.544   .     S
C933   C984    1.532   .     S
C934   H937    1.111   .     S
C934   H936    1.109   .     S
C934   H935    1.108   .     S
C934   C1033   1.532   1_455 S
C940   H946    1.110   .     S
C940   H945    1.112   .     S
C940   C1006   1.544   1_455 S
C940   C1041   1.532   1_455 S
C941   H942    1.109   .     S
C941   H943    1.108   .     S
C941   H944    1.111   .     S
C941   C990    1.532   .     S
C951   O975    1.282   .     A
C951   C962    1.413   .     S
C951   O973    1.285   .     A
C952   O976    1.282   .     A
C952   C961    1.413   .     S
C952   O974    1.285   .     A
C953   O977    1.274   .     A
C953   O979    1.286   .     A
C953   C955    1.411   .     S
C954   C956    1.411   .     S
C954   O978    1.274   .     A
C954   O980    1.286   .     A
C956   C1005   1.364   .     S
C956   C1040   1.544   .     S
C957   C962    1.404   .     A
C957   Br997   1.927   .     S
C957   C1259   1.371   1_545 S
C958   Br998   1.926   .     S
C958   C961    1.404   .     A
C958   C1110   1.371   .     S
C959   C961    1.396   .     A
C959   H967    1.085   .     S
C959   C1107   1.371   .     S
C960   C962    1.396   .     A
C960   H968    1.085   .     S
C960   C1258   1.371   1_545 S
C963   N972    1.360   .     A
C963   H969    1.081   .     S
C964   N971    1.360   .     A
C964   H970    1.081   .     S
C964   C66     1.415   1_556 S
C965   N971    1.377   .     A
C965   Br999   1.911   .     S
C965   C63     1.415   1_556 S
C966   Br1000  1.911   .     S
C966   N972    1.377   .     A
N971   Zn981   2.016   .     S
N972   Zn982   2.016   .     S
O973   Zn981   1.987   .     S
O974   Zn982   1.987   .     S
O975   Zn982   1.997   .     S
O976   Zn981   1.997   .     S
O977   Zn981   1.988   .     S
O978   Zn982   1.988   .     S
O979   Zn982   1.987   .     S
O980   Zn981   1.987   .     S
C983   H988    1.110   .     S
C983   H989    1.112   .     S
C983   C1005   1.544   .     S
C983   C1034   1.532   .     S
C984   H987    1.111   .     S
C984   H986    1.109   .     S
C984   H985    1.108   .     S
C990   H996    1.110   .     S
C990   H995    1.112   .     S
C991   H992    1.109   .     S
C991   H993    1.108   .     S
C991   H994    1.111   .     S
C991   C1040   1.532   .     S
C1001  O1025   1.282   .     A
C1001  C1012   1.413   .     S
C1001  O1023   1.285   .     A
C1002  O1026   1.282   .     A
C1002  C1011   1.413   .     S
C1002  O1024   1.285   .     A
C1003  O1027   1.274   .     A
C1003  O1029   1.286   .     A
C1003  C1005   1.411   .     S
C1004  C1006   1.411   .     S
C1004  O1028   1.274   .     A
C1004  O1030   1.286   .     A
C1006  C905    1.364   1_655 S
C1006  C940    1.544   1_655 S
C1007  C1012   1.404   .     A
C1007  Br1047  1.927   .     S
C1007  C1309   1.371   1_545 S
C1008  Br1048  1.926   .     S
C1008  C1011   1.404   .     A
C1008  C1160   1.371   .     S
C1009  C1011   1.396   .     A
C1009  H1017   1.085   .     S
C1009  C1157   1.371   .     S
C1010  C1012   1.396   .     A
C1010  H1018   1.085   .     S
C1010  C1308   1.371   1_545 S
C1013  N1022   1.360   .     A
C1013  H1019   1.081   .     S
C1014  N1021   1.360   .     A
C1014  H1020   1.081   .     S
C1014  C116    1.415   1_556 S
C1015  N1021   1.377   .     A
C1015  Br1049  1.911   .     S
C1015  C113    1.415   1_556 S
C1016  Br1050  1.911   .     S
C1016  N1022   1.377   .     A
N1021  Zn1031  2.016   .     S
N1022  Zn1032  2.016   .     S
O1023  Zn1031  1.987   .     S
O1024  Zn1032  1.987   .     S
O1025  Zn1032  1.997   .     S
O1026  Zn1031  1.997   .     S
O1027  Zn1031  1.988   .     S
O1028  Zn1032  1.988   .     S
O1029  Zn1032  1.987   .     S
O1030  Zn1031  1.987   .     S
C1033  H1038   1.110   .     S
C1033  H1039   1.112   .     S
C1033  C905    1.544   1_655 S
C1033  C934    1.532   1_655 S
C1034  H1037   1.111   .     S
C1034  H1036   1.109   .     S
C1034  H1035   1.108   .     S
C1040  H1046   1.110   .     S
C1040  H1045   1.112   .     S
C1041  H1042   1.109   .     S
C1041  H1043   1.108   .     S
C1041  H1044   1.111   .     S
C1041  C940    1.532   1_655 S
C1051  O1075   1.282   .     A
C1051  C1062   1.413   .     S
C1051  O1073   1.285   .     A
C1052  O1076   1.282   .     A
C1052  C1061   1.413   .     S
C1052  O1074   1.285   .     A
C1053  O1077   1.274   .     A
C1053  O1079   1.286   .     A
C1053  C1055   1.411   .     S
C1054  C1056   1.411   .     S
C1054  O1078   1.274   .     A
C1054  O1080   1.286   .     A
C1055  C1156   1.364   1_455 S
C1055  C1183   1.544   1_455 S
C1056  C1105   1.364   .     S
C1056  C1140   1.544   .     S
C1057  C1062   1.404   .     A
C1057  Br1097  1.927   .     S
C1058  Br1098  1.926   .     S
C1058  C1061   1.404   .     A
C1058  C1210   1.371   .     S
C1059  C1061   1.396   .     A
C1059  H1067   1.085   .     S
C1059  C1207   1.371   .     S
C1060  C1062   1.396   .     A
C1060  H1068   1.085   .     S
C1063  N1072   1.360   .     A
C1063  H1069   1.081   .     S
C1064  N1071   1.360   .     A
C1064  H1070   1.081   .     S
C1064  C166    1.415   1_556 S
C1065  N1071   1.377   .     A
C1065  Br1099  1.911   .     S
C1065  C163    1.415   1_556 S
C1066  Br1100  1.911   .     S
C1066  N1072   1.377   .     A
N1071  Zn1081  2.016   .     S
N1072  Zn1082  2.016   .     S
O1073  Zn1081  1.987   .     S
O1074  Zn1082  1.987   .     S
O1075  Zn1082  1.997   .     S
O1076  Zn1081  1.997   .     S
O1077  Zn1081  1.988   .     S
O1078  Zn1082  1.988   .     S
O1079  Zn1082  1.987   .     S
O1080  Zn1081  1.987   .     S
C1083  H1088   1.110   .     S
C1083  H1089   1.112   .     S
C1083  C1105   1.544   .     S
C1083  C1134   1.532   .     S
C1084  H1087   1.111   .     S
C1084  H1086   1.109   .     S
C1084  H1085   1.108   .     S
C1084  C1183   1.532   1_455 S
C1090  H1096   1.110   .     S
C1090  H1095   1.112   .     S
C1090  C1156   1.544   1_455 S
C1090  C1191   1.532   1_455 S
C1091  H1092   1.109   .     S
C1091  H1093   1.108   .     S
C1091  H1094   1.111   .     S
C1091  C1140   1.532   .     S
C1101  O1125   1.282   .     A
C1101  C1112   1.413   .     S
C1101  O1123   1.285   .     A
C1102  O1126   1.282   .     A
C1102  C1111   1.413   .     S
C1102  O1124   1.285   .     A
C1103  O1127   1.274   .     A
C1103  O1129   1.286   .     A
C1103  C1105   1.411   .     S
C1104  C1106   1.411   .     S
C1104  O1128   1.274   .     A
C1104  O1130   1.286   .     A
C1106  C1155   1.364   .     S
C1106  C1190   1.544   .     S
C1107  C1112   1.404   .     A
C1107  Br1147  1.927   .     S
C1108  Br1148  1.926   .     S
C1108  C1111   1.404   .     A
C1108  C1260   1.371   .     S
C1109  C1111   1.396   .     A
C1109  H1117   1.085   .     S
C1109  C1257   1.371   .     S
C1110  C1112   1.396   .     A
C1110  H1118   1.085   .     S
C1113  N1122   1.360   .     A
C1113  H1119   1.081   .     S
C1114  N1121   1.360   .     A
C1114  H1120   1.081   .     S
C1114  C216    1.415   1_556 S
C1115  N1121   1.377   .     A
C1115  Br1149  1.911   .     S
C1115  C213    1.415   1_556 S
C1116  Br1150  1.911   .     S
C1116  N1122   1.377   .     A
N1121  Zn1131  2.016   .     S
N1122  Zn1132  2.016   .     S
O1123  Zn1131  1.987   .     S
O1124  Zn1132  1.987   .     S
O1125  Zn1132  1.997   .     S
O1126  Zn1131  1.997   .     S
O1127  Zn1131  1.988   .     S
O1128  Zn1132  1.988   .     S
O1129  Zn1132  1.987   .     S
O1130  Zn1131  1.987   .     S
C1133  H1138   1.110   .     S
C1133  H1139   1.112   .     S
C1133  C1155   1.544   .     S
C1133  C1184   1.532   .     S
C1134  H1137   1.111   .     S
C1134  H1136   1.109   .     S
C1134  H1135   1.108   .     S
C1140  H1146   1.110   .     S
C1140  H1145   1.112   .     S
C1141  H1142   1.109   .     S
C1141  H1143   1.108   .     S
C1141  H1144   1.111   .     S
C1141  C1190   1.532   .     S
C1151  O1175   1.282   .     A
C1151  C1162   1.413   .     S
C1151  O1173   1.285   .     A
C1152  O1176   1.282   .     A
C1152  C1161   1.413   .     S
C1152  O1174   1.285   .     A
C1153  O1177   1.274   .     A
C1153  O1179   1.286   .     A
C1153  C1155   1.411   .     S
C1154  C1156   1.411   .     S
C1154  O1178   1.274   .     A
C1154  O1180   1.286   .     A
C1156  C1055   1.364   1_655 S
C1156  C1090   1.544   1_655 S
C1157  C1162   1.404   .     A
C1157  Br1197  1.927   .     S
C1158  Br1198  1.926   .     S
C1158  C1161   1.404   .     A
C1158  C1310   1.371   .     S
C1159  C1161   1.396   .     A
C1159  H1167   1.085   .     S
C1159  C1307   1.371   .     S
C1160  C1162   1.396   .     A
C1160  H1168   1.085   .     S
C1163  N1172   1.360   .     A
C1163  H1169   1.081   .     S
C1164  N1171   1.360   .     A
C1164  H1170   1.081   .     S
C1164  C266    1.415   1_556 S
C1165  N1171   1.377   .     A
C1165  Br1199  1.911   .     S
C1165  C263    1.415   1_556 S
C1166  Br1200  1.911   .     S
C1166  N1172   1.377   .     A
N1171  Zn1181  2.016   .     S
N1172  Zn1182  2.016   .     S
O1173  Zn1181  1.987   .     S
O1174  Zn1182  1.987   .     S
O1175  Zn1182  1.997   .     S
O1176  Zn1181  1.997   .     S
O1177  Zn1181  1.988   .     S
O1178  Zn1182  1.988   .     S
O1179  Zn1182  1.987   .     S
O1180  Zn1181  1.987   .     S
C1183  H1188   1.110   .     S
C1183  H1189   1.112   .     S
C1183  C1055   1.544   1_655 S
C1183  C1084   1.532   1_655 S
C1184  H1187   1.111   .     S
C1184  H1186   1.109   .     S
C1184  H1185   1.108   .     S
C1190  H1196   1.110   .     S
C1190  H1195   1.112   .     S
C1191  H1192   1.109   .     S
C1191  H1193   1.108   .     S
C1191  H1194   1.111   .     S
C1191  C1090   1.532   1_655 S
C1201  O1225   1.282   .     A
C1201  C1212   1.413   .     S
C1201  O1223   1.285   .     A
C1202  O1226   1.282   .     A
C1202  C1211   1.413   .     S
C1202  O1224   1.285   .     A
C1203  O1227   1.274   .     A
C1203  O1229   1.286   .     A
C1203  C1205   1.411   .     S
C1204  C1206   1.411   .     S
C1204  O1228   1.274   .     A
C1204  O1230   1.286   .     A
C1205  C1306   1.364   1_455 S
C1205  C1333   1.544   1_455 S
C1206  C1255   1.364   .     S
C1206  C1290   1.544   .     S
C1207  C1212   1.404   .     A
C1207  Br1247  1.927   .     S
C1208  Br1248  1.926   .     S
C1208  C1211   1.404   .     A
C1208  C910    1.371   1_565 S
C1209  C1211   1.396   .     A
C1209  H1217   1.085   .     S
C1209  C907    1.371   1_565 S
C1210  C1212   1.396   .     A
C1210  H1218   1.085   .     S
C1213  N1222   1.360   .     A
C1213  H1219   1.081   .     S
C1214  N1221   1.360   .     A
C1214  H1220   1.081   .     S
C1214  C316    1.415   1_556 S
C1215  N1221   1.377   .     A
C1215  Br1249  1.911   .     S
C1215  C313    1.415   1_556 S
C1216  Br1250  1.911   .     S
C1216  N1222   1.377   .     A
N1221  Zn1231  2.016   .     S
N1222  Zn1232  2.016   .     S
O1223  Zn1231  1.987   .     S
O1224  Zn1232  1.987   .     S
O1225  Zn1232  1.997   .     S
O1226  Zn1231  1.997   .     S
O1227  Zn1231  1.988   .     S
O1228  Zn1232  1.988   .     S
O1229  Zn1232  1.987   .     S
O1230  Zn1231  1.987   .     S
C1233  H1238   1.110   .     S
C1233  H1239   1.112   .     S
C1233  C1255   1.544   .     S
C1233  C1284   1.532   .     S
C1234  H1237   1.111   .     S
C1234  H1236   1.109   .     S
C1234  H1235   1.108   .     S
C1234  C1333   1.532   1_455 S
C1240  H1246   1.110   .     S
C1240  H1245   1.112   .     S
C1240  C1306   1.544   1_455 S
C1240  C1341   1.532   1_455 S
C1241  H1242   1.109   .     S
C1241  H1243   1.108   .     S
C1241  H1244   1.111   .     S
C1241  C1290   1.532   .     S
C1251  O1275   1.282   .     A
C1251  C1262   1.413   .     S
C1251  O1273   1.285   .     A
C1252  O1276   1.282   .     A
C1252  C1261   1.413   .     S
C1252  O1274   1.285   .     A
C1253  O1277   1.274   .     A
C1253  O1279   1.286   .     A
C1253  C1255   1.411   .     S
C1254  C1256   1.411   .     S
C1254  O1278   1.274   .     A
C1254  O1280   1.286   .     A
C1256  C1305   1.364   .     S
C1256  C1340   1.544   .     S
C1257  C1262   1.404   .     A
C1257  Br1297  1.927   .     S
C1258  Br1298  1.926   .     S
C1258  C1261   1.404   .     A
C1258  C960    1.371   1_565 S
C1259  C1261   1.396   .     A
C1259  H1267   1.085   .     S
C1259  C957    1.371   1_565 S
C1260  C1262   1.396   .     A
C1260  H1268   1.085   .     S
C1263  N1272   1.360   .     A
C1263  H1269   1.081   .     S
C1264  N1271   1.360   .     A
C1264  H1270   1.081   .     S
C1264  C366    1.415   1_556 S
C1265  N1271   1.377   .     A
C1265  Br1299  1.911   .     S
C1265  C363    1.415   1_556 S
C1266  Br1300  1.911   .     S
C1266  N1272   1.377   .     A
N1271  Zn1281  2.016   .     S
N1272  Zn1282  2.016   .     S
O1273  Zn1281  1.987   .     S
O1274  Zn1282  1.987   .     S
O1275  Zn1282  1.997   .     S
O1276  Zn1281  1.997   .     S
O1277  Zn1281  1.988   .     S
O1278  Zn1282  1.988   .     S
O1279  Zn1282  1.987   .     S
O1280  Zn1281  1.987   .     S
C1283  H1288   1.110   .     S
C1283  H1289   1.112   .     S
C1283  C1305   1.544   .     S
C1283  C1334   1.532   .     S
C1284  H1287   1.111   .     S
C1284  H1286   1.109   .     S
C1284  H1285   1.108   .     S
C1290  H1296   1.110   .     S
C1290  H1295   1.112   .     S
C1291  H1292   1.109   .     S
C1291  H1293   1.108   .     S
C1291  H1294   1.111   .     S
C1291  C1340   1.532   .     S
C1301  O1325   1.282   .     A
C1301  C1312   1.413   .     S
C1301  O1323   1.285   .     A
C1302  O1326   1.282   .     A
C1302  C1311   1.413   .     S
C1302  O1324   1.285   .     A
C1303  O1327   1.274   .     A
C1303  O1329   1.286   .     A
C1303  C1305   1.411   .     S
C1304  C1306   1.411   .     S
C1304  O1328   1.274   .     A
C1304  O1330   1.286   .     A
C1306  C1205   1.364   1_655 S
C1306  C1240   1.544   1_655 S
C1307  C1312   1.404   .     A
C1307  Br1347  1.927   .     S
C1308  Br1348  1.926   .     S
C1308  C1311   1.404   .     A
C1308  C1010   1.371   1_565 S
C1309  C1311   1.396   .     A
C1309  H1317   1.085   .     S
C1309  C1007   1.371   1_565 S
C1310  C1312   1.396   .     A
C1310  H1318   1.085   .     S
C1313  N1322   1.360   .     A
C1313  H1319   1.081   .     S
C1314  N1321   1.360   .     A
C1314  H1320   1.081   .     S
C1314  C416    1.415   1_556 S
C1315  N1321   1.377   .     A
C1315  Br1349  1.911   .     S
C1315  C413    1.415   1_556 S
C1316  Br1350  1.911   .     S
C1316  N1322   1.377   .     A
N1321  Zn1331  2.016   .     S
N1322  Zn1332  2.016   .     S
O1323  Zn1331  1.987   .     S
O1324  Zn1332  1.987   .     S
O1325  Zn1332  1.997   .     S
O1326  Zn1331  1.997   .     S
O1327  Zn1331  1.988   .     S
O1328  Zn1332  1.988   .     S
O1329  Zn1332  1.987   .     S
O1330  Zn1331  1.987   .     S
C1333  H1338   1.110   .     S
C1333  H1339   1.112   .     S
C1333  C1205   1.544   1_655 S
C1333  C1234   1.532   1_655 S
C1334  H1337   1.111   .     S
C1334  H1336   1.109   .     S
C1334  H1335   1.108   .     S
C1340  H1346   1.110   .     S
C1340  H1345   1.112   .     S
C1341  H1342   1.109   .     S
C1341  H1343   1.108   .     S
C1341  H1344   1.111   .     S
C1341  C1240   1.532   1_655 S
