data_str_m1_o1_o17_pcu_sym.106
_audit_creation_date              2020-01-03
_audit_creation_method            'Materials Studio'
_symmetry_space_group_name_H-M    'P1'
_symmetry_Int_Tables_number       1
_symmetry_cell_setting            triclinic
loop_
_symmetry_equiv_pos_as_xyz
  x,y,z
_cell_length_a                    36.6953
_cell_length_b                    36.6948
_cell_length_c                    34.5193
_cell_angle_alpha                 90.0005
_cell_angle_beta                  90.0003
_cell_angle_gamma                 90.0200
loop_
_atom_site_label
_atom_site_type_symbol
_atom_site_fract_x
_atom_site_fract_y
_atom_site_fract_z
_atom_site_U_iso_or_equiv
_atom_site_adp_type
_atom_site_occupancy
C1     C     0.00098   0.28344   0.41849   0.00000  Uiso   1.00
C2     C     0.24902   0.46656   0.08151   0.00000  Uiso   1.00
C3     C     0.21673   0.00308   0.54081   0.00000  Uiso   1.00
C4     C     0.49692   0.28327   0.45919   0.00000  Uiso   1.00
C5     C     0.00347   0.21670   0.54117   0.00000  Uiso   1.00
C6     C     0.21670   0.00348   0.45883   0.00000  Uiso   1.00
C7     C     0.28327   0.49692   0.54081   0.00000  Uiso   1.00
C8     C     0.25347   0.46670   0.95883   0.00000  Uiso   1.00
C9     C     0.24691   0.03327   0.04081   0.00000  Uiso   1.00
C10    C     0.03327   0.24691   0.95919   0.00000  Uiso   1.00
C11    C     0.46670   0.25347   0.04117   0.00000  Uiso   1.00
C12    C     0.24652   0.03329   0.95883   0.00000  Uiso   1.00
C13    C     0.46656   0.24903   0.91849   0.00000  Uiso   1.00
C14    C     0.25308   0.46673   0.04081   0.00000  Uiso   1.00
C15    C     0.46673   0.25309   0.95919   0.00000  Uiso   1.00
C16    C     0.03329   0.24652   0.04117   0.00000  Uiso   1.00
C17    C     0.09820   0.34800   0.24994   0.00000  Uiso   1.00
C18    C     0.40200   0.15180   0.74995   0.00000  Uiso   1.00
C19    C     0.15252   0.09868   0.25030   0.00000  Uiso   1.00
C20    C     0.34868   0.40252   0.75030   0.00000  Uiso   1.00
C21    C     0.40180   0.15200   0.24994   0.00000  Uiso   1.00
C22    C     0.09799   0.34821   0.74994   0.00000  Uiso   1.00
C23    C     0.34748   0.40132   0.25030   0.00000  Uiso   1.00
C24    C     0.03351   0.25007   0.08193   0.00000  Uiso   1.00
C25    C     0.15132   0.09748   0.75030   0.00000  Uiso   1.00
C26    C     0.09868   0.15252   0.74970   0.00000  Uiso   1.00
C27    C     0.40252   0.34868   0.24970   0.00000  Uiso   1.00
C28    C     0.15201   0.40179   0.75006   0.00000  Uiso   1.00
C29    C     0.34820   0.09800   0.25006   0.00000  Uiso   1.00
C30    C     0.40132   0.34748   0.74970   0.00000  Uiso   1.00
C31    C     0.09748   0.15132   0.24970   0.00000  Uiso   1.00
C32    C     0.34800   0.09820   0.75005   0.00000  Uiso   1.00
C33    C     0.15179   0.40200   0.25006   0.00000  Uiso   1.00
C34    C     0.00000   0.25000   0.47965   0.00000  Uiso   1.00
C35    C     0.24992   0.46649   0.91807   0.00000  Uiso   1.00
C36    C    -0.00000   0.25000   0.52073   0.00000  Uiso   1.00
C37    C     0.25000   0.00000   0.47927   0.00000  Uiso   1.00
C38    C     0.25000   0.00000   0.52035   0.00000  Uiso   1.00
C39    C     0.25000  -0.00000   0.97927   0.00000  Uiso   1.00
C40    C     0.25000  -0.00000   0.02035   0.00000  Uiso   1.00
C41    C    -0.00000   0.25000   0.97965   0.00000  Uiso   1.00
C42    C    -0.00000   0.25000   0.02073   0.00000  Uiso   1.00
C43    C     0.15792   0.39799   0.17783   0.00000  Uiso   1.00
C44    C     0.34207   0.10235   0.82249   0.00000  Uiso   1.00
C45    C     0.10754   0.16267   0.17868   0.00000  Uiso   1.00
C46    C     0.25098   0.03344   0.08151   0.00000  Uiso   1.00
C47    C     0.38952   0.33384   0.81996   0.00000  Uiso   1.00
C48    C     0.34208   0.10201   0.17783   0.00000  Uiso   1.00
C49    C     0.15793   0.39764   0.82250   0.00000  Uiso   1.00
C50    C     0.39246   0.33733   0.17869   0.00000  Uiso   1.00
C51    C     0.11047   0.16615   0.81997   0.00000  Uiso   1.00
C52    C     0.16268   0.10755   0.82131   0.00000  Uiso   1.00
C53    C     0.33385   0.38953   0.18003   0.00000  Uiso   1.00
C54    C     0.10202   0.34208   0.82217   0.00000  Uiso   1.00
C55    C     0.39764   0.15793   0.17750   0.00000  Uiso   1.00
C56    C     0.33733   0.39245   0.82131   0.00000  Uiso   1.00
C57    C     0.03344   0.25098   0.91849   0.00000  Uiso   1.00
C58    C     0.16615   0.11047   0.18003   0.00000  Uiso   1.00
C59    C     0.39798   0.15791   0.82218   0.00000  Uiso   1.00
C60    C     0.10236   0.34207   0.17750   0.00000  Uiso   1.00
C61    C     0.40793   0.14764   0.67750   0.00000  Uiso   1.00
C62    C     0.09208   0.35201   0.32216   0.00000  Uiso   1.00
C63    C     0.36047   0.41615   0.68003   0.00000  Uiso   1.00
C64    C     0.14246   0.08733   0.32132   0.00000  Uiso   1.00
C65    C     0.09207   0.35236   0.67749   0.00000  Uiso   1.00
C66    C     0.40792   0.14799   0.32217   0.00000  Uiso   1.00
C67    C     0.13953   0.08385   0.68003   0.00000  Uiso   1.00
C68    C     0.46649   0.24992   0.08193   0.00000  Uiso   1.00
C69    C     0.35754   0.41267   0.32132   0.00000  Uiso   1.00
C70    C     0.41615   0.36047   0.31997   0.00000  Uiso   1.00
C71    C     0.08733   0.14245   0.67868   0.00000  Uiso   1.00
C72    C     0.35236   0.09207   0.32250   0.00000  Uiso   1.00
C73    C     0.14799   0.40792   0.67784   0.00000  Uiso   1.00
C74    C     0.08385   0.13953   0.31997   0.00000  Uiso   1.00
C75    C     0.41267   0.35755   0.67868   0.00000  Uiso   1.00
C76    C     0.14764   0.40793   0.32250   0.00000  Uiso   1.00
C77    C     0.35201   0.09209   0.67783   0.00000  Uiso   1.00
C78    C     0.00882   0.31813   0.39767   0.00000  Uiso   1.00
C79    C     0.00000   0.25000   0.39820   0.00000  Uiso   1.00
C80    C     0.49352   0.18163   0.60313   0.00000  Uiso   1.00
C81    C     0.18163   0.49353   0.39687   0.00000  Uiso   1.00
C82    C     0.31813   0.00882   0.60233   0.00000  Uiso   1.00
C83    C     0.49118   0.18187   0.39767   0.00000  Uiso   1.00
C84    C     0.00647   0.31837   0.60313   0.00000  Uiso   1.00
C85    C     0.31837   0.00648   0.39687   0.00000  Uiso   1.00
C86    C     0.18187   0.49117   0.60232   0.00000  Uiso   1.00
C87    C     0.25648   0.06837   0.89687   0.00000  Uiso   1.00
C88    C     0.24118   0.43187   0.10233   0.00000  Uiso   1.00
C89    C     0.43187   0.24121   0.89767   0.00000  Uiso   1.00
C90    C    -0.00000   0.25000   0.60205   0.00000  Uiso   1.00
C91    C     0.06837   0.25647   0.10313   0.00000  Uiso   1.00
C92    C     0.24352   0.43163   0.89687   0.00000  Uiso   1.00
C93    C     0.25882   0.06813   0.10233   0.00000  Uiso   1.00
C94    C     0.06813   0.25881   0.89767   0.00000  Uiso   1.00
C95    C     0.43163   0.24353   0.10313   0.00000  Uiso   1.00
C96    C     0.25000   0.00000   0.39794   0.00000  Uiso   1.00
C97    C     0.49992   0.21649   0.58193   0.00000  Uiso   1.00
C98    C     0.25000  -0.00000   0.60180   0.00000  Uiso   1.00
C99    C     0.25000  -0.00000   0.89794   0.00000  Uiso   1.00
C100   C     0.25000  -0.00000   0.10180   0.00000  Uiso   1.00
C101   C     0.00000   0.25000   0.89820   0.00000  Uiso   1.00
C102   C    -0.00000   0.25000   0.10206   0.00000  Uiso   1.00
C103   C     0.01132   0.18473   0.48001   0.00000  Uiso   1.00
C104   C     0.48840   0.31526   0.52020   0.00000  Uiso   1.00
C105   C     0.31526   0.48840   0.47980   0.00000  Uiso   1.00
C106   C     0.18473   0.01132   0.51998   0.00000  Uiso   1.00
C107   C     0.48868   0.31527   0.48002   0.00000  Uiso   1.00
C108   C     0.21649   0.49993   0.41807   0.00000  Uiso   1.00
C109   C     0.01160   0.18474   0.52020   0.00000  Uiso   1.00
C110   C     0.18474   0.01160   0.47980   0.00000  Uiso   1.00
C111   C     0.31527   0.48868   0.51998   0.00000  Uiso   1.00
C112   C     0.26160   0.43473   0.97980   0.00000  Uiso   1.00
C113   C     0.23868   0.06527   0.01999   0.00000  Uiso   1.00
C114   C     0.06526   0.23868   0.98002   0.00000  Uiso   1.00
C115   C     0.43474   0.26160   0.02020   0.00000  Uiso   1.00
C116   C     0.23840   0.06526   0.97980   0.00000  Uiso   1.00
C117   C     0.26131   0.43473   0.01998   0.00000  Uiso   1.00
C118   C     0.43473   0.26132   0.98002   0.00000  Uiso   1.00
C119   C     0.28344   0.00098   0.58151   0.00000  Uiso   1.00
C120   C     0.06526   0.23840   0.02020   0.00000  Uiso   1.00
C121   C     0.25000  -0.00000   0.35569   0.00000  Uiso   1.00
C122   C     0.25000  -0.00000   0.64422   0.00000  Uiso   1.00
C123   C     0.00000   0.25000   0.35578   0.00000  Uiso   1.00
C124   C    -0.00000   0.25000   0.64431   0.00000  Uiso   1.00
C125   C     0.00000   0.25000   0.85578   0.00000  Uiso   1.00
C126   C    -0.00000   0.25000   0.14431   0.00000  Uiso   1.00
C127   C     0.25000  -0.00000   0.85569   0.00000  Uiso   1.00
C128   C     0.25000  -0.00000   0.14422   0.00000  Uiso   1.00
C129   C     0.18001   0.06994   0.25024   0.00000  Uiso   1.00
C130   C     0.49902   0.21656   0.41849   0.00000  Uiso   1.00
C131   C     0.31994   0.43001   0.75024   0.00000  Uiso   1.00
C132   C     0.43002   0.18005   0.24999   0.00000  Uiso   1.00
C133   C     0.06995   0.31998   0.74999   0.00000  Uiso   1.00
C134   C     0.31999   0.43005   0.25024   0.00000  Uiso   1.00
C135   C     0.18005   0.06999   0.75024   0.00000  Uiso   1.00
C136   C     0.06998   0.31995   0.24999   0.00000  Uiso   1.00
C137   C     0.43005   0.18002   0.74999   0.00000  Uiso   1.00
C138   C     0.18005   0.43002   0.75001   0.00000  Uiso   1.00
C139   C     0.31998   0.06995   0.25001   0.00000  Uiso   1.00
C140   C     0.43005   0.31999   0.74976   0.00000  Uiso   1.00
C141   C     0.00007   0.28351   0.58193   0.00000  Uiso   1.00
C142   C     0.06999   0.18005   0.24976   0.00000  Uiso   1.00
C143   C     0.31995   0.06998   0.75001   0.00000  Uiso   1.00
C144   C     0.18002   0.43005   0.25001   0.00000  Uiso   1.00
C145   C     0.06994   0.18001   0.74976   0.00000  Uiso   1.00
C146   C     0.43001   0.31994   0.24976   0.00000  Uiso   1.00
C147   C     0.13988   0.38719   0.21451   0.00000  Uiso   1.00
C148   C     0.36000   0.11300   0.78559   0.00000  Uiso   1.00
C149   C     0.11611   0.14298   0.21505   0.00000  Uiso   1.00
C150   C     0.38300   0.35582   0.78452   0.00000  Uiso   1.00
C151   C     0.36012   0.11281   0.21451   0.00000  Uiso   1.00
C152   C     0.28351   0.00008   0.41807   0.00000  Uiso   1.00
C153   C     0.14001   0.38700   0.78560   0.00000  Uiso   1.00
C154   C     0.38389   0.35702   0.21505   0.00000  Uiso   1.00
C155   C     0.11700   0.14417   0.78452   0.00000  Uiso   1.00
C156   C     0.14298   0.11611   0.78495   0.00000  Uiso   1.00
C157   C     0.35583   0.38300   0.21548   0.00000  Uiso   1.00
C158   C     0.11281   0.36012   0.78549   0.00000  Uiso   1.00
C159   C     0.38700   0.14001   0.21440   0.00000  Uiso   1.00
C160   C     0.35701   0.38389   0.78495   0.00000  Uiso   1.00
C161   C     0.14417   0.11700   0.21548   0.00000  Uiso   1.00
C162   C     0.38719   0.13988   0.78549   0.00000  Uiso   1.00
C163   C     0.21656   0.49902   0.58151   0.00000  Uiso   1.00
C164   C     0.11300   0.35999   0.21440   0.00000  Uiso   1.00
C165   C     0.39000   0.13700   0.71440   0.00000  Uiso   1.00
C166   C     0.11012   0.36281   0.28549   0.00000  Uiso   1.00
C167   C     0.36700   0.39418   0.71548   0.00000  Uiso   1.00
C168   C     0.13389   0.10702   0.28495   0.00000  Uiso   1.00
C169   C     0.10999   0.36301   0.71440   0.00000  Uiso   1.00
C170   C     0.38988   0.13719   0.28549   0.00000  Uiso   1.00
C171   C     0.13300   0.10583   0.71548   0.00000  Uiso   1.00
C172   C     0.36611   0.39298   0.28495   0.00000  Uiso   1.00
C173   C     0.39417   0.36700   0.28452   0.00000  Uiso   1.00
C174   C     0.25008   0.03351   0.91807   0.00000  Uiso   1.00
C175   C     0.10702   0.13389   0.71505   0.00000  Uiso   1.00
C176   C     0.36300   0.11000   0.28560   0.00000  Uiso   1.00
C177   C     0.13719   0.38988   0.71451   0.00000  Uiso   1.00
C178   C     0.10583   0.13300   0.28452   0.00000  Uiso   1.00
C179   C     0.39298   0.36611   0.71505   0.00000  Uiso   1.00
C180   C     0.13700   0.39001   0.28560   0.00000  Uiso   1.00
C181   C     0.36281   0.11012   0.71451   0.00000  Uiso   1.00
C182   C     0.00308   0.21673   0.45919   0.00000  Uiso   1.00
C183   C     0.49652   0.28330   0.54117   0.00000  Uiso   1.00
C184   C     0.28330   0.49653   0.45883   0.00000  Uiso   1.00
F185   F     0.02193   0.15368   0.46181   0.00000  Uiso   1.00
F186   F     0.22807   0.09632   0.03819   0.00000  Uiso   1.00
F187   F     0.09631   0.22806   0.96181   0.00000  Uiso   1.00
F188   F     0.40368   0.27251   0.03820   0.00000  Uiso   1.00
F189   F     0.22749   0.09632   0.96180   0.00000  Uiso   1.00
F190   F     0.27193   0.40368   0.03819   0.00000  Uiso   1.00
F191   F     0.40368   0.27193   0.96181   0.00000  Uiso   1.00
F192   F     0.09631   0.22748   0.03820   0.00000  Uiso   1.00
F193   F     0.47749   0.34632   0.53819   0.00000  Uiso   1.00
F194   F     0.34632   0.47749   0.46180   0.00000  Uiso   1.00
F195   F     0.15368   0.02193   0.53819   0.00000  Uiso   1.00
F196   F     0.47807   0.34632   0.46181   0.00000  Uiso   1.00
F197   F     0.02251   0.15368   0.53819   0.00000  Uiso   1.00
F198   F     0.15368   0.02251   0.46180   0.00000  Uiso   1.00
F199   F     0.34632   0.47807   0.53819   0.00000  Uiso   1.00
F200   F     0.27251   0.40368   0.96180   0.00000  Uiso   1.00
H201   H     0.15405   0.42409   0.12660   0.00000  Uiso   1.00
H202   H     0.33308   0.40127   0.12296   0.00000  Uiso   1.00
H203   H     0.07596   0.34597   0.87343   0.00000  Uiso   1.00
H204   H     0.41876   0.15264   0.12385   0.00000  Uiso   1.00
H205   H     0.33200   0.42632   0.86701   0.00000  Uiso   1.00
H206   H     0.16691   0.09872   0.12296   0.00000  Uiso   1.00
H207   H     0.42388   0.15396   0.87352   0.00000  Uiso   1.00
H208   H     0.08125   0.34737   0.12385   0.00000  Uiso   1.00
H209   H     0.40264   0.16879   0.62386   0.00000  Uiso   1.00
H210   H     0.09596   0.32592   0.37341   0.00000  Uiso   1.00
H211   H     0.34873   0.41692   0.62296   0.00000  Uiso   1.00
H212   H     0.34730   0.08105   0.87605   0.00000  Uiso   1.00
H213   H     0.17633   0.08200   0.36701   0.00000  Uiso   1.00
H214   H     0.09738   0.33132   0.62381   0.00000  Uiso   1.00
H215   H     0.40403   0.17404   0.37343   0.00000  Uiso   1.00
H216   H     0.15128   0.08309   0.62296   0.00000  Uiso   1.00
H217   H     0.32367   0.41800   0.36701   0.00000  Uiso   1.00
H218   H     0.41692   0.34872   0.37704   0.00000  Uiso   1.00
H219   H     0.08200   0.17633   0.63299   0.00000  Uiso   1.00
H220   H     0.33120   0.09735   0.37613   0.00000  Uiso   1.00
H221   H     0.17415   0.40408   0.62664   0.00000  Uiso   1.00
H222   H     0.08308   0.15128   0.37704   0.00000  Uiso   1.00
H223   H     0.07367   0.16800   0.13299   0.00000  Uiso   1.00
H224   H     0.41800   0.32368   0.63299   0.00000  Uiso   1.00
H225   H     0.16876   0.40264   0.37615   0.00000  Uiso   1.00
H226   H     0.32595   0.09597   0.62657   0.00000  Uiso   1.00
H227   H     0.03548   0.36630   0.39801   0.00000  Uiso   1.00
H228   H     0.46760   0.13308   0.60407   0.00000  Uiso   1.00
H229   H     0.13308   0.46761   0.39592   0.00000  Uiso   1.00
H230   H     0.36630   0.03548   0.60199   0.00000  Uiso   1.00
H231   H     0.46452   0.13370   0.39800   0.00000  Uiso   1.00
H232   H     0.03239   0.36692   0.60409   0.00000  Uiso   1.00
H233   H     0.36692   0.03239   0.39593   0.00000  Uiso   1.00
H234   H     0.40127   0.33307   0.87704   0.00000  Uiso   1.00
H235   H     0.13370   0.46451   0.60197   0.00000  Uiso   1.00
H236   H     0.28240   0.11693   0.89594   0.00000  Uiso   1.00
H237   H     0.21452   0.38370   0.10199   0.00000  Uiso   1.00
H238   H     0.38370   0.21454   0.89797   0.00000  Uiso   1.00
H239   H     0.11692   0.28239   0.10408   0.00000  Uiso   1.00
H240   H     0.21761   0.38307   0.89593   0.00000  Uiso   1.00
H241   H     0.28548   0.11630   0.10199   0.00000  Uiso   1.00
H242   H     0.11630   0.28547   0.89800   0.00000  Uiso   1.00
H243   H     0.38308   0.21761   0.10408   0.00000  Uiso   1.00
H244   H     0.34595   0.07592   0.12659   0.00000  Uiso   1.00
H245   H     0.15265   0.41879   0.87613   0.00000  Uiso   1.00
H246   H     0.42632   0.33200   0.13299   0.00000  Uiso   1.00
H247   H     0.09873   0.16692   0.87704   0.00000  Uiso   1.00
H248   H     0.16801   0.07368   0.86701   0.00000  Uiso   1.00
O249   O     0.25000  -0.00000   0.25000   0.00000  Uiso   1.00
O250   O     0.25000   0.46963   0.66245   0.00000  Uiso   1.00
O251   O     0.32600   0.40380   0.34195   0.00000  Uiso   1.00
O252   O     0.44934   0.36270   0.31836   0.00000  Uiso   1.00
O253   O     0.39895   0.35239   0.35507   0.00000  Uiso   1.00
O254   O     0.06426   0.12139   0.66637   0.00000  Uiso   1.00
O255   O     0.09620   0.17400   0.65805   0.00000  Uiso   1.00
O256   O     0.35563   0.05908   0.32590   0.00000  Uiso   1.00
O257   O     0.33790   0.11274   0.35281   0.00000  Uiso   1.00
O258   O     0.14047   0.44000   0.67274   0.00000  Uiso   1.00
O259   O     0.16775   0.38862   0.64999   0.00000  Uiso   1.00
O260   O     0.05066   0.13729   0.31836   0.00000  Uiso   1.00
O261   O     0.46963   0.25000   0.33755   0.00000  Uiso   1.00
O262   O     0.10105   0.14762   0.35507   0.00000  Uiso   1.00
O263   O     0.43574   0.37861   0.66637   0.00000  Uiso   1.00
O264   O     0.40380   0.32600   0.65804   0.00000  Uiso   1.00
O265   O     0.14440   0.44092   0.32590   0.00000  Uiso   1.00
O266   O     0.16206   0.38725   0.35283   0.00000  Uiso   1.00
O267   O     0.35943   0.05998   0.67277   0.00000  Uiso   1.00
O268   O     0.33236   0.11143   0.64993   0.00000  Uiso   1.00
O269   O     0.49396   0.32495   0.36688   0.00000  Uiso   1.00
O270   O     0.03356   0.34299   0.41360   0.00000  Uiso   1.00
O271   O     0.00965   0.17508   0.63331   0.00000  Uiso   1.00
O272   O     0.03036   0.25000   0.66245   0.00000  Uiso   1.00
O273   O     0.46864   0.15634   0.58829   0.00000  Uiso   1.00
O274   O     0.17508   0.00966   0.36669   0.00000  Uiso   1.00
O275   O     0.15634   0.46864   0.41171   0.00000  Uiso   1.00
O276   O     0.32494   0.49395   0.63312   0.00000  Uiso   1.00
O277   O     0.34299   0.03355   0.58640   0.00000  Uiso   1.00
O278   O     0.00605   0.17505   0.36688   0.00000  Uiso   1.00
O279   O     0.46645   0.15701   0.41360   0.00000  Uiso   1.00
O280   O     0.49034   0.32492   0.63331   0.00000  Uiso   1.00
O281   O     0.03135   0.34366   0.58830   0.00000  Uiso   1.00
O282   O     0.32492   0.49035   0.36669   0.00000  Uiso   1.00
O283   O    -0.00000   0.21963   0.83755   0.00000  Uiso   1.00
O284   O     0.34366   0.03136   0.41171   0.00000  Uiso   1.00
O285   O     0.17505   0.00602   0.63312   0.00000  Uiso   1.00
O286   O     0.15701   0.46644   0.58639   0.00000  Uiso   1.00
O287   O     0.24037   0.07492   0.86669   0.00000  Uiso   1.00
O288   O     0.28137   0.09366   0.91172   0.00000  Uiso   1.00
O289   O     0.25604   0.42505   0.13312   0.00000  Uiso   1.00
O290   O     0.21644   0.40701   0.08640   0.00000  Uiso   1.00
O291   O     0.42506   0.25609   0.86689   0.00000  Uiso   1.00
O292   O     0.40701   0.21646   0.91357   0.00000  Uiso   1.00
O293   O     0.07492   0.24034   0.13331   0.00000  Uiso   1.00
O294   O     0.00000   0.28036   0.16245   0.00000  Uiso   1.00
O295   O     0.09366   0.28136   0.08829   0.00000  Uiso   1.00
O296   O     0.25965   0.42508   0.86669   0.00000  Uiso   1.00
O297   O     0.21864   0.40634   0.91171   0.00000  Uiso   1.00
O298   O     0.24396   0.07495   0.13312   0.00000  Uiso   1.00
O299   O     0.28355   0.09299   0.08640   0.00000  Uiso   1.00
O300   O     0.07494   0.24395   0.86688   0.00000  Uiso   1.00
O301   O     0.09299   0.28355   0.91360   0.00000  Uiso   1.00
O302   O     0.42508   0.25965   0.13331   0.00000  Uiso   1.00
O303   O     0.40634   0.21864   0.08829   0.00000  Uiso   1.00
O304   O     0.28036  -0.00000   0.83755   0.00000  Uiso   1.00
O305   O     0.21963  -0.00000   0.16245   0.00000  Uiso   1.00
O306   O    -0.00000   0.28036   0.83755   0.00000  Uiso   1.00
O307   O     0.00000   0.21963   0.16245   0.00000  Uiso   1.00
O308   O     0.21963  -0.00000   0.83755   0.00000  Uiso   1.00
O309   O     0.25000  -0.00000   0.75000   0.00000  Uiso   1.00
O310   O     0.28036  -0.00000   0.16245   0.00000  Uiso   1.00
O311   O     0.20724   0.07307   0.27302   0.00000  Uiso   1.00
O312   O     0.29275   0.42692   0.72698   0.00000  Uiso   1.00
O313   O     0.42692   0.20724   0.27302   0.00000  Uiso   1.00
O314   O     0.07307   0.29275   0.72698   0.00000  Uiso   1.00
O315   O     0.29275   0.42692   0.27302   0.00000  Uiso   1.00
O316   O     0.20724   0.07307   0.72698   0.00000  Uiso   1.00
O317   O     0.07307   0.29275   0.27302   0.00000  Uiso   1.00
O318   O     0.42692   0.20724   0.72698   0.00000  Uiso   1.00
O319   O     0.20724   0.42692   0.72698   0.00000  Uiso   1.00
O320   O    -0.00000   0.25000   0.25000   0.00000  Uiso   1.00
O321   O     0.29275   0.07307   0.27302   0.00000  Uiso   1.00
O322   O     0.42692   0.29275   0.72698   0.00000  Uiso   1.00
O323   O     0.07307   0.20724   0.27302   0.00000  Uiso   1.00
O324   O     0.29275   0.07307   0.72698   0.00000  Uiso   1.00
O325   O     0.20724   0.42692   0.27302   0.00000  Uiso   1.00
O326   O     0.07307   0.20724   0.72698   0.00000  Uiso   1.00
O327   O     0.42692   0.29275   0.27302   0.00000  Uiso   1.00
O328   O     0.45724   0.32307   0.77302   0.00000  Uiso   1.00
O329   O     0.04275   0.17692   0.22698   0.00000  Uiso   1.00
O330   O     0.17692   0.45724   0.77302   0.00000  Uiso   1.00
O331   O     0.00000   0.25000   0.75000   0.00000  Uiso   1.00
O332   O     0.32307   0.04275   0.22698   0.00000  Uiso   1.00
O333   O     0.04275   0.17692   0.77302   0.00000  Uiso   1.00
O334   O     0.45724   0.32307   0.22698   0.00000  Uiso   1.00
O335   O     0.32307   0.04275   0.77302   0.00000  Uiso   1.00
O336   O     0.17692   0.45724   0.22698   0.00000  Uiso   1.00
O337   O     0.45724   0.17692   0.22698   0.00000  Uiso   1.00
O338   O     0.04275   0.32307   0.77302   0.00000  Uiso   1.00
O339   O     0.17692   0.04275   0.22698   0.00000  Uiso   1.00
O340   O     0.32307   0.45724   0.77302   0.00000  Uiso   1.00
O341   O     0.04275   0.32307   0.22698   0.00000  Uiso   1.00
O342   O     0.25000   0.46963   0.33755   0.00000  Uiso   1.00
O343   O     0.45724   0.17692   0.77302   0.00000  Uiso   1.00
O344   O     0.32307   0.45724   0.22698   0.00000  Uiso   1.00
O345   O     0.17692   0.04275   0.77302   0.00000  Uiso   1.00
O346   O     0.19002   0.39054   0.17276   0.00000  Uiso   1.00
O347   O     0.13859   0.41768   0.14995   0.00000  Uiso   1.00
O348   O     0.30910   0.10575   0.82593   0.00000  Uiso   1.00
O349   O     0.36269   0.08773   0.85274   0.00000  Uiso   1.00
O350   O     0.12861   0.18573   0.16637   0.00000  Uiso   1.00
O351   O     0.07599   0.15380   0.15805   0.00000  Uiso   1.00
O352   O     0.38727   0.30066   0.81835   0.00000  Uiso   1.00
O353   O     0.25000   0.03036   0.66245   0.00000  Uiso   1.00
O354   O     0.39761   0.35104   0.85507   0.00000  Uiso   1.00
O355   O     0.30998   0.10946   0.17277   0.00000  Uiso   1.00
O356   O     0.36141   0.08233   0.14995   0.00000  Uiso   1.00
O357   O     0.19092   0.39437   0.82590   0.00000  Uiso   1.00
O358   O     0.13727   0.41210   0.85281   0.00000  Uiso   1.00
O359   O     0.37139   0.31425   0.16638   0.00000  Uiso   1.00
O360   O     0.42399   0.34621   0.15804   0.00000  Uiso   1.00
O361   O     0.11271   0.19934   0.81836   0.00000  Uiso   1.00
O362   O     0.10239   0.14895   0.85507   0.00000  Uiso   1.00
O363   O     0.18574   0.12862   0.83362   0.00000  Uiso   1.00
O364   O     0.03036   0.25000   0.33755   0.00000  Uiso   1.00
O365   O     0.15381   0.07600   0.84195   0.00000  Uiso   1.00
O366   O     0.30066   0.38730   0.18164   0.00000  Uiso   1.00
O367   O     0.35105   0.39761   0.14493   0.00000  Uiso   1.00
O368   O     0.10942   0.30997   0.82722   0.00000  Uiso   1.00
O369   O     0.08237   0.36142   0.85007   0.00000  Uiso   1.00
O370   O     0.39440   0.19092   0.17410   0.00000  Uiso   1.00
O371   O     0.41206   0.13725   0.14717   0.00000  Uiso   1.00
O372   O     0.31426   0.37138   0.83362   0.00000  Uiso   1.00
O373   O     0.34619   0.42400   0.84195   0.00000  Uiso   1.00
O374   O     0.19934   0.11270   0.18163   0.00000  Uiso   1.00
O375   O     0.46963   0.25000   0.66245   0.00000  Uiso   1.00
O376   O     0.14894   0.10238   0.14493   0.00000  Uiso   1.00
O377   O     0.39073   0.19006   0.82717   0.00000  Uiso   1.00
O378   O     0.41745   0.13851   0.85017   0.00000  Uiso   1.00
O379   O     0.10560   0.30908   0.17410   0.00000  Uiso   1.00
O380   O     0.08795   0.36275   0.14716   0.00000  Uiso   1.00
O381   O     0.44092   0.14438   0.67410   0.00000  Uiso   1.00
O382   O     0.38726   0.16209   0.64718   0.00000  Uiso   1.00
O383   O     0.05998   0.35946   0.32723   0.00000  Uiso   1.00
O384   O     0.11141   0.33233   0.35005   0.00000  Uiso   1.00
O385   O     0.36271   0.44934   0.68164   0.00000  Uiso   1.00
O386   O     0.25000   0.03036   0.33755   0.00000  Uiso   1.00
O387   O     0.35239   0.39895   0.64493   0.00000  Uiso   1.00
O388   O     0.12139   0.06427   0.33363   0.00000  Uiso   1.00
O389   O     0.17401   0.09620   0.34195   0.00000  Uiso   1.00
O390   O     0.05907   0.35554   0.67412   0.00000  Uiso   1.00
O391   O     0.11276   0.33803   0.64713   0.00000  Uiso   1.00
O392   O     0.44003   0.14058   0.32722   0.00000  Uiso   1.00
O393   O     0.38858   0.16763   0.35007   0.00000  Uiso   1.00
O394   O     0.13730   0.05066   0.68163   0.00000  Uiso   1.00
O395   O     0.14761   0.10106   0.64493   0.00000  Uiso   1.00
O396   O     0.37861   0.43574   0.33363   0.00000  Uiso   1.00
Zn397  Zn    0.20659  -0.00000   0.21735   0.00000  Uiso   1.00
Zn398  Zn    0.04340   0.25000   0.28265   0.00000  Uiso   1.00
Zn399  Zn    0.25000   0.45659   0.71735   0.00000  Uiso   1.00
Zn400  Zn    0.25000   0.04340   0.28265   0.00000  Uiso   1.00
Zn401  Zn    0.04340   0.25000   0.71735   0.00000  Uiso   1.00
Zn402  Zn    0.45659   0.25000   0.28265   0.00000  Uiso   1.00
Zn403  Zn    0.25000   0.04340   0.71735   0.00000  Uiso   1.00
Zn404  Zn    0.25000   0.45659   0.28265   0.00000  Uiso   1.00
Zn405  Zn    0.29340  -0.00000   0.78265   0.00000  Uiso   1.00
Zn406  Zn    0.00000   0.20659   0.21735   0.00000  Uiso   1.00
Zn407  Zn    0.00000   0.29340   0.78265   0.00000  Uiso   1.00
Zn408  Zn    0.29340  -0.00000   0.21735   0.00000  Uiso   1.00
Zn409  Zn    0.20659  -0.00000   0.78265   0.00000  Uiso   1.00
Zn410  Zn    0.00000   0.29340   0.21735   0.00000  Uiso   1.00
Zn411  Zn    0.00000   0.20659   0.78265   0.00000  Uiso   1.00
Zn412  Zn    0.45659   0.25000   0.71735   0.00000  Uiso   1.00
C413   C     0.50098   0.28344   0.41849   0.00000  Uiso   1.00
C414   C     0.74902   0.46656   0.08151   0.00000  Uiso   1.00
C415   C     0.71673   0.00308   0.54081   0.00000  Uiso   1.00
C416   C     0.99692   0.28327   0.45919   0.00000  Uiso   1.00
C417   C     0.50347   0.21670   0.54117   0.00000  Uiso   1.00
C418   C     0.71670   0.00348   0.45883   0.00000  Uiso   1.00
C419   C     0.78327   0.49692   0.54081   0.00000  Uiso   1.00
C420   C     0.75347   0.46670   0.95883   0.00000  Uiso   1.00
C421   C     0.74691   0.03327   0.04081   0.00000  Uiso   1.00
C422   C     0.53327   0.24691   0.95919   0.00000  Uiso   1.00
C423   C     0.96670   0.25347   0.04117   0.00000  Uiso   1.00
C424   C     0.74652   0.03329   0.95883   0.00000  Uiso   1.00
C425   C     0.96656   0.24903   0.91849   0.00000  Uiso   1.00
C426   C     0.75308   0.46673   0.04081   0.00000  Uiso   1.00
C427   C     0.96673   0.25309   0.95919   0.00000  Uiso   1.00
C428   C     0.53329   0.24652   0.04117   0.00000  Uiso   1.00
C429   C     0.59820   0.34800   0.24994   0.00000  Uiso   1.00
C430   C     0.90200   0.15180   0.74995   0.00000  Uiso   1.00
C431   C     0.65252   0.09868   0.25030   0.00000  Uiso   1.00
C432   C     0.84868   0.40252   0.75030   0.00000  Uiso   1.00
C433   C     0.90180   0.15200   0.24994   0.00000  Uiso   1.00
C434   C     0.59799   0.34821   0.74994   0.00000  Uiso   1.00
C435   C     0.84748   0.40132   0.25030   0.00000  Uiso   1.00
C436   C     0.53351   0.25007   0.08193   0.00000  Uiso   1.00
C437   C     0.65132   0.09748   0.75030   0.00000  Uiso   1.00
C438   C     0.59868   0.15252   0.74970   0.00000  Uiso   1.00
C439   C     0.90252   0.34868   0.24970   0.00000  Uiso   1.00
C440   C     0.65201   0.40179   0.75006   0.00000  Uiso   1.00
C441   C     0.84820   0.09800   0.25006   0.00000  Uiso   1.00
C442   C     0.90132   0.34748   0.74970   0.00000  Uiso   1.00
C443   C     0.59748   0.15132   0.24970   0.00000  Uiso   1.00
C444   C     0.84800   0.09820   0.75005   0.00000  Uiso   1.00
C445   C     0.65179   0.40200   0.25006   0.00000  Uiso   1.00
C446   C     0.50000   0.25000   0.47965   0.00000  Uiso   1.00
C447   C     0.74992   0.46649   0.91807   0.00000  Uiso   1.00
C448   C     0.50000   0.25000   0.52073   0.00000  Uiso   1.00
C449   C     0.75000   0.00000   0.47927   0.00000  Uiso   1.00
C450   C     0.75000   0.00000   0.52035   0.00000  Uiso   1.00
C451   C     0.75000  -0.00000   0.97927   0.00000  Uiso   1.00
C452   C     0.75000  -0.00000   0.02035   0.00000  Uiso   1.00
C453   C     0.50000   0.25000   0.97965   0.00000  Uiso   1.00
C454   C     0.50000   0.25000   0.02073   0.00000  Uiso   1.00
C455   C     0.65792   0.39799   0.17783   0.00000  Uiso   1.00
C456   C     0.84207   0.10235   0.82249   0.00000  Uiso   1.00
C457   C     0.60754   0.16267   0.17868   0.00000  Uiso   1.00
C458   C     0.75098   0.03344   0.08151   0.00000  Uiso   1.00
C459   C     0.88952   0.33384   0.81996   0.00000  Uiso   1.00
C460   C     0.84208   0.10201   0.17783   0.00000  Uiso   1.00
C461   C     0.65793   0.39764   0.82250   0.00000  Uiso   1.00
C462   C     0.89246   0.33733   0.17869   0.00000  Uiso   1.00
C463   C     0.61047   0.16615   0.81997   0.00000  Uiso   1.00
C464   C     0.66268   0.10755   0.82131   0.00000  Uiso   1.00
C465   C     0.83385   0.38953   0.18003   0.00000  Uiso   1.00
C466   C     0.60202   0.34208   0.82217   0.00000  Uiso   1.00
C467   C     0.89764   0.15793   0.17750   0.00000  Uiso   1.00
C468   C     0.83733   0.39245   0.82131   0.00000  Uiso   1.00
C469   C     0.53344   0.25098   0.91849   0.00000  Uiso   1.00
C470   C     0.66615   0.11047   0.18003   0.00000  Uiso   1.00
C471   C     0.89798   0.15791   0.82218   0.00000  Uiso   1.00
C472   C     0.60236   0.34207   0.17750   0.00000  Uiso   1.00
C473   C     0.90793   0.14764   0.67750   0.00000  Uiso   1.00
C474   C     0.59208   0.35201   0.32216   0.00000  Uiso   1.00
C475   C     0.86047   0.41615   0.68003   0.00000  Uiso   1.00
C476   C     0.64246   0.08733   0.32132   0.00000  Uiso   1.00
C477   C     0.59207   0.35236   0.67749   0.00000  Uiso   1.00
C478   C     0.90792   0.14799   0.32217   0.00000  Uiso   1.00
C479   C     0.63953   0.08385   0.68003   0.00000  Uiso   1.00
C480   C     0.96649   0.24992   0.08193   0.00000  Uiso   1.00
C481   C     0.85754   0.41267   0.32132   0.00000  Uiso   1.00
C482   C     0.91615   0.36047   0.31997   0.00000  Uiso   1.00
C483   C     0.58733   0.14245   0.67868   0.00000  Uiso   1.00
C484   C     0.85236   0.09207   0.32250   0.00000  Uiso   1.00
C485   C     0.64799   0.40792   0.67784   0.00000  Uiso   1.00
C486   C     0.58385   0.13953   0.31997   0.00000  Uiso   1.00
C487   C     0.91267   0.35755   0.67868   0.00000  Uiso   1.00
C488   C     0.64764   0.40793   0.32250   0.00000  Uiso   1.00
C489   C     0.85201   0.09209   0.67783   0.00000  Uiso   1.00
C490   C     0.50882   0.31813   0.39767   0.00000  Uiso   1.00
C491   C     0.50000   0.25000   0.39820   0.00000  Uiso   1.00
C492   C     0.99352   0.18163   0.60313   0.00000  Uiso   1.00
C493   C     0.68163   0.49353   0.39687   0.00000  Uiso   1.00
C494   C     0.81813   0.00882   0.60233   0.00000  Uiso   1.00
C495   C     0.99118   0.18187   0.39767   0.00000  Uiso   1.00
C496   C     0.50647   0.31837   0.60313   0.00000  Uiso   1.00
C497   C     0.81837   0.00648   0.39687   0.00000  Uiso   1.00
C498   C     0.68187   0.49117   0.60232   0.00000  Uiso   1.00
C499   C     0.75648   0.06837   0.89687   0.00000  Uiso   1.00
C500   C     0.74118   0.43187   0.10233   0.00000  Uiso   1.00
C501   C     0.93187   0.24121   0.89767   0.00000  Uiso   1.00
C502   C     0.50000   0.25000   0.60205   0.00000  Uiso   1.00
C503   C     0.56837   0.25647   0.10313   0.00000  Uiso   1.00
C504   C     0.74352   0.43163   0.89687   0.00000  Uiso   1.00
C505   C     0.75882   0.06813   0.10233   0.00000  Uiso   1.00
C506   C     0.56813   0.25881   0.89767   0.00000  Uiso   1.00
C507   C     0.93163   0.24353   0.10313   0.00000  Uiso   1.00
C508   C     0.75000   0.00000   0.39794   0.00000  Uiso   1.00
C509   C     0.99992   0.21649   0.58193   0.00000  Uiso   1.00
C510   C     0.75000  -0.00000   0.60180   0.00000  Uiso   1.00
C511   C     0.75000  -0.00000   0.89794   0.00000  Uiso   1.00
C512   C     0.75000  -0.00000   0.10180   0.00000  Uiso   1.00
C513   C     0.50000   0.25000   0.89820   0.00000  Uiso   1.00
C514   C     0.50000   0.25000   0.10206   0.00000  Uiso   1.00
C515   C     0.51132   0.18473   0.48001   0.00000  Uiso   1.00
C516   C     0.98840   0.31526   0.52020   0.00000  Uiso   1.00
C517   C     0.81526   0.48840   0.47980   0.00000  Uiso   1.00
C518   C     0.68473   0.01132   0.51998   0.00000  Uiso   1.00
C519   C     0.98868   0.31527   0.48002   0.00000  Uiso   1.00
C520   C     0.71649   0.49993   0.41807   0.00000  Uiso   1.00
C521   C     0.51160   0.18474   0.52020   0.00000  Uiso   1.00
C522   C     0.68474   0.01160   0.47980   0.00000  Uiso   1.00
C523   C     0.81527   0.48868   0.51998   0.00000  Uiso   1.00
C524   C     0.76160   0.43473   0.97980   0.00000  Uiso   1.00
C525   C     0.73868   0.06527   0.01999   0.00000  Uiso   1.00
C526   C     0.56526   0.23868   0.98002   0.00000  Uiso   1.00
C527   C     0.93474   0.26160   0.02020   0.00000  Uiso   1.00
C528   C     0.73840   0.06526   0.97980   0.00000  Uiso   1.00
C529   C     0.76131   0.43473   0.01998   0.00000  Uiso   1.00
C530   C     0.93473   0.26132   0.98002   0.00000  Uiso   1.00
C531   C     0.78344   0.00098   0.58151   0.00000  Uiso   1.00
C532   C     0.56526   0.23840   0.02020   0.00000  Uiso   1.00
C533   C     0.75000  -0.00000   0.35569   0.00000  Uiso   1.00
C534   C     0.75000  -0.00000   0.64422   0.00000  Uiso   1.00
C535   C     0.50000   0.25000   0.35578   0.00000  Uiso   1.00
C536   C     0.50000   0.25000   0.64431   0.00000  Uiso   1.00
C537   C     0.50000   0.25000   0.85578   0.00000  Uiso   1.00
C538   C     0.50000   0.25000   0.14431   0.00000  Uiso   1.00
C539   C     0.75000  -0.00000   0.85569   0.00000  Uiso   1.00
C540   C     0.75000  -0.00000   0.14422   0.00000  Uiso   1.00
C541   C     0.68001   0.06994   0.25024   0.00000  Uiso   1.00
C542   C     0.99902   0.21656   0.41849   0.00000  Uiso   1.00
C543   C     0.81994   0.43001   0.75024   0.00000  Uiso   1.00
C544   C     0.93002   0.18005   0.24999   0.00000  Uiso   1.00
C545   C     0.56995   0.31998   0.74999   0.00000  Uiso   1.00
C546   C     0.81999   0.43005   0.25024   0.00000  Uiso   1.00
C547   C     0.68005   0.06999   0.75024   0.00000  Uiso   1.00
C548   C     0.56998   0.31995   0.24999   0.00000  Uiso   1.00
C549   C     0.93005   0.18002   0.74999   0.00000  Uiso   1.00
C550   C     0.68005   0.43002   0.75001   0.00000  Uiso   1.00
C551   C     0.81998   0.06995   0.25001   0.00000  Uiso   1.00
C552   C     0.93005   0.31999   0.74976   0.00000  Uiso   1.00
C553   C     0.50007   0.28351   0.58193   0.00000  Uiso   1.00
C554   C     0.56999   0.18005   0.24976   0.00000  Uiso   1.00
C555   C     0.81995   0.06998   0.75001   0.00000  Uiso   1.00
C556   C     0.68002   0.43005   0.25001   0.00000  Uiso   1.00
C557   C     0.56994   0.18001   0.74976   0.00000  Uiso   1.00
C558   C     0.93001   0.31994   0.24976   0.00000  Uiso   1.00
C559   C     0.63988   0.38719   0.21451   0.00000  Uiso   1.00
C560   C     0.86000   0.11300   0.78559   0.00000  Uiso   1.00
C561   C     0.61611   0.14298   0.21505   0.00000  Uiso   1.00
C562   C     0.88300   0.35582   0.78452   0.00000  Uiso   1.00
C563   C     0.86012   0.11281   0.21451   0.00000  Uiso   1.00
C564   C     0.78351   0.00008   0.41807   0.00000  Uiso   1.00
C565   C     0.64001   0.38700   0.78560   0.00000  Uiso   1.00
C566   C     0.88389   0.35702   0.21505   0.00000  Uiso   1.00
C567   C     0.61700   0.14417   0.78452   0.00000  Uiso   1.00
C568   C     0.64298   0.11611   0.78495   0.00000  Uiso   1.00
C569   C     0.85583   0.38300   0.21548   0.00000  Uiso   1.00
C570   C     0.61281   0.36012   0.78549   0.00000  Uiso   1.00
C571   C     0.88700   0.14001   0.21440   0.00000  Uiso   1.00
C572   C     0.85701   0.38389   0.78495   0.00000  Uiso   1.00
C573   C     0.64417   0.11700   0.21548   0.00000  Uiso   1.00
C574   C     0.88719   0.13988   0.78549   0.00000  Uiso   1.00
C575   C     0.71656   0.49902   0.58151   0.00000  Uiso   1.00
C576   C     0.61300   0.35999   0.21440   0.00000  Uiso   1.00
C577   C     0.89000   0.13700   0.71440   0.00000  Uiso   1.00
C578   C     0.61012   0.36281   0.28549   0.00000  Uiso   1.00
C579   C     0.86700   0.39418   0.71548   0.00000  Uiso   1.00
C580   C     0.63389   0.10702   0.28495   0.00000  Uiso   1.00
C581   C     0.60999   0.36301   0.71440   0.00000  Uiso   1.00
C582   C     0.88988   0.13719   0.28549   0.00000  Uiso   1.00
C583   C     0.63300   0.10583   0.71548   0.00000  Uiso   1.00
C584   C     0.86611   0.39298   0.28495   0.00000  Uiso   1.00
C585   C     0.89417   0.36700   0.28452   0.00000  Uiso   1.00
C586   C     0.75008   0.03351   0.91807   0.00000  Uiso   1.00
C587   C     0.60702   0.13389   0.71505   0.00000  Uiso   1.00
C588   C     0.86300   0.11000   0.28560   0.00000  Uiso   1.00
C589   C     0.63719   0.38988   0.71451   0.00000  Uiso   1.00
C590   C     0.60583   0.13300   0.28452   0.00000  Uiso   1.00
C591   C     0.89298   0.36611   0.71505   0.00000  Uiso   1.00
C592   C     0.63700   0.39001   0.28560   0.00000  Uiso   1.00
C593   C     0.86281   0.11012   0.71451   0.00000  Uiso   1.00
C594   C     0.50308   0.21673   0.45919   0.00000  Uiso   1.00
C595   C     0.99652   0.28330   0.54117   0.00000  Uiso   1.00
C596   C     0.78330   0.49653   0.45883   0.00000  Uiso   1.00
F597   F     0.52193   0.15368   0.46181   0.00000  Uiso   1.00
F598   F     0.72807   0.09632   0.03819   0.00000  Uiso   1.00
F599   F     0.59631   0.22806   0.96181   0.00000  Uiso   1.00
F600   F     0.90368   0.27251   0.03820   0.00000  Uiso   1.00
F601   F     0.72749   0.09632   0.96180   0.00000  Uiso   1.00
F602   F     0.77193   0.40368   0.03819   0.00000  Uiso   1.00
F603   F     0.90368   0.27193   0.96181   0.00000  Uiso   1.00
F604   F     0.59631   0.22748   0.03820   0.00000  Uiso   1.00
F605   F     0.97749   0.34632   0.53819   0.00000  Uiso   1.00
F606   F     0.84632   0.47749   0.46180   0.00000  Uiso   1.00
F607   F     0.65368   0.02193   0.53819   0.00000  Uiso   1.00
F608   F     0.97807   0.34632   0.46181   0.00000  Uiso   1.00
F609   F     0.52251   0.15368   0.53819   0.00000  Uiso   1.00
F610   F     0.65368   0.02251   0.46180   0.00000  Uiso   1.00
F611   F     0.84632   0.47807   0.53819   0.00000  Uiso   1.00
F612   F     0.77251   0.40368   0.96180   0.00000  Uiso   1.00
H613   H     0.65405   0.42409   0.12660   0.00000  Uiso   1.00
H614   H     0.83308   0.40127   0.12296   0.00000  Uiso   1.00
H615   H     0.57596   0.34597   0.87343   0.00000  Uiso   1.00
H616   H     0.91876   0.15264   0.12385   0.00000  Uiso   1.00
H617   H     0.83200   0.42632   0.86701   0.00000  Uiso   1.00
H618   H     0.66691   0.09872   0.12296   0.00000  Uiso   1.00
H619   H     0.92388   0.15396   0.87352   0.00000  Uiso   1.00
H620   H     0.58125   0.34737   0.12385   0.00000  Uiso   1.00
H621   H     0.90264   0.16879   0.62386   0.00000  Uiso   1.00
H622   H     0.59596   0.32592   0.37341   0.00000  Uiso   1.00
H623   H     0.84873   0.41692   0.62296   0.00000  Uiso   1.00
H624   H     0.84730   0.08105   0.87605   0.00000  Uiso   1.00
H625   H     0.67633   0.08200   0.36701   0.00000  Uiso   1.00
H626   H     0.59738   0.33132   0.62381   0.00000  Uiso   1.00
H627   H     0.90403   0.17404   0.37343   0.00000  Uiso   1.00
H628   H     0.65128   0.08309   0.62296   0.00000  Uiso   1.00
H629   H     0.82367   0.41800   0.36701   0.00000  Uiso   1.00
H630   H     0.91692   0.34872   0.37704   0.00000  Uiso   1.00
H631   H     0.58200   0.17633   0.63299   0.00000  Uiso   1.00
H632   H     0.83120   0.09735   0.37613   0.00000  Uiso   1.00
H633   H     0.67415   0.40408   0.62664   0.00000  Uiso   1.00
H634   H     0.58308   0.15128   0.37704   0.00000  Uiso   1.00
H635   H     0.57367   0.16800   0.13299   0.00000  Uiso   1.00
H636   H     0.91800   0.32368   0.63299   0.00000  Uiso   1.00
H637   H     0.66876   0.40264   0.37615   0.00000  Uiso   1.00
H638   H     0.82595   0.09597   0.62657   0.00000  Uiso   1.00
H639   H     0.53548   0.36630   0.39801   0.00000  Uiso   1.00
H640   H     0.96760   0.13308   0.60407   0.00000  Uiso   1.00
H641   H     0.63308   0.46761   0.39592   0.00000  Uiso   1.00
H642   H     0.86630   0.03548   0.60199   0.00000  Uiso   1.00
H643   H     0.96452   0.13370   0.39800   0.00000  Uiso   1.00
H644   H     0.53239   0.36692   0.60409   0.00000  Uiso   1.00
H645   H     0.86692   0.03239   0.39593   0.00000  Uiso   1.00
H646   H     0.90127   0.33307   0.87704   0.00000  Uiso   1.00
H647   H     0.63370   0.46451   0.60197   0.00000  Uiso   1.00
H648   H     0.78240   0.11693   0.89594   0.00000  Uiso   1.00
H649   H     0.71452   0.38370   0.10199   0.00000  Uiso   1.00
H650   H     0.88370   0.21454   0.89797   0.00000  Uiso   1.00
H651   H     0.61692   0.28239   0.10408   0.00000  Uiso   1.00
H652   H     0.71761   0.38307   0.89593   0.00000  Uiso   1.00
H653   H     0.78548   0.11630   0.10199   0.00000  Uiso   1.00
H654   H     0.61630   0.28547   0.89800   0.00000  Uiso   1.00
H655   H     0.88308   0.21761   0.10408   0.00000  Uiso   1.00
H656   H     0.84595   0.07592   0.12659   0.00000  Uiso   1.00
H657   H     0.65265   0.41879   0.87613   0.00000  Uiso   1.00
H658   H     0.92632   0.33200   0.13299   0.00000  Uiso   1.00
H659   H     0.59873   0.16692   0.87704   0.00000  Uiso   1.00
H660   H     0.66801   0.07368   0.86701   0.00000  Uiso   1.00
O661   O     0.75000  -0.00000   0.25000   0.00000  Uiso   1.00
O662   O     0.75000   0.46963   0.66245   0.00000  Uiso   1.00
O663   O     0.82600   0.40380   0.34195   0.00000  Uiso   1.00
O664   O     0.94934   0.36270   0.31836   0.00000  Uiso   1.00
O665   O     0.89895   0.35239   0.35507   0.00000  Uiso   1.00
O666   O     0.56426   0.12139   0.66637   0.00000  Uiso   1.00
O667   O     0.59620   0.17400   0.65805   0.00000  Uiso   1.00
O668   O     0.85563   0.05908   0.32590   0.00000  Uiso   1.00
O669   O     0.83790   0.11274   0.35281   0.00000  Uiso   1.00
O670   O     0.64047   0.44000   0.67274   0.00000  Uiso   1.00
O671   O     0.66775   0.38862   0.64999   0.00000  Uiso   1.00
O672   O     0.55066   0.13729   0.31836   0.00000  Uiso   1.00
O673   O     0.96963   0.25000   0.33755   0.00000  Uiso   1.00
O674   O     0.60105   0.14762   0.35507   0.00000  Uiso   1.00
O675   O     0.93574   0.37861   0.66637   0.00000  Uiso   1.00
O676   O     0.90380   0.32600   0.65804   0.00000  Uiso   1.00
O677   O     0.64440   0.44092   0.32590   0.00000  Uiso   1.00
O678   O     0.66206   0.38725   0.35283   0.00000  Uiso   1.00
O679   O     0.85943   0.05998   0.67277   0.00000  Uiso   1.00
O680   O     0.83236   0.11143   0.64993   0.00000  Uiso   1.00
O681   O     0.99396   0.32495   0.36688   0.00000  Uiso   1.00
O682   O     0.53356   0.34299   0.41360   0.00000  Uiso   1.00
O683   O     0.50965   0.17508   0.63331   0.00000  Uiso   1.00
O684   O     0.53036   0.25000   0.66245   0.00000  Uiso   1.00
O685   O     0.96864   0.15634   0.58829   0.00000  Uiso   1.00
O686   O     0.67508   0.00966   0.36669   0.00000  Uiso   1.00
O687   O     0.65634   0.46864   0.41171   0.00000  Uiso   1.00
O688   O     0.82494   0.49395   0.63312   0.00000  Uiso   1.00
O689   O     0.84299   0.03355   0.58640   0.00000  Uiso   1.00
O690   O     0.50605   0.17505   0.36688   0.00000  Uiso   1.00
O691   O     0.96645   0.15701   0.41360   0.00000  Uiso   1.00
O692   O     0.99034   0.32492   0.63331   0.00000  Uiso   1.00
O693   O     0.53135   0.34366   0.58830   0.00000  Uiso   1.00
O694   O     0.82492   0.49035   0.36669   0.00000  Uiso   1.00
O695   O     0.50000   0.21963   0.83755   0.00000  Uiso   1.00
O696   O     0.84366   0.03136   0.41171   0.00000  Uiso   1.00
O697   O     0.67505   0.00602   0.63312   0.00000  Uiso   1.00
O698   O     0.65701   0.46644   0.58639   0.00000  Uiso   1.00
O699   O     0.74037   0.07492   0.86669   0.00000  Uiso   1.00
O700   O     0.78137   0.09366   0.91172   0.00000  Uiso   1.00
O701   O     0.75604   0.42505   0.13312   0.00000  Uiso   1.00
O702   O     0.71644   0.40701   0.08640   0.00000  Uiso   1.00
O703   O     0.92506   0.25609   0.86689   0.00000  Uiso   1.00
O704   O     0.90701   0.21646   0.91357   0.00000  Uiso   1.00
O705   O     0.57492   0.24034   0.13331   0.00000  Uiso   1.00
O706   O     0.50000   0.28036   0.16245   0.00000  Uiso   1.00
O707   O     0.59366   0.28136   0.08829   0.00000  Uiso   1.00
O708   O     0.75965   0.42508   0.86669   0.00000  Uiso   1.00
O709   O     0.71864   0.40634   0.91171   0.00000  Uiso   1.00
O710   O     0.74396   0.07495   0.13312   0.00000  Uiso   1.00
O711   O     0.78355   0.09299   0.08640   0.00000  Uiso   1.00
O712   O     0.57494   0.24395   0.86688   0.00000  Uiso   1.00
O713   O     0.59299   0.28355   0.91360   0.00000  Uiso   1.00
O714   O     0.92508   0.25965   0.13331   0.00000  Uiso   1.00
O715   O     0.90634   0.21864   0.08829   0.00000  Uiso   1.00
O716   O     0.78036  -0.00000   0.83755   0.00000  Uiso   1.00
O717   O     0.71963  -0.00000   0.16245   0.00000  Uiso   1.00
O718   O     0.50000   0.28036   0.83755   0.00000  Uiso   1.00
O719   O     0.50000   0.21963   0.16245   0.00000  Uiso   1.00
O720   O     0.71963  -0.00000   0.83755   0.00000  Uiso   1.00
O721   O     0.75000  -0.00000   0.75000   0.00000  Uiso   1.00
O722   O     0.78036  -0.00000   0.16245   0.00000  Uiso   1.00
O723   O     0.70724   0.07307   0.27302   0.00000  Uiso   1.00
O724   O     0.79275   0.42692   0.72698   0.00000  Uiso   1.00
O725   O     0.92692   0.20724   0.27302   0.00000  Uiso   1.00
O726   O     0.57307   0.29275   0.72698   0.00000  Uiso   1.00
O727   O     0.79275   0.42692   0.27302   0.00000  Uiso   1.00
O728   O     0.70724   0.07307   0.72698   0.00000  Uiso   1.00
O729   O     0.57307   0.29275   0.27302   0.00000  Uiso   1.00
O730   O     0.92692   0.20724   0.72698   0.00000  Uiso   1.00
O731   O     0.70724   0.42692   0.72698   0.00000  Uiso   1.00
O732   O     0.50000   0.25000   0.25000   0.00000  Uiso   1.00
O733   O     0.79275   0.07307   0.27302   0.00000  Uiso   1.00
O734   O     0.92692   0.29275   0.72698   0.00000  Uiso   1.00
O735   O     0.57307   0.20724   0.27302   0.00000  Uiso   1.00
O736   O     0.79275   0.07307   0.72698   0.00000  Uiso   1.00
O737   O     0.70724   0.42692   0.27302   0.00000  Uiso   1.00
O738   O     0.57307   0.20724   0.72698   0.00000  Uiso   1.00
O739   O     0.92692   0.29275   0.27302   0.00000  Uiso   1.00
O740   O     0.95724   0.32307   0.77302   0.00000  Uiso   1.00
O741   O     0.54275   0.17692   0.22698   0.00000  Uiso   1.00
O742   O     0.67692   0.45724   0.77302   0.00000  Uiso   1.00
O743   O     0.50000   0.25000   0.75000   0.00000  Uiso   1.00
O744   O     0.82307   0.04275   0.22698   0.00000  Uiso   1.00
O745   O     0.54275   0.17692   0.77302   0.00000  Uiso   1.00
O746   O     0.95724   0.32307   0.22698   0.00000  Uiso   1.00
O747   O     0.82307   0.04275   0.77302   0.00000  Uiso   1.00
O748   O     0.67692   0.45724   0.22698   0.00000  Uiso   1.00
O749   O     0.95724   0.17692   0.22698   0.00000  Uiso   1.00
O750   O     0.54275   0.32307   0.77302   0.00000  Uiso   1.00
O751   O     0.67692   0.04275   0.22698   0.00000  Uiso   1.00
O752   O     0.82307   0.45724   0.77302   0.00000  Uiso   1.00
O753   O     0.54275   0.32307   0.22698   0.00000  Uiso   1.00
O754   O     0.75000   0.46963   0.33755   0.00000  Uiso   1.00
O755   O     0.95724   0.17692   0.77302   0.00000  Uiso   1.00
O756   O     0.82307   0.45724   0.22698   0.00000  Uiso   1.00
O757   O     0.67692   0.04275   0.77302   0.00000  Uiso   1.00
O758   O     0.69002   0.39054   0.17276   0.00000  Uiso   1.00
O759   O     0.63859   0.41768   0.14995   0.00000  Uiso   1.00
O760   O     0.80910   0.10575   0.82593   0.00000  Uiso   1.00
O761   O     0.86269   0.08773   0.85274   0.00000  Uiso   1.00
O762   O     0.62861   0.18573   0.16637   0.00000  Uiso   1.00
O763   O     0.57599   0.15380   0.15805   0.00000  Uiso   1.00
O764   O     0.88727   0.30066   0.81835   0.00000  Uiso   1.00
O765   O     0.75000   0.03036   0.66245   0.00000  Uiso   1.00
O766   O     0.89761   0.35104   0.85507   0.00000  Uiso   1.00
O767   O     0.80998   0.10946   0.17277   0.00000  Uiso   1.00
O768   O     0.86141   0.08233   0.14995   0.00000  Uiso   1.00
O769   O     0.69092   0.39437   0.82590   0.00000  Uiso   1.00
O770   O     0.63727   0.41210   0.85281   0.00000  Uiso   1.00
O771   O     0.87139   0.31425   0.16638   0.00000  Uiso   1.00
O772   O     0.92399   0.34621   0.15804   0.00000  Uiso   1.00
O773   O     0.61271   0.19934   0.81836   0.00000  Uiso   1.00
O774   O     0.60239   0.14895   0.85507   0.00000  Uiso   1.00
O775   O     0.68574   0.12862   0.83362   0.00000  Uiso   1.00
O776   O     0.53036   0.25000   0.33755   0.00000  Uiso   1.00
O777   O     0.65381   0.07600   0.84195   0.00000  Uiso   1.00
O778   O     0.80066   0.38730   0.18164   0.00000  Uiso   1.00
O779   O     0.85105   0.39761   0.14493   0.00000  Uiso   1.00
O780   O     0.60942   0.30997   0.82722   0.00000  Uiso   1.00
O781   O     0.58237   0.36142   0.85007   0.00000  Uiso   1.00
O782   O     0.89440   0.19092   0.17410   0.00000  Uiso   1.00
O783   O     0.91206   0.13725   0.14717   0.00000  Uiso   1.00
O784   O     0.81426   0.37138   0.83362   0.00000  Uiso   1.00
O785   O     0.84619   0.42400   0.84195   0.00000  Uiso   1.00
O786   O     0.69934   0.11270   0.18163   0.00000  Uiso   1.00
O787   O     0.96963   0.25000   0.66245   0.00000  Uiso   1.00
O788   O     0.64894   0.10238   0.14493   0.00000  Uiso   1.00
O789   O     0.89073   0.19006   0.82717   0.00000  Uiso   1.00
O790   O     0.91745   0.13851   0.85017   0.00000  Uiso   1.00
O791   O     0.60560   0.30908   0.17410   0.00000  Uiso   1.00
O792   O     0.58795   0.36275   0.14716   0.00000  Uiso   1.00
O793   O     0.94092   0.14438   0.67410   0.00000  Uiso   1.00
O794   O     0.88726   0.16209   0.64718   0.00000  Uiso   1.00
O795   O     0.55998   0.35946   0.32723   0.00000  Uiso   1.00
O796   O     0.61141   0.33233   0.35005   0.00000  Uiso   1.00
O797   O     0.86271   0.44934   0.68164   0.00000  Uiso   1.00
O798   O     0.75000   0.03036   0.33755   0.00000  Uiso   1.00
O799   O     0.85239   0.39895   0.64493   0.00000  Uiso   1.00
O800   O     0.62139   0.06427   0.33363   0.00000  Uiso   1.00
O801   O     0.67401   0.09620   0.34195   0.00000  Uiso   1.00
O802   O     0.55907   0.35554   0.67412   0.00000  Uiso   1.00
O803   O     0.61276   0.33803   0.64713   0.00000  Uiso   1.00
O804   O     0.94003   0.14058   0.32722   0.00000  Uiso   1.00
O805   O     0.88858   0.16763   0.35007   0.00000  Uiso   1.00
O806   O     0.63730   0.05066   0.68163   0.00000  Uiso   1.00
O807   O     0.64761   0.10106   0.64493   0.00000  Uiso   1.00
O808   O     0.87861   0.43574   0.33363   0.00000  Uiso   1.00
Zn809  Zn    0.70659  -0.00000   0.21735   0.00000  Uiso   1.00
Zn810  Zn    0.54340   0.25000   0.28265   0.00000  Uiso   1.00
Zn811  Zn    0.75000   0.45659   0.71735   0.00000  Uiso   1.00
Zn812  Zn    0.75000   0.04340   0.28265   0.00000  Uiso   1.00
Zn813  Zn    0.54340   0.25000   0.71735   0.00000  Uiso   1.00
Zn814  Zn    0.95659   0.25000   0.28265   0.00000  Uiso   1.00
Zn815  Zn    0.75000   0.04340   0.71735   0.00000  Uiso   1.00
Zn816  Zn    0.75000   0.45659   0.28265   0.00000  Uiso   1.00
Zn817  Zn    0.79340  -0.00000   0.78265   0.00000  Uiso   1.00
Zn818  Zn    0.50000   0.20659   0.21735   0.00000  Uiso   1.00
Zn819  Zn    0.50000   0.29340   0.78265   0.00000  Uiso   1.00
Zn820  Zn    0.79340  -0.00000   0.21735   0.00000  Uiso   1.00
Zn821  Zn    0.70659  -0.00000   0.78265   0.00000  Uiso   1.00
Zn822  Zn    0.50000   0.29340   0.21735   0.00000  Uiso   1.00
Zn823  Zn    0.50000   0.20659   0.78265   0.00000  Uiso   1.00
Zn824  Zn    0.95659   0.25000   0.71735   0.00000  Uiso   1.00
C825   C     0.00098   0.78344   0.41849   0.00000  Uiso   1.00
C826   C     0.24902   0.96656   0.08151   0.00000  Uiso   1.00
C827   C     0.21673   0.50308   0.54081   0.00000  Uiso   1.00
C828   C     0.49692   0.78327   0.45919   0.00000  Uiso   1.00
C829   C     0.00347   0.71670   0.54117   0.00000  Uiso   1.00
C830   C     0.21670   0.50348   0.45883   0.00000  Uiso   1.00
C831   C     0.28327   0.99692   0.54081   0.00000  Uiso   1.00
C832   C     0.25347   0.96670   0.95883   0.00000  Uiso   1.00
C833   C     0.24691   0.53327   0.04081   0.00000  Uiso   1.00
C834   C     0.03327   0.74691   0.95919   0.00000  Uiso   1.00
C835   C     0.46670   0.75347   0.04117   0.00000  Uiso   1.00
C836   C     0.24652   0.53329   0.95883   0.00000  Uiso   1.00
C837   C     0.46656   0.74903   0.91849   0.00000  Uiso   1.00
C838   C     0.25308   0.96673   0.04081   0.00000  Uiso   1.00
C839   C     0.46673   0.75309   0.95919   0.00000  Uiso   1.00
C840   C     0.03329   0.74652   0.04117   0.00000  Uiso   1.00
C841   C     0.09820   0.84800   0.24994   0.00000  Uiso   1.00
C842   C     0.40200   0.65180   0.74995   0.00000  Uiso   1.00
C843   C     0.15252   0.59868   0.25030   0.00000  Uiso   1.00
C844   C     0.34868   0.90252   0.75030   0.00000  Uiso   1.00
C845   C     0.40180   0.65200   0.24994   0.00000  Uiso   1.00
C846   C     0.09799   0.84821   0.74994   0.00000  Uiso   1.00
C847   C     0.34748   0.90132   0.25030   0.00000  Uiso   1.00
C848   C     0.03351   0.75007   0.08193   0.00000  Uiso   1.00
C849   C     0.15132   0.59748   0.75030   0.00000  Uiso   1.00
C850   C     0.09868   0.65252   0.74970   0.00000  Uiso   1.00
C851   C     0.40252   0.84868   0.24970   0.00000  Uiso   1.00
C852   C     0.15201   0.90179   0.75006   0.00000  Uiso   1.00
C853   C     0.34820   0.59800   0.25006   0.00000  Uiso   1.00
C854   C     0.40132   0.84748   0.74970   0.00000  Uiso   1.00
C855   C     0.09748   0.65132   0.24970   0.00000  Uiso   1.00
C856   C     0.34800   0.59820   0.75005   0.00000  Uiso   1.00
C857   C     0.15179   0.90200   0.25006   0.00000  Uiso   1.00
C858   C     0.00000   0.75000   0.47965   0.00000  Uiso   1.00
C859   C     0.24992   0.96649   0.91807   0.00000  Uiso   1.00
C860   C    -0.00000   0.75000   0.52073   0.00000  Uiso   1.00
C861   C     0.25000   0.50000   0.47927   0.00000  Uiso   1.00
C862   C     0.25000   0.50000   0.52035   0.00000  Uiso   1.00
C863   C     0.25000   0.50000   0.97927   0.00000  Uiso   1.00
C864   C     0.25000   0.50000   0.02035   0.00000  Uiso   1.00
C865   C    -0.00000   0.75000   0.97965   0.00000  Uiso   1.00
C866   C    -0.00000   0.75000   0.02073   0.00000  Uiso   1.00
C867   C     0.15792   0.89799   0.17783   0.00000  Uiso   1.00
C868   C     0.34207   0.60235   0.82249   0.00000  Uiso   1.00
C869   C     0.10754   0.66267   0.17868   0.00000  Uiso   1.00
C870   C     0.25098   0.53344   0.08151   0.00000  Uiso   1.00
C871   C     0.38952   0.83384   0.81996   0.00000  Uiso   1.00
C872   C     0.34208   0.60201   0.17783   0.00000  Uiso   1.00
C873   C     0.15793   0.89764   0.82250   0.00000  Uiso   1.00
C874   C     0.39246   0.83733   0.17869   0.00000  Uiso   1.00
C875   C     0.11047   0.66615   0.81997   0.00000  Uiso   1.00
C876   C     0.16268   0.60755   0.82131   0.00000  Uiso   1.00
C877   C     0.33385   0.88953   0.18003   0.00000  Uiso   1.00
C878   C     0.10202   0.84208   0.82217   0.00000  Uiso   1.00
C879   C     0.39764   0.65793   0.17750   0.00000  Uiso   1.00
C880   C     0.33733   0.89245   0.82131   0.00000  Uiso   1.00
C881   C     0.03344   0.75098   0.91849   0.00000  Uiso   1.00
C882   C     0.16615   0.61047   0.18003   0.00000  Uiso   1.00
C883   C     0.39798   0.65791   0.82218   0.00000  Uiso   1.00
C884   C     0.10236   0.84207   0.17750   0.00000  Uiso   1.00
C885   C     0.40793   0.64764   0.67750   0.00000  Uiso   1.00
C886   C     0.09208   0.85201   0.32216   0.00000  Uiso   1.00
C887   C     0.36047   0.91615   0.68003   0.00000  Uiso   1.00
C888   C     0.14246   0.58733   0.32132   0.00000  Uiso   1.00
C889   C     0.09207   0.85236   0.67749   0.00000  Uiso   1.00
C890   C     0.40792   0.64799   0.32217   0.00000  Uiso   1.00
C891   C     0.13953   0.58385   0.68003   0.00000  Uiso   1.00
C892   C     0.46649   0.74992   0.08193   0.00000  Uiso   1.00
C893   C     0.35754   0.91267   0.32132   0.00000  Uiso   1.00
C894   C     0.41615   0.86047   0.31997   0.00000  Uiso   1.00
C895   C     0.08733   0.64245   0.67868   0.00000  Uiso   1.00
C896   C     0.35236   0.59207   0.32250   0.00000  Uiso   1.00
C897   C     0.14799   0.90792   0.67784   0.00000  Uiso   1.00
C898   C     0.08385   0.63953   0.31997   0.00000  Uiso   1.00
C899   C     0.41267   0.85755   0.67868   0.00000  Uiso   1.00
C900   C     0.14764   0.90793   0.32250   0.00000  Uiso   1.00
C901   C     0.35201   0.59209   0.67783   0.00000  Uiso   1.00
C902   C     0.00882   0.81813   0.39767   0.00000  Uiso   1.00
C903   C     0.00000   0.75000   0.39820   0.00000  Uiso   1.00
C904   C     0.49352   0.68163   0.60313   0.00000  Uiso   1.00
C905   C     0.18163   0.99353   0.39687   0.00000  Uiso   1.00
C906   C     0.31813   0.50882   0.60233   0.00000  Uiso   1.00
C907   C     0.49118   0.68187   0.39767   0.00000  Uiso   1.00
C908   C     0.00647   0.81837   0.60313   0.00000  Uiso   1.00
C909   C     0.31837   0.50648   0.39687   0.00000  Uiso   1.00
C910   C     0.18187   0.99117   0.60232   0.00000  Uiso   1.00
C911   C     0.25648   0.56837   0.89687   0.00000  Uiso   1.00
C912   C     0.24118   0.93187   0.10233   0.00000  Uiso   1.00
C913   C     0.43187   0.74121   0.89767   0.00000  Uiso   1.00
C914   C    -0.00000   0.75000   0.60205   0.00000  Uiso   1.00
C915   C     0.06837   0.75647   0.10313   0.00000  Uiso   1.00
C916   C     0.24352   0.93163   0.89687   0.00000  Uiso   1.00
C917   C     0.25882   0.56813   0.10233   0.00000  Uiso   1.00
C918   C     0.06813   0.75881   0.89767   0.00000  Uiso   1.00
C919   C     0.43163   0.74353   0.10313   0.00000  Uiso   1.00
C920   C     0.25000   0.50000   0.39794   0.00000  Uiso   1.00
C921   C     0.49992   0.71649   0.58193   0.00000  Uiso   1.00
C922   C     0.25000   0.50000   0.60180   0.00000  Uiso   1.00
C923   C     0.25000   0.50000   0.89794   0.00000  Uiso   1.00
C924   C     0.25000   0.50000   0.10180   0.00000  Uiso   1.00
C925   C     0.00000   0.75000   0.89820   0.00000  Uiso   1.00
C926   C    -0.00000   0.75000   0.10206   0.00000  Uiso   1.00
C927   C     0.01132   0.68473   0.48001   0.00000  Uiso   1.00
C928   C     0.48840   0.81526   0.52020   0.00000  Uiso   1.00
C929   C     0.31526   0.98840   0.47980   0.00000  Uiso   1.00
C930   C     0.18473   0.51132   0.51998   0.00000  Uiso   1.00
C931   C     0.48868   0.81527   0.48002   0.00000  Uiso   1.00
C932   C     0.21649   0.99993   0.41807   0.00000  Uiso   1.00
C933   C     0.01160   0.68474   0.52020   0.00000  Uiso   1.00
C934   C     0.18474   0.51160   0.47980   0.00000  Uiso   1.00
C935   C     0.31527   0.98868   0.51998   0.00000  Uiso   1.00
C936   C     0.26160   0.93473   0.97980   0.00000  Uiso   1.00
C937   C     0.23868   0.56527   0.01999   0.00000  Uiso   1.00
C938   C     0.06526   0.73868   0.98002   0.00000  Uiso   1.00
C939   C     0.43474   0.76160   0.02020   0.00000  Uiso   1.00
C940   C     0.23840   0.56526   0.97980   0.00000  Uiso   1.00
C941   C     0.26131   0.93473   0.01998   0.00000  Uiso   1.00
C942   C     0.43473   0.76132   0.98002   0.00000  Uiso   1.00
C943   C     0.28344   0.50098   0.58151   0.00000  Uiso   1.00
C944   C     0.06526   0.73840   0.02020   0.00000  Uiso   1.00
C945   C     0.25000   0.50000   0.35569   0.00000  Uiso   1.00
C946   C     0.25000   0.50000   0.64422   0.00000  Uiso   1.00
C947   C     0.00000   0.75000   0.35578   0.00000  Uiso   1.00
C948   C    -0.00000   0.75000   0.64431   0.00000  Uiso   1.00
C949   C     0.00000   0.75000   0.85578   0.00000  Uiso   1.00
C950   C    -0.00000   0.75000   0.14431   0.00000  Uiso   1.00
C951   C     0.25000   0.50000   0.85569   0.00000  Uiso   1.00
C952   C     0.25000   0.50000   0.14422   0.00000  Uiso   1.00
C953   C     0.18001   0.56994   0.25024   0.00000  Uiso   1.00
C954   C     0.49902   0.71656   0.41849   0.00000  Uiso   1.00
C955   C     0.31994   0.93001   0.75024   0.00000  Uiso   1.00
C956   C     0.43002   0.68005   0.24999   0.00000  Uiso   1.00
C957   C     0.06995   0.81998   0.74999   0.00000  Uiso   1.00
C958   C     0.31999   0.93005   0.25024   0.00000  Uiso   1.00
C959   C     0.18005   0.56999   0.75024   0.00000  Uiso   1.00
C960   C     0.06998   0.81995   0.24999   0.00000  Uiso   1.00
C961   C     0.43005   0.68002   0.74999   0.00000  Uiso   1.00
C962   C     0.18005   0.93002   0.75001   0.00000  Uiso   1.00
C963   C     0.31998   0.56995   0.25001   0.00000  Uiso   1.00
C964   C     0.43005   0.81999   0.74976   0.00000  Uiso   1.00
C965   C     0.00007   0.78351   0.58193   0.00000  Uiso   1.00
C966   C     0.06999   0.68005   0.24976   0.00000  Uiso   1.00
C967   C     0.31995   0.56998   0.75001   0.00000  Uiso   1.00
C968   C     0.18002   0.93005   0.25001   0.00000  Uiso   1.00
C969   C     0.06994   0.68001   0.74976   0.00000  Uiso   1.00
C970   C     0.43001   0.81994   0.24976   0.00000  Uiso   1.00
C971   C     0.13988   0.88719   0.21451   0.00000  Uiso   1.00
C972   C     0.36000   0.61300   0.78559   0.00000  Uiso   1.00
C973   C     0.11611   0.64298   0.21505   0.00000  Uiso   1.00
C974   C     0.38300   0.85582   0.78452   0.00000  Uiso   1.00
C975   C     0.36012   0.61281   0.21451   0.00000  Uiso   1.00
C976   C     0.28351   0.50008   0.41807   0.00000  Uiso   1.00
C977   C     0.14001   0.88700   0.78560   0.00000  Uiso   1.00
C978   C     0.38389   0.85702   0.21505   0.00000  Uiso   1.00
C979   C     0.11700   0.64417   0.78452   0.00000  Uiso   1.00
C980   C     0.14298   0.61611   0.78495   0.00000  Uiso   1.00
C981   C     0.35583   0.88300   0.21548   0.00000  Uiso   1.00
C982   C     0.11281   0.86012   0.78549   0.00000  Uiso   1.00
C983   C     0.38700   0.64001   0.21440   0.00000  Uiso   1.00
C984   C     0.35701   0.88389   0.78495   0.00000  Uiso   1.00
C985   C     0.14417   0.61700   0.21548   0.00000  Uiso   1.00
C986   C     0.38719   0.63988   0.78549   0.00000  Uiso   1.00
C987   C     0.21656   0.99902   0.58151   0.00000  Uiso   1.00
C988   C     0.11300   0.85999   0.21440   0.00000  Uiso   1.00
C989   C     0.39000   0.63700   0.71440   0.00000  Uiso   1.00
C990   C     0.11012   0.86281   0.28549   0.00000  Uiso   1.00
C991   C     0.36700   0.89418   0.71548   0.00000  Uiso   1.00
C992   C     0.13389   0.60702   0.28495   0.00000  Uiso   1.00
C993   C     0.10999   0.86301   0.71440   0.00000  Uiso   1.00
C994   C     0.38988   0.63719   0.28549   0.00000  Uiso   1.00
C995   C     0.13300   0.60583   0.71548   0.00000  Uiso   1.00
C996   C     0.36611   0.89298   0.28495   0.00000  Uiso   1.00
C997   C     0.39417   0.86700   0.28452   0.00000  Uiso   1.00
C998   C     0.25008   0.53351   0.91807   0.00000  Uiso   1.00
C999   C     0.10702   0.63389   0.71505   0.00000  Uiso   1.00
C1000  C     0.36300   0.61000   0.28560   0.00000  Uiso   1.00
C1001  C     0.13719   0.88988   0.71451   0.00000  Uiso   1.00
C1002  C     0.10583   0.63300   0.28452   0.00000  Uiso   1.00
C1003  C     0.39298   0.86611   0.71505   0.00000  Uiso   1.00
C1004  C     0.13700   0.89001   0.28560   0.00000  Uiso   1.00
C1005  C     0.36281   0.61012   0.71451   0.00000  Uiso   1.00
C1006  C     0.00308   0.71673   0.45919   0.00000  Uiso   1.00
C1007  C     0.49652   0.78330   0.54117   0.00000  Uiso   1.00
C1008  C     0.28330   0.99653   0.45883   0.00000  Uiso   1.00
F1009  F     0.02193   0.65368   0.46181   0.00000  Uiso   1.00
F1010  F     0.22807   0.59632   0.03819   0.00000  Uiso   1.00
F1011  F     0.09631   0.72806   0.96181   0.00000  Uiso   1.00
F1012  F     0.40368   0.77251   0.03820   0.00000  Uiso   1.00
F1013  F     0.22749   0.59632   0.96180   0.00000  Uiso   1.00
F1014  F     0.27193   0.90368   0.03819   0.00000  Uiso   1.00
F1015  F     0.40368   0.77193   0.96181   0.00000  Uiso   1.00
F1016  F     0.09631   0.72748   0.03820   0.00000  Uiso   1.00
F1017  F     0.47749   0.84632   0.53819   0.00000  Uiso   1.00
F1018  F     0.34632   0.97749   0.46180   0.00000  Uiso   1.00
F1019  F     0.15368   0.52193   0.53819   0.00000  Uiso   1.00
F1020  F     0.47807   0.84632   0.46181   0.00000  Uiso   1.00
F1021  F     0.02251   0.65368   0.53819   0.00000  Uiso   1.00
F1022  F     0.15368   0.52251   0.46180   0.00000  Uiso   1.00
F1023  F     0.34632   0.97807   0.53819   0.00000  Uiso   1.00
F1024  F     0.27251   0.90368   0.96180   0.00000  Uiso   1.00
H1025  H     0.15405   0.92409   0.12660   0.00000  Uiso   1.00
H1026  H     0.33308   0.90127   0.12296   0.00000  Uiso   1.00
H1027  H     0.07596   0.84597   0.87343   0.00000  Uiso   1.00
H1028  H     0.41876   0.65264   0.12385   0.00000  Uiso   1.00
H1029  H     0.33200   0.92632   0.86701   0.00000  Uiso   1.00
H1030  H     0.16691   0.59872   0.12296   0.00000  Uiso   1.00
H1031  H     0.42388   0.65396   0.87352   0.00000  Uiso   1.00
H1032  H     0.08125   0.84737   0.12385   0.00000  Uiso   1.00
H1033  H     0.40264   0.66879   0.62386   0.00000  Uiso   1.00
H1034  H     0.09596   0.82592   0.37341   0.00000  Uiso   1.00
H1035  H     0.34873   0.91692   0.62296   0.00000  Uiso   1.00
H1036  H     0.34730   0.58105   0.87605   0.00000  Uiso   1.00
H1037  H     0.17633   0.58200   0.36701   0.00000  Uiso   1.00
H1038  H     0.09738   0.83132   0.62381   0.00000  Uiso   1.00
H1039  H     0.40403   0.67404   0.37343   0.00000  Uiso   1.00
H1040  H     0.15128   0.58309   0.62296   0.00000  Uiso   1.00
H1041  H     0.32367   0.91800   0.36701   0.00000  Uiso   1.00
H1042  H     0.41692   0.84872   0.37704   0.00000  Uiso   1.00
H1043  H     0.08200   0.67633   0.63299   0.00000  Uiso   1.00
H1044  H     0.33120   0.59735   0.37613   0.00000  Uiso   1.00
H1045  H     0.17415   0.90408   0.62664   0.00000  Uiso   1.00
H1046  H     0.08308   0.65128   0.37704   0.00000  Uiso   1.00
H1047  H     0.07367   0.66800   0.13299   0.00000  Uiso   1.00
H1048  H     0.41800   0.82368   0.63299   0.00000  Uiso   1.00
H1049  H     0.16876   0.90264   0.37615   0.00000  Uiso   1.00
H1050  H     0.32595   0.59597   0.62657   0.00000  Uiso   1.00
H1051  H     0.03548   0.86630   0.39801   0.00000  Uiso   1.00
H1052  H     0.46760   0.63308   0.60407   0.00000  Uiso   1.00
H1053  H     0.13308   0.96761   0.39592   0.00000  Uiso   1.00
H1054  H     0.36630   0.53548   0.60199   0.00000  Uiso   1.00
H1055  H     0.46452   0.63370   0.39800   0.00000  Uiso   1.00
H1056  H     0.03239   0.86692   0.60409   0.00000  Uiso   1.00
H1057  H     0.36692   0.53239   0.39593   0.00000  Uiso   1.00
H1058  H     0.40127   0.83307   0.87704   0.00000  Uiso   1.00
H1059  H     0.13370   0.96451   0.60197   0.00000  Uiso   1.00
H1060  H     0.28240   0.61693   0.89594   0.00000  Uiso   1.00
H1061  H     0.21452   0.88370   0.10199   0.00000  Uiso   1.00
H1062  H     0.38370   0.71454   0.89797   0.00000  Uiso   1.00
H1063  H     0.11692   0.78239   0.10408   0.00000  Uiso   1.00
H1064  H     0.21761   0.88307   0.89593   0.00000  Uiso   1.00
H1065  H     0.28548   0.61630   0.10199   0.00000  Uiso   1.00
H1066  H     0.11630   0.78547   0.89800   0.00000  Uiso   1.00
H1067  H     0.38308   0.71761   0.10408   0.00000  Uiso   1.00
H1068  H     0.34595   0.57592   0.12659   0.00000  Uiso   1.00
H1069  H     0.15265   0.91879   0.87613   0.00000  Uiso   1.00
H1070  H     0.42632   0.83200   0.13299   0.00000  Uiso   1.00
H1071  H     0.09873   0.66692   0.87704   0.00000  Uiso   1.00
H1072  H     0.16801   0.57368   0.86701   0.00000  Uiso   1.00
O1073  O     0.25000   0.50000   0.25000   0.00000  Uiso   1.00
O1074  O     0.25000   0.96963   0.66245   0.00000  Uiso   1.00
O1075  O     0.32600   0.90380   0.34195   0.00000  Uiso   1.00
O1076  O     0.44934   0.86270   0.31836   0.00000  Uiso   1.00
O1077  O     0.39895   0.85239   0.35507   0.00000  Uiso   1.00
O1078  O     0.06426   0.62139   0.66637   0.00000  Uiso   1.00
O1079  O     0.09620   0.67400   0.65805   0.00000  Uiso   1.00
O1080  O     0.35563   0.55908   0.32590   0.00000  Uiso   1.00
O1081  O     0.33790   0.61274   0.35281   0.00000  Uiso   1.00
O1082  O     0.14047   0.94000   0.67274   0.00000  Uiso   1.00
O1083  O     0.16775   0.88862   0.64999   0.00000  Uiso   1.00
O1084  O     0.05066   0.63729   0.31836   0.00000  Uiso   1.00
O1085  O     0.46963   0.75000   0.33755   0.00000  Uiso   1.00
O1086  O     0.10105   0.64762   0.35507   0.00000  Uiso   1.00
O1087  O     0.43574   0.87861   0.66637   0.00000  Uiso   1.00
O1088  O     0.40380   0.82600   0.65804   0.00000  Uiso   1.00
O1089  O     0.14440   0.94092   0.32590   0.00000  Uiso   1.00
O1090  O     0.16206   0.88725   0.35283   0.00000  Uiso   1.00
O1091  O     0.35943   0.55998   0.67277   0.00000  Uiso   1.00
O1092  O     0.33236   0.61143   0.64993   0.00000  Uiso   1.00
O1093  O     0.49396   0.82495   0.36688   0.00000  Uiso   1.00
O1094  O     0.03356   0.84299   0.41360   0.00000  Uiso   1.00
O1095  O     0.00965   0.67508   0.63331   0.00000  Uiso   1.00
O1096  O     0.03036   0.75000   0.66245   0.00000  Uiso   1.00
O1097  O     0.46864   0.65634   0.58829   0.00000  Uiso   1.00
O1098  O     0.17508   0.50966   0.36669   0.00000  Uiso   1.00
O1099  O     0.15634   0.96864   0.41171   0.00000  Uiso   1.00
O1100  O     0.32494   0.99395   0.63312   0.00000  Uiso   1.00
O1101  O     0.34299   0.53355   0.58640   0.00000  Uiso   1.00
O1102  O     0.00605   0.67505   0.36688   0.00000  Uiso   1.00
O1103  O     0.46645   0.65701   0.41360   0.00000  Uiso   1.00
O1104  O     0.49034   0.82492   0.63331   0.00000  Uiso   1.00
O1105  O     0.03135   0.84366   0.58830   0.00000  Uiso   1.00
O1106  O     0.32492   0.99035   0.36669   0.00000  Uiso   1.00
O1107  O    -0.00000   0.71963   0.83755   0.00000  Uiso   1.00
O1108  O     0.34366   0.53136   0.41171   0.00000  Uiso   1.00
O1109  O     0.17505   0.50602   0.63312   0.00000  Uiso   1.00
O1110  O     0.15701   0.96644   0.58639   0.00000  Uiso   1.00
O1111  O     0.24037   0.57492   0.86669   0.00000  Uiso   1.00
O1112  O     0.28137   0.59366   0.91172   0.00000  Uiso   1.00
O1113  O     0.25604   0.92505   0.13312   0.00000  Uiso   1.00
O1114  O     0.21644   0.90701   0.08640   0.00000  Uiso   1.00
O1115  O     0.42506   0.75609   0.86689   0.00000  Uiso   1.00
O1116  O     0.40701   0.71646   0.91357   0.00000  Uiso   1.00
O1117  O     0.07492   0.74034   0.13331   0.00000  Uiso   1.00
O1118  O     0.00000   0.78036   0.16245   0.00000  Uiso   1.00
O1119  O     0.09366   0.78136   0.08829   0.00000  Uiso   1.00
O1120  O     0.25965   0.92508   0.86669   0.00000  Uiso   1.00
O1121  O     0.21864   0.90634   0.91171   0.00000  Uiso   1.00
O1122  O     0.24396   0.57495   0.13312   0.00000  Uiso   1.00
O1123  O     0.28355   0.59299   0.08640   0.00000  Uiso   1.00
O1124  O     0.07494   0.74395   0.86688   0.00000  Uiso   1.00
O1125  O     0.09299   0.78355   0.91360   0.00000  Uiso   1.00
O1126  O     0.42508   0.75965   0.13331   0.00000  Uiso   1.00
O1127  O     0.40634   0.71864   0.08829   0.00000  Uiso   1.00
O1128  O     0.28036   0.50000   0.83755   0.00000  Uiso   1.00
O1129  O     0.21963   0.50000   0.16245   0.00000  Uiso   1.00
O1130  O    -0.00000   0.78036   0.83755   0.00000  Uiso   1.00
O1131  O     0.00000   0.71963   0.16245   0.00000  Uiso   1.00
O1132  O     0.21963   0.50000   0.83755   0.00000  Uiso   1.00
O1133  O     0.25000   0.50000   0.75000   0.00000  Uiso   1.00
O1134  O     0.28036   0.50000   0.16245   0.00000  Uiso   1.00
O1135  O     0.20724   0.57307   0.27302   0.00000  Uiso   1.00
O1136  O     0.29275   0.92692   0.72698   0.00000  Uiso   1.00
O1137  O     0.42692   0.70724   0.27302   0.00000  Uiso   1.00
O1138  O     0.07307   0.79275   0.72698   0.00000  Uiso   1.00
O1139  O     0.29275   0.92692   0.27302   0.00000  Uiso   1.00
O1140  O     0.20724   0.57307   0.72698   0.00000  Uiso   1.00
O1141  O     0.07307   0.79275   0.27302   0.00000  Uiso   1.00
O1142  O     0.42692   0.70724   0.72698   0.00000  Uiso   1.00
O1143  O     0.20724   0.92692   0.72698   0.00000  Uiso   1.00
O1144  O    -0.00000   0.75000   0.25000   0.00000  Uiso   1.00
O1145  O     0.29275   0.57307   0.27302   0.00000  Uiso   1.00
O1146  O     0.42692   0.79275   0.72698   0.00000  Uiso   1.00
O1147  O     0.07307   0.70724   0.27302   0.00000  Uiso   1.00
O1148  O     0.29275   0.57307   0.72698   0.00000  Uiso   1.00
O1149  O     0.20724   0.92692   0.27302   0.00000  Uiso   1.00
O1150  O     0.07307   0.70724   0.72698   0.00000  Uiso   1.00
O1151  O     0.42692   0.79275   0.27302   0.00000  Uiso   1.00
O1152  O     0.45724   0.82307   0.77302   0.00000  Uiso   1.00
O1153  O     0.04275   0.67692   0.22698   0.00000  Uiso   1.00
O1154  O     0.17692   0.95724   0.77302   0.00000  Uiso   1.00
O1155  O     0.00000   0.75000   0.75000   0.00000  Uiso   1.00
O1156  O     0.32307   0.54275   0.22698   0.00000  Uiso   1.00
O1157  O     0.04275   0.67692   0.77302   0.00000  Uiso   1.00
O1158  O     0.45724   0.82307   0.22698   0.00000  Uiso   1.00
O1159  O     0.32307   0.54275   0.77302   0.00000  Uiso   1.00
O1160  O     0.17692   0.95724   0.22698   0.00000  Uiso   1.00
O1161  O     0.45724   0.67692   0.22698   0.00000  Uiso   1.00
O1162  O     0.04275   0.82307   0.77302   0.00000  Uiso   1.00
O1163  O     0.17692   0.54275   0.22698   0.00000  Uiso   1.00
O1164  O     0.32307   0.95724   0.77302   0.00000  Uiso   1.00
O1165  O     0.04275   0.82307   0.22698   0.00000  Uiso   1.00
O1166  O     0.25000   0.96963   0.33755   0.00000  Uiso   1.00
O1167  O     0.45724   0.67692   0.77302   0.00000  Uiso   1.00
O1168  O     0.32307   0.95724   0.22698   0.00000  Uiso   1.00
O1169  O     0.17692   0.54275   0.77302   0.00000  Uiso   1.00
O1170  O     0.19002   0.89054   0.17276   0.00000  Uiso   1.00
O1171  O     0.13859   0.91768   0.14995   0.00000  Uiso   1.00
O1172  O     0.30910   0.60575   0.82593   0.00000  Uiso   1.00
O1173  O     0.36269   0.58773   0.85274   0.00000  Uiso   1.00
O1174  O     0.12861   0.68573   0.16637   0.00000  Uiso   1.00
O1175  O     0.07599   0.65380   0.15805   0.00000  Uiso   1.00
O1176  O     0.38727   0.80066   0.81835   0.00000  Uiso   1.00
O1177  O     0.25000   0.53036   0.66245   0.00000  Uiso   1.00
O1178  O     0.39761   0.85104   0.85507   0.00000  Uiso   1.00
O1179  O     0.30998   0.60946   0.17277   0.00000  Uiso   1.00
O1180  O     0.36141   0.58233   0.14995   0.00000  Uiso   1.00
O1181  O     0.19092   0.89437   0.82590   0.00000  Uiso   1.00
O1182  O     0.13727   0.91210   0.85281   0.00000  Uiso   1.00
O1183  O     0.37139   0.81425   0.16638   0.00000  Uiso   1.00
O1184  O     0.42399   0.84621   0.15804   0.00000  Uiso   1.00
O1185  O     0.11271   0.69934   0.81836   0.00000  Uiso   1.00
O1186  O     0.10239   0.64895   0.85507   0.00000  Uiso   1.00
O1187  O     0.18574   0.62862   0.83362   0.00000  Uiso   1.00
O1188  O     0.03036   0.75000   0.33755   0.00000  Uiso   1.00
O1189  O     0.15381   0.57600   0.84195   0.00000  Uiso   1.00
O1190  O     0.30066   0.88730   0.18164   0.00000  Uiso   1.00
O1191  O     0.35105   0.89761   0.14493   0.00000  Uiso   1.00
O1192  O     0.10942   0.80997   0.82722   0.00000  Uiso   1.00
O1193  O     0.08237   0.86142   0.85007   0.00000  Uiso   1.00
O1194  O     0.39440   0.69092   0.17410   0.00000  Uiso   1.00
O1195  O     0.41206   0.63725   0.14717   0.00000  Uiso   1.00
O1196  O     0.31426   0.87138   0.83362   0.00000  Uiso   1.00
O1197  O     0.34619   0.92400   0.84195   0.00000  Uiso   1.00
O1198  O     0.19934   0.61270   0.18163   0.00000  Uiso   1.00
O1199  O     0.46963   0.75000   0.66245   0.00000  Uiso   1.00
O1200  O     0.14894   0.60238   0.14493   0.00000  Uiso   1.00
O1201  O     0.39073   0.69006   0.82717   0.00000  Uiso   1.00
O1202  O     0.41745   0.63851   0.85017   0.00000  Uiso   1.00
O1203  O     0.10560   0.80908   0.17410   0.00000  Uiso   1.00
O1204  O     0.08795   0.86275   0.14716   0.00000  Uiso   1.00
O1205  O     0.44092   0.64438   0.67410   0.00000  Uiso   1.00
O1206  O     0.38726   0.66209   0.64718   0.00000  Uiso   1.00
O1207  O     0.05998   0.85946   0.32723   0.00000  Uiso   1.00
O1208  O     0.11141   0.83233   0.35005   0.00000  Uiso   1.00
O1209  O     0.36271   0.94934   0.68164   0.00000  Uiso   1.00
O1210  O     0.25000   0.53036   0.33755   0.00000  Uiso   1.00
O1211  O     0.35239   0.89895   0.64493   0.00000  Uiso   1.00
O1212  O     0.12139   0.56427   0.33363   0.00000  Uiso   1.00
O1213  O     0.17401   0.59620   0.34195   0.00000  Uiso   1.00
O1214  O     0.05907   0.85554   0.67412   0.00000  Uiso   1.00
O1215  O     0.11276   0.83803   0.64713   0.00000  Uiso   1.00
O1216  O     0.44003   0.64058   0.32722   0.00000  Uiso   1.00
O1217  O     0.38858   0.66763   0.35007   0.00000  Uiso   1.00
O1218  O     0.13730   0.55066   0.68163   0.00000  Uiso   1.00
O1219  O     0.14761   0.60106   0.64493   0.00000  Uiso   1.00
O1220  O     0.37861   0.93574   0.33363   0.00000  Uiso   1.00
Zn1221 Zn    0.20659   0.50000   0.21735   0.00000  Uiso   1.00
Zn1222 Zn    0.04340   0.75000   0.28265   0.00000  Uiso   1.00
Zn1223 Zn    0.25000   0.95659   0.71735   0.00000  Uiso   1.00
Zn1224 Zn    0.25000   0.54340   0.28265   0.00000  Uiso   1.00
Zn1225 Zn    0.04340   0.75000   0.71735   0.00000  Uiso   1.00
Zn1226 Zn    0.45659   0.75000   0.28265   0.00000  Uiso   1.00
Zn1227 Zn    0.25000   0.54340   0.71735   0.00000  Uiso   1.00
Zn1228 Zn    0.25000   0.95659   0.28265   0.00000  Uiso   1.00
Zn1229 Zn    0.29340   0.50000   0.78265   0.00000  Uiso   1.00
Zn1230 Zn    0.00000   0.70659   0.21735   0.00000  Uiso   1.00
Zn1231 Zn    0.00000   0.79340   0.78265   0.00000  Uiso   1.00
Zn1232 Zn    0.29340   0.50000   0.21735   0.00000  Uiso   1.00
Zn1233 Zn    0.20659   0.50000   0.78265   0.00000  Uiso   1.00
Zn1234 Zn    0.00000   0.79340   0.21735   0.00000  Uiso   1.00
Zn1235 Zn    0.00000   0.70659   0.78265   0.00000  Uiso   1.00
Zn1236 Zn    0.45659   0.75000   0.71735   0.00000  Uiso   1.00
C1237  C     0.50098   0.78344   0.41849   0.00000  Uiso   1.00
C1238  C     0.74902   0.96656   0.08151   0.00000  Uiso   1.00
C1239  C     0.71673   0.50308   0.54081   0.00000  Uiso   1.00
C1240  C     0.99692   0.78327   0.45919   0.00000  Uiso   1.00
C1241  C     0.50347   0.71670   0.54117   0.00000  Uiso   1.00
C1242  C     0.71670   0.50348   0.45883   0.00000  Uiso   1.00
C1243  C     0.78327   0.99692   0.54081   0.00000  Uiso   1.00
C1244  C     0.75347   0.96670   0.95883   0.00000  Uiso   1.00
C1245  C     0.74691   0.53327   0.04081   0.00000  Uiso   1.00
C1246  C     0.53327   0.74691   0.95919   0.00000  Uiso   1.00
C1247  C     0.96670   0.75347   0.04117   0.00000  Uiso   1.00
C1248  C     0.74652   0.53329   0.95883   0.00000  Uiso   1.00
C1249  C     0.96656   0.74903   0.91849   0.00000  Uiso   1.00
C1250  C     0.75308   0.96673   0.04081   0.00000  Uiso   1.00
C1251  C     0.96673   0.75309   0.95919   0.00000  Uiso   1.00
C1252  C     0.53329   0.74652   0.04117   0.00000  Uiso   1.00
C1253  C     0.59820   0.84800   0.24994   0.00000  Uiso   1.00
C1254  C     0.90200   0.65180   0.74995   0.00000  Uiso   1.00
C1255  C     0.65252   0.59868   0.25030   0.00000  Uiso   1.00
C1256  C     0.84868   0.90252   0.75030   0.00000  Uiso   1.00
C1257  C     0.90180   0.65200   0.24994   0.00000  Uiso   1.00
C1258  C     0.59799   0.84821   0.74994   0.00000  Uiso   1.00
C1259  C     0.84748   0.90132   0.25030   0.00000  Uiso   1.00
C1260  C     0.53351   0.75007   0.08193   0.00000  Uiso   1.00
C1261  C     0.65132   0.59748   0.75030   0.00000  Uiso   1.00
C1262  C     0.59868   0.65252   0.74970   0.00000  Uiso   1.00
C1263  C     0.90252   0.84868   0.24970   0.00000  Uiso   1.00
C1264  C     0.65201   0.90179   0.75006   0.00000  Uiso   1.00
C1265  C     0.84820   0.59800   0.25006   0.00000  Uiso   1.00
C1266  C     0.90132   0.84748   0.74970   0.00000  Uiso   1.00
C1267  C     0.59748   0.65132   0.24970   0.00000  Uiso   1.00
C1268  C     0.84800   0.59820   0.75005   0.00000  Uiso   1.00
C1269  C     0.65179   0.90200   0.25006   0.00000  Uiso   1.00
C1270  C     0.50000   0.75000   0.47965   0.00000  Uiso   1.00
C1271  C     0.74992   0.96649   0.91807   0.00000  Uiso   1.00
C1272  C     0.50000   0.75000   0.52073   0.00000  Uiso   1.00
C1273  C     0.75000   0.50000   0.47927   0.00000  Uiso   1.00
C1274  C     0.75000   0.50000   0.52035   0.00000  Uiso   1.00
C1275  C     0.75000   0.50000   0.97927   0.00000  Uiso   1.00
C1276  C     0.75000   0.50000   0.02035   0.00000  Uiso   1.00
C1277  C     0.50000   0.75000   0.97965   0.00000  Uiso   1.00
C1278  C     0.50000   0.75000   0.02073   0.00000  Uiso   1.00
C1279  C     0.65792   0.89799   0.17783   0.00000  Uiso   1.00
C1280  C     0.84207   0.60235   0.82249   0.00000  Uiso   1.00
C1281  C     0.60754   0.66267   0.17868   0.00000  Uiso   1.00
C1282  C     0.75098   0.53344   0.08151   0.00000  Uiso   1.00
C1283  C     0.88952   0.83384   0.81996   0.00000  Uiso   1.00
C1284  C     0.84208   0.60201   0.17783   0.00000  Uiso   1.00
C1285  C     0.65793   0.89764   0.82250   0.00000  Uiso   1.00
C1286  C     0.89246   0.83733   0.17869   0.00000  Uiso   1.00
C1287  C     0.61047   0.66615   0.81997   0.00000  Uiso   1.00
C1288  C     0.66268   0.60755   0.82131   0.00000  Uiso   1.00
C1289  C     0.83385   0.88953   0.18003   0.00000  Uiso   1.00
C1290  C     0.60202   0.84208   0.82217   0.00000  Uiso   1.00
C1291  C     0.89764   0.65793   0.17750   0.00000  Uiso   1.00
C1292  C     0.83733   0.89245   0.82131   0.00000  Uiso   1.00
C1293  C     0.53344   0.75098   0.91849   0.00000  Uiso   1.00
C1294  C     0.66615   0.61047   0.18003   0.00000  Uiso   1.00
C1295  C     0.89798   0.65791   0.82218   0.00000  Uiso   1.00
C1296  C     0.60236   0.84207   0.17750   0.00000  Uiso   1.00
C1297  C     0.90793   0.64764   0.67750   0.00000  Uiso   1.00
C1298  C     0.59208   0.85201   0.32216   0.00000  Uiso   1.00
C1299  C     0.86047   0.91615   0.68003   0.00000  Uiso   1.00
C1300  C     0.64246   0.58733   0.32132   0.00000  Uiso   1.00
C1301  C     0.59207   0.85236   0.67749   0.00000  Uiso   1.00
C1302  C     0.90792   0.64799   0.32217   0.00000  Uiso   1.00
C1303  C     0.63953   0.58385   0.68003   0.00000  Uiso   1.00
C1304  C     0.96649   0.74992   0.08193   0.00000  Uiso   1.00
C1305  C     0.85754   0.91267   0.32132   0.00000  Uiso   1.00
C1306  C     0.91615   0.86047   0.31997   0.00000  Uiso   1.00
C1307  C     0.58733   0.64245   0.67868   0.00000  Uiso   1.00
C1308  C     0.85236   0.59207   0.32250   0.00000  Uiso   1.00
C1309  C     0.64799   0.90792   0.67784   0.00000  Uiso   1.00
C1310  C     0.58385   0.63953   0.31997   0.00000  Uiso   1.00
C1311  C     0.91267   0.85755   0.67868   0.00000  Uiso   1.00
C1312  C     0.64764   0.90793   0.32250   0.00000  Uiso   1.00
C1313  C     0.85201   0.59209   0.67783   0.00000  Uiso   1.00
C1314  C     0.50882   0.81813   0.39767   0.00000  Uiso   1.00
C1315  C     0.50000   0.75000   0.39820   0.00000  Uiso   1.00
C1316  C     0.99352   0.68163   0.60313   0.00000  Uiso   1.00
C1317  C     0.68163   0.99353   0.39687   0.00000  Uiso   1.00
C1318  C     0.81813   0.50882   0.60233   0.00000  Uiso   1.00
C1319  C     0.99118   0.68187   0.39767   0.00000  Uiso   1.00
C1320  C     0.50647   0.81837   0.60313   0.00000  Uiso   1.00
C1321  C     0.81837   0.50648   0.39687   0.00000  Uiso   1.00
C1322  C     0.68187   0.99117   0.60232   0.00000  Uiso   1.00
C1323  C     0.75648   0.56837   0.89687   0.00000  Uiso   1.00
C1324  C     0.74118   0.93187   0.10233   0.00000  Uiso   1.00
C1325  C     0.93187   0.74121   0.89767   0.00000  Uiso   1.00
C1326  C     0.50000   0.75000   0.60205   0.00000  Uiso   1.00
C1327  C     0.56837   0.75647   0.10313   0.00000  Uiso   1.00
C1328  C     0.74352   0.93163   0.89687   0.00000  Uiso   1.00
C1329  C     0.75882   0.56813   0.10233   0.00000  Uiso   1.00
C1330  C     0.56813   0.75881   0.89767   0.00000  Uiso   1.00
C1331  C     0.93163   0.74353   0.10313   0.00000  Uiso   1.00
C1332  C     0.75000   0.50000   0.39794   0.00000  Uiso   1.00
C1333  C     0.99992   0.71649   0.58193   0.00000  Uiso   1.00
C1334  C     0.75000   0.50000   0.60180   0.00000  Uiso   1.00
C1335  C     0.75000   0.50000   0.89794   0.00000  Uiso   1.00
C1336  C     0.75000   0.50000   0.10180   0.00000  Uiso   1.00
C1337  C     0.50000   0.75000   0.89820   0.00000  Uiso   1.00
C1338  C     0.50000   0.75000   0.10206   0.00000  Uiso   1.00
C1339  C     0.51132   0.68473   0.48001   0.00000  Uiso   1.00
C1340  C     0.98840   0.81526   0.52020   0.00000  Uiso   1.00
C1341  C     0.81526   0.98840   0.47980   0.00000  Uiso   1.00
C1342  C     0.68473   0.51132   0.51998   0.00000  Uiso   1.00
C1343  C     0.98868   0.81527   0.48002   0.00000  Uiso   1.00
C1344  C     0.71649   0.99993   0.41807   0.00000  Uiso   1.00
C1345  C     0.51160   0.68474   0.52020   0.00000  Uiso   1.00
C1346  C     0.68474   0.51160   0.47980   0.00000  Uiso   1.00
C1347  C     0.81527   0.98868   0.51998   0.00000  Uiso   1.00
C1348  C     0.76160   0.93473   0.97980   0.00000  Uiso   1.00
C1349  C     0.73868   0.56527   0.01999   0.00000  Uiso   1.00
C1350  C     0.56526   0.73868   0.98002   0.00000  Uiso   1.00
C1351  C     0.93474   0.76160   0.02020   0.00000  Uiso   1.00
C1352  C     0.73840   0.56526   0.97980   0.00000  Uiso   1.00
C1353  C     0.76131   0.93473   0.01998   0.00000  Uiso   1.00
C1354  C     0.93473   0.76132   0.98002   0.00000  Uiso   1.00
C1355  C     0.78344   0.50098   0.58151   0.00000  Uiso   1.00
C1356  C     0.56526   0.73840   0.02020   0.00000  Uiso   1.00
C1357  C     0.75000   0.50000   0.35569   0.00000  Uiso   1.00
C1358  C     0.75000   0.50000   0.64422   0.00000  Uiso   1.00
C1359  C     0.50000   0.75000   0.35578   0.00000  Uiso   1.00
C1360  C     0.50000   0.75000   0.64431   0.00000  Uiso   1.00
C1361  C     0.50000   0.75000   0.85578   0.00000  Uiso   1.00
C1362  C     0.50000   0.75000   0.14431   0.00000  Uiso   1.00
C1363  C     0.75000   0.50000   0.85569   0.00000  Uiso   1.00
C1364  C     0.75000   0.50000   0.14422   0.00000  Uiso   1.00
C1365  C     0.68001   0.56994   0.25024   0.00000  Uiso   1.00
C1366  C     0.99902   0.71656   0.41849   0.00000  Uiso   1.00
C1367  C     0.81994   0.93001   0.75024   0.00000  Uiso   1.00
C1368  C     0.93002   0.68005   0.24999   0.00000  Uiso   1.00
C1369  C     0.56995   0.81998   0.74999   0.00000  Uiso   1.00
C1370  C     0.81999   0.93005   0.25024   0.00000  Uiso   1.00
C1371  C     0.68005   0.56999   0.75024   0.00000  Uiso   1.00
C1372  C     0.56998   0.81995   0.24999   0.00000  Uiso   1.00
C1373  C     0.93005   0.68002   0.74999   0.00000  Uiso   1.00
C1374  C     0.68005   0.93002   0.75001   0.00000  Uiso   1.00
C1375  C     0.81998   0.56995   0.25001   0.00000  Uiso   1.00
C1376  C     0.93005   0.81999   0.74976   0.00000  Uiso   1.00
C1377  C     0.50007   0.78351   0.58193   0.00000  Uiso   1.00
C1378  C     0.56999   0.68005   0.24976   0.00000  Uiso   1.00
C1379  C     0.81995   0.56998   0.75001   0.00000  Uiso   1.00
C1380  C     0.68002   0.93005   0.25001   0.00000  Uiso   1.00
C1381  C     0.56994   0.68001   0.74976   0.00000  Uiso   1.00
C1382  C     0.93001   0.81994   0.24976   0.00000  Uiso   1.00
C1383  C     0.63988   0.88719   0.21451   0.00000  Uiso   1.00
C1384  C     0.86000   0.61300   0.78559   0.00000  Uiso   1.00
C1385  C     0.61611   0.64298   0.21505   0.00000  Uiso   1.00
C1386  C     0.88300   0.85582   0.78452   0.00000  Uiso   1.00
C1387  C     0.86012   0.61281   0.21451   0.00000  Uiso   1.00
C1388  C     0.78351   0.50008   0.41807   0.00000  Uiso   1.00
C1389  C     0.64001   0.88700   0.78560   0.00000  Uiso   1.00
C1390  C     0.88389   0.85702   0.21505   0.00000  Uiso   1.00
C1391  C     0.61700   0.64417   0.78452   0.00000  Uiso   1.00
C1392  C     0.64298   0.61611   0.78495   0.00000  Uiso   1.00
C1393  C     0.85583   0.88300   0.21548   0.00000  Uiso   1.00
C1394  C     0.61281   0.86012   0.78549   0.00000  Uiso   1.00
C1395  C     0.88700   0.64001   0.21440   0.00000  Uiso   1.00
C1396  C     0.85701   0.88389   0.78495   0.00000  Uiso   1.00
C1397  C     0.64417   0.61700   0.21548   0.00000  Uiso   1.00
C1398  C     0.88719   0.63988   0.78549   0.00000  Uiso   1.00
C1399  C     0.71656   0.99902   0.58151   0.00000  Uiso   1.00
C1400  C     0.61300   0.85999   0.21440   0.00000  Uiso   1.00
C1401  C     0.89000   0.63700   0.71440   0.00000  Uiso   1.00
C1402  C     0.61012   0.86281   0.28549   0.00000  Uiso   1.00
C1403  C     0.86700   0.89418   0.71548   0.00000  Uiso   1.00
C1404  C     0.63389   0.60702   0.28495   0.00000  Uiso   1.00
C1405  C     0.60999   0.86301   0.71440   0.00000  Uiso   1.00
C1406  C     0.88988   0.63719   0.28549   0.00000  Uiso   1.00
C1407  C     0.63300   0.60583   0.71548   0.00000  Uiso   1.00
C1408  C     0.86611   0.89298   0.28495   0.00000  Uiso   1.00
C1409  C     0.89417   0.86700   0.28452   0.00000  Uiso   1.00
C1410  C     0.75008   0.53351   0.91807   0.00000  Uiso   1.00
C1411  C     0.60702   0.63389   0.71505   0.00000  Uiso   1.00
C1412  C     0.86300   0.61000   0.28560   0.00000  Uiso   1.00
C1413  C     0.63719   0.88988   0.71451   0.00000  Uiso   1.00
C1414  C     0.60583   0.63300   0.28452   0.00000  Uiso   1.00
C1415  C     0.89298   0.86611   0.71505   0.00000  Uiso   1.00
C1416  C     0.63700   0.89001   0.28560   0.00000  Uiso   1.00
C1417  C     0.86281   0.61012   0.71451   0.00000  Uiso   1.00
C1418  C     0.50308   0.71673   0.45919   0.00000  Uiso   1.00
C1419  C     0.99652   0.78330   0.54117   0.00000  Uiso   1.00
C1420  C     0.78330   0.99653   0.45883   0.00000  Uiso   1.00
F1421  F     0.52193   0.65368   0.46181   0.00000  Uiso   1.00
F1422  F     0.72807   0.59632   0.03819   0.00000  Uiso   1.00
F1423  F     0.59631   0.72806   0.96181   0.00000  Uiso   1.00
F1424  F     0.90368   0.77251   0.03820   0.00000  Uiso   1.00
F1425  F     0.72749   0.59632   0.96180   0.00000  Uiso   1.00
F1426  F     0.77193   0.90368   0.03819   0.00000  Uiso   1.00
F1427  F     0.90368   0.77193   0.96181   0.00000  Uiso   1.00
F1428  F     0.59631   0.72748   0.03820   0.00000  Uiso   1.00
F1429  F     0.97749   0.84632   0.53819   0.00000  Uiso   1.00
F1430  F     0.84632   0.97749   0.46180   0.00000  Uiso   1.00
F1431  F     0.65368   0.52193   0.53819   0.00000  Uiso   1.00
F1432  F     0.97807   0.84632   0.46181   0.00000  Uiso   1.00
F1433  F     0.52251   0.65368   0.53819   0.00000  Uiso   1.00
F1434  F     0.65368   0.52251   0.46180   0.00000  Uiso   1.00
F1435  F     0.84632   0.97807   0.53819   0.00000  Uiso   1.00
F1436  F     0.77251   0.90368   0.96180   0.00000  Uiso   1.00
H1437  H     0.65405   0.92409   0.12660   0.00000  Uiso   1.00
H1438  H     0.83308   0.90127   0.12296   0.00000  Uiso   1.00
H1439  H     0.57596   0.84597   0.87343   0.00000  Uiso   1.00
H1440  H     0.91876   0.65264   0.12385   0.00000  Uiso   1.00
H1441  H     0.83200   0.92632   0.86701   0.00000  Uiso   1.00
H1442  H     0.66691   0.59872   0.12296   0.00000  Uiso   1.00
H1443  H     0.92388   0.65396   0.87352   0.00000  Uiso   1.00
H1444  H     0.58125   0.84737   0.12385   0.00000  Uiso   1.00
H1445  H     0.90264   0.66879   0.62386   0.00000  Uiso   1.00
H1446  H     0.59596   0.82592   0.37341   0.00000  Uiso   1.00
H1447  H     0.84873   0.91692   0.62296   0.00000  Uiso   1.00
H1448  H     0.84730   0.58105   0.87605   0.00000  Uiso   1.00
H1449  H     0.67633   0.58200   0.36701   0.00000  Uiso   1.00
H1450  H     0.59738   0.83132   0.62381   0.00000  Uiso   1.00
H1451  H     0.90403   0.67404   0.37343   0.00000  Uiso   1.00
H1452  H     0.65128   0.58309   0.62296   0.00000  Uiso   1.00
H1453  H     0.82367   0.91800   0.36701   0.00000  Uiso   1.00
H1454  H     0.91692   0.84872   0.37704   0.00000  Uiso   1.00
H1455  H     0.58200   0.67633   0.63299   0.00000  Uiso   1.00
H1456  H     0.83120   0.59735   0.37613   0.00000  Uiso   1.00
H1457  H     0.67415   0.90408   0.62664   0.00000  Uiso   1.00
H1458  H     0.58308   0.65128   0.37704   0.00000  Uiso   1.00
H1459  H     0.57367   0.66800   0.13299   0.00000  Uiso   1.00
H1460  H     0.91800   0.82368   0.63299   0.00000  Uiso   1.00
H1461  H     0.66876   0.90264   0.37615   0.00000  Uiso   1.00
H1462  H     0.82595   0.59597   0.62657   0.00000  Uiso   1.00
H1463  H     0.53548   0.86630   0.39801   0.00000  Uiso   1.00
H1464  H     0.96760   0.63308   0.60407   0.00000  Uiso   1.00
H1465  H     0.63308   0.96761   0.39592   0.00000  Uiso   1.00
H1466  H     0.86630   0.53548   0.60199   0.00000  Uiso   1.00
H1467  H     0.96452   0.63370   0.39800   0.00000  Uiso   1.00
H1468  H     0.53239   0.86692   0.60409   0.00000  Uiso   1.00
H1469  H     0.86692   0.53239   0.39593   0.00000  Uiso   1.00
H1470  H     0.90127   0.83307   0.87704   0.00000  Uiso   1.00
H1471  H     0.63370   0.96451   0.60197   0.00000  Uiso   1.00
H1472  H     0.78240   0.61693   0.89594   0.00000  Uiso   1.00
H1473  H     0.71452   0.88370   0.10199   0.00000  Uiso   1.00
H1474  H     0.88370   0.71454   0.89797   0.00000  Uiso   1.00
H1475  H     0.61692   0.78239   0.10408   0.00000  Uiso   1.00
H1476  H     0.71761   0.88307   0.89593   0.00000  Uiso   1.00
H1477  H     0.78548   0.61630   0.10199   0.00000  Uiso   1.00
H1478  H     0.61630   0.78547   0.89800   0.00000  Uiso   1.00
H1479  H     0.88308   0.71761   0.10408   0.00000  Uiso   1.00
H1480  H     0.84595   0.57592   0.12659   0.00000  Uiso   1.00
H1481  H     0.65265   0.91879   0.87613   0.00000  Uiso   1.00
H1482  H     0.92632   0.83200   0.13299   0.00000  Uiso   1.00
H1483  H     0.59873   0.66692   0.87704   0.00000  Uiso   1.00
H1484  H     0.66801   0.57368   0.86701   0.00000  Uiso   1.00
O1485  O     0.75000   0.50000   0.25000   0.00000  Uiso   1.00
O1486  O     0.75000   0.96963   0.66245   0.00000  Uiso   1.00
O1487  O     0.82600   0.90380   0.34195   0.00000  Uiso   1.00
O1488  O     0.94934   0.86270   0.31836   0.00000  Uiso   1.00
O1489  O     0.89895   0.85239   0.35507   0.00000  Uiso   1.00
O1490  O     0.56426   0.62139   0.66637   0.00000  Uiso   1.00
O1491  O     0.59620   0.67400   0.65805   0.00000  Uiso   1.00
O1492  O     0.85563   0.55908   0.32590   0.00000  Uiso   1.00
O1493  O     0.83790   0.61274   0.35281   0.00000  Uiso   1.00
O1494  O     0.64047   0.94000   0.67274   0.00000  Uiso   1.00
O1495  O     0.66775   0.88862   0.64999   0.00000  Uiso   1.00
O1496  O     0.55066   0.63729   0.31836   0.00000  Uiso   1.00
O1497  O     0.96963   0.75000   0.33755   0.00000  Uiso   1.00
O1498  O     0.60105   0.64762   0.35507   0.00000  Uiso   1.00
O1499  O     0.93574   0.87861   0.66637   0.00000  Uiso   1.00
O1500  O     0.90380   0.82600   0.65804   0.00000  Uiso   1.00
O1501  O     0.64440   0.94092   0.32590   0.00000  Uiso   1.00
O1502  O     0.66206   0.88725   0.35283   0.00000  Uiso   1.00
O1503  O     0.85943   0.55998   0.67277   0.00000  Uiso   1.00
O1504  O     0.83236   0.61143   0.64993   0.00000  Uiso   1.00
O1505  O     0.99396   0.82495   0.36688   0.00000  Uiso   1.00
O1506  O     0.53356   0.84299   0.41360   0.00000  Uiso   1.00
O1507  O     0.50965   0.67508   0.63331   0.00000  Uiso   1.00
O1508  O     0.53036   0.75000   0.66245   0.00000  Uiso   1.00
O1509  O     0.96864   0.65634   0.58829   0.00000  Uiso   1.00
O1510  O     0.67508   0.50966   0.36669   0.00000  Uiso   1.00
O1511  O     0.65634   0.96864   0.41171   0.00000  Uiso   1.00
O1512  O     0.82494   0.99395   0.63312   0.00000  Uiso   1.00
O1513  O     0.84299   0.53355   0.58640   0.00000  Uiso   1.00
O1514  O     0.50605   0.67505   0.36688   0.00000  Uiso   1.00
O1515  O     0.96645   0.65701   0.41360   0.00000  Uiso   1.00
O1516  O     0.99034   0.82492   0.63331   0.00000  Uiso   1.00
O1517  O     0.53135   0.84366   0.58830   0.00000  Uiso   1.00
O1518  O     0.82492   0.99035   0.36669   0.00000  Uiso   1.00
O1519  O     0.50000   0.71963   0.83755   0.00000  Uiso   1.00
O1520  O     0.84366   0.53136   0.41171   0.00000  Uiso   1.00
O1521  O     0.67505   0.50602   0.63312   0.00000  Uiso   1.00
O1522  O     0.65701   0.96644   0.58639   0.00000  Uiso   1.00
O1523  O     0.74037   0.57492   0.86669   0.00000  Uiso   1.00
O1524  O     0.78137   0.59366   0.91172   0.00000  Uiso   1.00
O1525  O     0.75604   0.92505   0.13312   0.00000  Uiso   1.00
O1526  O     0.71644   0.90701   0.08640   0.00000  Uiso   1.00
O1527  O     0.92506   0.75609   0.86689   0.00000  Uiso   1.00
O1528  O     0.90701   0.71646   0.91357   0.00000  Uiso   1.00
O1529  O     0.57492   0.74034   0.13331   0.00000  Uiso   1.00
O1530  O     0.50000   0.78036   0.16245   0.00000  Uiso   1.00
O1531  O     0.59366   0.78136   0.08829   0.00000  Uiso   1.00
O1532  O     0.75965   0.92508   0.86669   0.00000  Uiso   1.00
O1533  O     0.71864   0.90634   0.91171   0.00000  Uiso   1.00
O1534  O     0.74396   0.57495   0.13312   0.00000  Uiso   1.00
O1535  O     0.78355   0.59299   0.08640   0.00000  Uiso   1.00
O1536  O     0.57494   0.74395   0.86688   0.00000  Uiso   1.00
O1537  O     0.59299   0.78355   0.91360   0.00000  Uiso   1.00
O1538  O     0.92508   0.75965   0.13331   0.00000  Uiso   1.00
O1539  O     0.90634   0.71864   0.08829   0.00000  Uiso   1.00
O1540  O     0.78036   0.50000   0.83755   0.00000  Uiso   1.00
O1541  O     0.71963   0.50000   0.16245   0.00000  Uiso   1.00
O1542  O     0.50000   0.78036   0.83755   0.00000  Uiso   1.00
O1543  O     0.50000   0.71963   0.16245   0.00000  Uiso   1.00
O1544  O     0.71963   0.50000   0.83755   0.00000  Uiso   1.00
O1545  O     0.75000   0.50000   0.75000   0.00000  Uiso   1.00
O1546  O     0.78036   0.50000   0.16245   0.00000  Uiso   1.00
O1547  O     0.70724   0.57307   0.27302   0.00000  Uiso   1.00
O1548  O     0.79275   0.92692   0.72698   0.00000  Uiso   1.00
O1549  O     0.92692   0.70724   0.27302   0.00000  Uiso   1.00
O1550  O     0.57307   0.79275   0.72698   0.00000  Uiso   1.00
O1551  O     0.79275   0.92692   0.27302   0.00000  Uiso   1.00
O1552  O     0.70724   0.57307   0.72698   0.00000  Uiso   1.00
O1553  O     0.57307   0.79275   0.27302   0.00000  Uiso   1.00
O1554  O     0.92692   0.70724   0.72698   0.00000  Uiso   1.00
O1555  O     0.70724   0.92692   0.72698   0.00000  Uiso   1.00
O1556  O     0.50000   0.75000   0.25000   0.00000  Uiso   1.00
O1557  O     0.79275   0.57307   0.27302   0.00000  Uiso   1.00
O1558  O     0.92692   0.79275   0.72698   0.00000  Uiso   1.00
O1559  O     0.57307   0.70724   0.27302   0.00000  Uiso   1.00
O1560  O     0.79275   0.57307   0.72698   0.00000  Uiso   1.00
O1561  O     0.70724   0.92692   0.27302   0.00000  Uiso   1.00
O1562  O     0.57307   0.70724   0.72698   0.00000  Uiso   1.00
O1563  O     0.92692   0.79275   0.27302   0.00000  Uiso   1.00
O1564  O     0.95724   0.82307   0.77302   0.00000  Uiso   1.00
O1565  O     0.54275   0.67692   0.22698   0.00000  Uiso   1.00
O1566  O     0.67692   0.95724   0.77302   0.00000  Uiso   1.00
O1567  O     0.50000   0.75000   0.75000   0.00000  Uiso   1.00
O1568  O     0.82307   0.54275   0.22698   0.00000  Uiso   1.00
O1569  O     0.54275   0.67692   0.77302   0.00000  Uiso   1.00
O1570  O     0.95724   0.82307   0.22698   0.00000  Uiso   1.00
O1571  O     0.82307   0.54275   0.77302   0.00000  Uiso   1.00
O1572  O     0.67692   0.95724   0.22698   0.00000  Uiso   1.00
O1573  O     0.95724   0.67692   0.22698   0.00000  Uiso   1.00
O1574  O     0.54275   0.82307   0.77302   0.00000  Uiso   1.00
O1575  O     0.67692   0.54275   0.22698   0.00000  Uiso   1.00
O1576  O     0.82307   0.95724   0.77302   0.00000  Uiso   1.00
O1577  O     0.54275   0.82307   0.22698   0.00000  Uiso   1.00
O1578  O     0.75000   0.96963   0.33755   0.00000  Uiso   1.00
O1579  O     0.95724   0.67692   0.77302   0.00000  Uiso   1.00
O1580  O     0.82307   0.95724   0.22698   0.00000  Uiso   1.00
O1581  O     0.67692   0.54275   0.77302   0.00000  Uiso   1.00
O1582  O     0.69002   0.89054   0.17276   0.00000  Uiso   1.00
O1583  O     0.63859   0.91768   0.14995   0.00000  Uiso   1.00
O1584  O     0.80910   0.60575   0.82593   0.00000  Uiso   1.00
O1585  O     0.86269   0.58773   0.85274   0.00000  Uiso   1.00
O1586  O     0.62861   0.68573   0.16637   0.00000  Uiso   1.00
O1587  O     0.57599   0.65380   0.15805   0.00000  Uiso   1.00
O1588  O     0.88727   0.80066   0.81835   0.00000  Uiso   1.00
O1589  O     0.75000   0.53036   0.66245   0.00000  Uiso   1.00
O1590  O     0.89761   0.85104   0.85507   0.00000  Uiso   1.00
O1591  O     0.80998   0.60946   0.17277   0.00000  Uiso   1.00
O1592  O     0.86141   0.58233   0.14995   0.00000  Uiso   1.00
O1593  O     0.69092   0.89437   0.82590   0.00000  Uiso   1.00
O1594  O     0.63727   0.91210   0.85281   0.00000  Uiso   1.00
O1595  O     0.87139   0.81425   0.16638   0.00000  Uiso   1.00
O1596  O     0.92399   0.84621   0.15804   0.00000  Uiso   1.00
O1597  O     0.61271   0.69934   0.81836   0.00000  Uiso   1.00
O1598  O     0.60239   0.64895   0.85507   0.00000  Uiso   1.00
O1599  O     0.68574   0.62862   0.83362   0.00000  Uiso   1.00
O1600  O     0.53036   0.75000   0.33755   0.00000  Uiso   1.00
O1601  O     0.65381   0.57600   0.84195   0.00000  Uiso   1.00
O1602  O     0.80066   0.88730   0.18164   0.00000  Uiso   1.00
O1603  O     0.85105   0.89761   0.14493   0.00000  Uiso   1.00
O1604  O     0.60942   0.80997   0.82722   0.00000  Uiso   1.00
O1605  O     0.58237   0.86142   0.85007   0.00000  Uiso   1.00
O1606  O     0.89440   0.69092   0.17410   0.00000  Uiso   1.00
O1607  O     0.91206   0.63725   0.14717   0.00000  Uiso   1.00
O1608  O     0.81426   0.87138   0.83362   0.00000  Uiso   1.00
O1609  O     0.84619   0.92400   0.84195   0.00000  Uiso   1.00
O1610  O     0.69934   0.61270   0.18163   0.00000  Uiso   1.00
O1611  O     0.96963   0.75000   0.66245   0.00000  Uiso   1.00
O1612  O     0.64894   0.60238   0.14493   0.00000  Uiso   1.00
O1613  O     0.89073   0.69006   0.82717   0.00000  Uiso   1.00
O1614  O     0.91745   0.63851   0.85017   0.00000  Uiso   1.00
O1615  O     0.60560   0.80908   0.17410   0.00000  Uiso   1.00
O1616  O     0.58795   0.86275   0.14716   0.00000  Uiso   1.00
O1617  O     0.94092   0.64438   0.67410   0.00000  Uiso   1.00
O1618  O     0.88726   0.66209   0.64718   0.00000  Uiso   1.00
O1619  O     0.55998   0.85946   0.32723   0.00000  Uiso   1.00
O1620  O     0.61141   0.83233   0.35005   0.00000  Uiso   1.00
O1621  O     0.86271   0.94934   0.68164   0.00000  Uiso   1.00
O1622  O     0.75000   0.53036   0.33755   0.00000  Uiso   1.00
O1623  O     0.85239   0.89895   0.64493   0.00000  Uiso   1.00
O1624  O     0.62139   0.56427   0.33363   0.00000  Uiso   1.00
O1625  O     0.67401   0.59620   0.34195   0.00000  Uiso   1.00
O1626  O     0.55907   0.85554   0.67412   0.00000  Uiso   1.00
O1627  O     0.61276   0.83803   0.64713   0.00000  Uiso   1.00
O1628  O     0.94003   0.64058   0.32722   0.00000  Uiso   1.00
O1629  O     0.88858   0.66763   0.35007   0.00000  Uiso   1.00
O1630  O     0.63730   0.55066   0.68163   0.00000  Uiso   1.00
O1631  O     0.64761   0.60106   0.64493   0.00000  Uiso   1.00
O1632  O     0.87861   0.93574   0.33363   0.00000  Uiso   1.00
Zn1633 Zn    0.70659   0.50000   0.21735   0.00000  Uiso   1.00
Zn1634 Zn    0.54340   0.75000   0.28265   0.00000  Uiso   1.00
Zn1635 Zn    0.75000   0.95659   0.71735   0.00000  Uiso   1.00
Zn1636 Zn    0.75000   0.54340   0.28265   0.00000  Uiso   1.00
Zn1637 Zn    0.54340   0.75000   0.71735   0.00000  Uiso   1.00
Zn1638 Zn    0.95659   0.75000   0.28265   0.00000  Uiso   1.00
Zn1639 Zn    0.75000   0.54340   0.71735   0.00000  Uiso   1.00
Zn1640 Zn    0.75000   0.95659   0.28265   0.00000  Uiso   1.00
Zn1641 Zn    0.79340   0.50000   0.78265   0.00000  Uiso   1.00
Zn1642 Zn    0.50000   0.70659   0.21735   0.00000  Uiso   1.00
Zn1643 Zn    0.50000   0.79340   0.78265   0.00000  Uiso   1.00
Zn1644 Zn    0.79340   0.50000   0.21735   0.00000  Uiso   1.00
Zn1645 Zn    0.70659   0.50000   0.78265   0.00000  Uiso   1.00
Zn1646 Zn    0.50000   0.79340   0.21735   0.00000  Uiso   1.00
Zn1647 Zn    0.50000   0.70659   0.78265   0.00000  Uiso   1.00
Zn1648 Zn    0.95659   0.75000   0.71735   0.00000  Uiso   1.00
loop_
_geom_bond_atom_site_label_1
_geom_bond_atom_site_label_2
_geom_bond_distance
_geom_bond_site_symmetry_2
_ccdc_geom_bond_type
C1     C79     1.413   .     A
C1     C78     1.490   .     S
C1     C416    1.413   1_455 S
C2     C14     1.413   .     A
C2     C88     1.490   .     S
C2     C924    1.413   .     A
C3     C106    1.410   .     A
C3     C38     1.415   .     A
C3     C987    1.413   1_545 S
C4     C107    1.410   .     A
C4     C413    1.413   .     S
C4     C446    1.415   .     S
C5     C109    1.410   .     A
C5     C36     1.417   .     S
C5     C509    1.413   1_455 S
C6     C110    1.410   .     A
C6     C37     1.417   .     A
C6     C932    1.413   1_545 S
C7     C111    1.410   .     A
C7     C862    1.415   .     S
C7     C943    1.413   .     S
C8     C35     1.413   .     A
C8     C112    1.410   .     A
C8     C863    1.417   .     A
C9     C46     1.413   .     A
C9     C113    1.410   .     A
C9     C40     1.415   .     S
C10    C114    1.410   .     A
C10    C57     1.413   .     A
C10    C41     1.415   .     S
C11    C115    1.410   .     A
C11    C68     1.413   .     A
C11    C454    1.417   .     A
C12    C174    1.413   .     A
C12    C116    1.410   .     A
C12    C39     1.417   .     S
C13    C15     1.413   .     A
C13    C89     1.490   .     S
C13    C513    1.413   .     S
C14    C117    1.410   .     A
C14    C864    1.415   .     A
C15    C118    1.410   .     A
C15    C453    1.415   .     A
C16    C120    1.410   .     A
C16    C24     1.413   .     A
C16    C42     1.417   .     S
C17    C164    1.412   .     A
C17    C166    1.412   .     A
C17    C136    1.460   .     S
C18    C137    1.460   .     S
C18    C165    1.412   .     A
C18    C162    1.412   .     A
C19    C129    1.460   .     S
C19    C161    1.411   .     A
C19    C168    1.411   .     A
C20    C160    1.411   .     A
C20    C167    1.411   .     A
C20    C131    1.460   .     S
C21    C170    1.412   .     A
C21    C159    1.412   .     A
C21    C132    1.460   .     S
C22    C133    1.460   .     S
C22    C158    1.412   .     A
C22    C169    1.412   .     A
C23    C134    1.460   .     S
C23    C157    1.411   .     A
C23    C172    1.411   .     A
C24    C91     1.492   .     S
C24    C102    1.412   .     S
C25    C171    1.411   .     A
C25    C156    1.411   .     A
C25    C135    1.460   .     S
C26    C155    1.411   .     A
C26    C145    1.460   .     S
C26    C175    1.411   .     A
C27    C154    1.411   .     A
C27    C146    1.460   .     S
C27    C173    1.411   .     A
C28    C153    1.412   .     A
C28    C177    1.411   .     A
C28    C138    1.460   .     S
C29    C151    1.412   .     A
C29    C176    1.412   .     A
C29    C139    1.460   .     S
C30    C150    1.411   .     A
C30    C179    1.411   .     A
C30    C140    1.460   .     S
C31    C178    1.411   .     A
C31    C149    1.411   .     A
C31    C142    1.460   .     S
C32    C181    1.411   .     A
C32    C148    1.412   .     A
C32    C143    1.460   .     S
C33    C147    1.411   .     A
C33    C144    1.460   .     S
C33    C180    1.412   .     A
C34    C182    1.415   .     A
C34    C416    1.415   1_455 S
C34    C36     1.418   .     S
C35    C92     1.492   .     S
C35    C923    1.412   .     A
C36    C595    1.417   1_455 A
C37    C38     1.418   .     A
C37    C1008   1.417   1_545 S
C38    C831    1.415   1_545 S
C39    C832    1.417   1_545 A
C39    C40     1.418   1_556 S
C40    C838    1.415   1_545 A
C40    C39     1.418   1_554 S
C41    C427    1.415   1_455 A
C41    C42     1.418   1_556 S
C42    C423    1.417   1_455 A
C42    C41     1.418   1_554 S
C43    O347    1.397   .     S
C43    O346    1.222   .     D
C43    C147    1.482   .     S
C44    O348    1.222   .     D
C44    C148    1.486   .     S
C44    O349    1.397   .     S
C45    O350    1.222   .     D
C45    O351    1.398   .     S
C45    C149    1.482   .     S
C46    C93     1.490   .     S
C46    C100    1.413   .     S
C47    O352    1.222   .     D
C47    C150    1.485   .     S
C47    O354    1.398   .     S
C48    C151    1.482   .     S
C48    O355    1.222   .     D
C48    O356    1.397   .     S
C49    C153    1.486   .     S
C49    O357    1.222   .     D
C49    O358    1.397   .     S
C50    O359    1.222   .     D
C50    O360    1.398   .     S
C50    C154    1.482   .     S
C51    C155    1.485   .     S
C51    O362    1.398   .     S
C51    O361    1.222   .     D
C52    O365    1.398   .     S
C52    O363    1.222   .     D
C52    C156    1.482   .     S
C53    O366    1.222   .     D
C53    O367    1.398   .     S
C53    C157    1.485   .     S
C54    O369    1.397   .     S
C54    O368    1.222   .     D
C54    C158    1.482   .     S
C55    O370    1.222   .     D
C55    O371    1.397   .     S
C55    C159    1.486   .     S
C56    O372    1.222   .     D
C56    O373    1.398   .     S
C56    C160    1.482   .     S
C57    C94     1.490   .     S
C57    C101    1.413   .     A
C58    O374    1.222   .     D
C58    O376    1.398   .     S
C58    C161    1.485   .     S
C59    O377    1.222   .     D
C59    C162    1.483   .     S
C59    O378    1.397   .     S
C60    O380    1.397   .     S
C60    C164    1.486   .     S
C60    O379    1.222   .     D
C61    O381    1.222   .     D
C61    C165    1.486   .     S
C61    O382    1.397   .     S
C62    O383    1.222   .     D
C62    C166    1.482   .     S
C62    O384    1.397   .     S
C63    O387    1.398   .     S
C63    C167    1.485   .     S
C63    O385    1.222   .     D
C64    O388    1.222   .     D
C64    O389    1.398   .     S
C64    C168    1.482   .     S
C65    O390    1.222   .     D
C65    C169    1.486   .     S
C65    O391    1.397   .     S
C66    O393    1.397   .     S
C66    O392    1.222   .     D
C66    C170    1.482   .     S
C67    O394    1.222   .     D
C67    O395    1.398   .     S
C67    C171    1.485   .     S
C68    C95     1.492   .     S
C68    C514    1.412   .     A
C69    O251    1.398   .     S
C69    O396    1.222   .     D
C69    C172    1.482   .     S
C70    O252    1.222   .     D
C70    O253    1.398   .     S
C70    C173    1.485   .     S
C71    O254    1.222   .     D
C71    C175    1.482   .     S
C71    O255    1.398   .     S
C72    O257    1.397   .     S
C72    O256    1.222   .     D
C72    C176    1.486   .     S
C73    O259    1.397   .     S
C73    O258    1.222   .     D
C73    C177    1.482   .     S
C74    C178    1.485   .     S
C74    O260    1.222   .     D
C74    O262    1.398   .     S
C75    O263    1.222   .     D
C75    C179    1.482   .     S
C75    O264    1.398   .     S
C76    O266    1.397   .     S
C76    C180    1.486   .     S
C76    O265    1.222   .     D
C77    C181    1.482   .     S
C77    O268    1.397   .     S
C77    O267    1.222   .     D
C78    O270    1.399   .     S
C78    O681    1.221   1_455 S
C79    C123    1.464   .     S
C79    C542    1.413   1_455 S
C80    C97     1.492   .     S
C80    O273    1.399   .     S
C80    O683    1.222   .     S
C81    C108    1.492   .     S
C81    O275    1.399   .     S
C81    O1098   1.222   .     S
C82    C119    1.490   .     S
C82    O277    1.399   .     S
C82    O1100   1.221   1_545 S
C83    O279    1.399   .     S
C83    C130    1.490   .     S
C83    O690    1.221   .     S
C84    O281    1.399   .     S
C84    C141    1.492   .     S
C84    O692    1.222   1_455 S
C85    C152    1.492   .     S
C85    O284    1.399   .     S
C85    O1106   1.222   1_545 S
C86    C163    1.490   .     S
C86    O286    1.399   .     S
C86    O1109   1.221   .     S
C87    O287    1.222   .     D
C87    C174    1.492   .     S
C87    O288    1.399   .     S
C88    O290    1.399   .     S
C88    O289    1.221   .     D
C89    O292    1.399   .     S
C89    O291    1.221   .     D
C90    C509    1.412   1_455 A
C90    C124    1.459   .     S
C90    C141    1.412   .     S
C91    O295    1.399   .     S
C91    O293    1.222   .     D
C92    O297    1.399   .     S
C92    O296    1.222   .     D
C93    O299    1.399   .     S
C93    O298    1.221   .     D
C94    O300    1.221   .     D
C94    O301    1.399   .     S
C95    O303    1.399   .     S
C95    O302    1.222   .     D
C96    C121    1.459   .     S
C96    C152    1.412   .     A
C96    C932    1.412   1_545 S
C97    C502    1.412   .     A
C97    C417    1.413   .     S
C98    C122    1.464   .     S
C98    C987    1.413   1_545 A
C98    C119    1.413   .     S
C99    C859    1.412   1_545 A
C99    C127    1.459   .     S
C99    C174    1.412   .     S
C100   C128    1.464   .     S
C100   C826    1.413   1_545 A
C101   C125    1.464   .     S
C101   C425    1.413   1_455 S
C102   C126    1.459   .     S
C102   C480    1.412   1_455 A
C103   F185    1.358   .     S
C103   C109    1.387   .     A
C103   C182    1.410   .     A
C104   F193    1.358   .     S
C104   C107    1.387   .     A
C104   C183    1.410   .     A
C105   C184    1.410   .     A
C105   F194    1.358   .     S
C105   C111    1.387   .     A
C106   F195    1.358   .     S
C106   C110    1.387   .     A
C107   F196    1.358   .     S
C108   C830    1.413   .     S
C108   C920    1.412   .     S
C109   F197    1.358   .     S
C110   F198    1.358   .     S
C111   F199    1.358   .     S
C112   F200    1.358   .     S
C112   C117    1.387   1_556 S
C113   F186    1.358   .     S
C113   C116    1.387   1_554 S
C114   F187    1.358   .     S
C114   C120    1.387   1_556 S
C115   F188    1.358   .     S
C115   C118    1.387   1_554 S
C116   F189    1.358   .     S
C116   C113    1.387   1_556 S
C117   F190    1.358   .     S
C117   C112    1.387   1_554 S
C118   F191    1.358   .     S
C118   C115    1.387   1_556 S
C119   C831    1.413   1_545 S
C120   F192    1.358   .     S
C120   C114    1.387   1_554 S
C121   O386    1.278   .     A
C121   O1166   1.278   1_545 S
C122   O1074   1.280   1_545 A
C122   O353    1.280   .     S
C123   O364    1.280   .     A
C123   O673    1.280   1_455 S
C124   O787    1.278   1_455 A
C124   O272    1.278   .     S
C125   O283    1.280   .     S
C125   O306    1.280   .     S
C126   O294    1.278   .     S
C126   O307    1.278   .     S
C127   O308    1.278   .     A
C127   O304    1.278   .     A
C128   O305    1.280   .     S
C128   O310    1.280   .     S
C129   O311    1.277   .     A
C129   O339    1.286   .     A
C130   C491    1.413   .     S
C130   C594    1.413   .     S
C131   O340    1.277   .     A
C131   O312    1.286   .     A
C132   O337    1.281   .     A
C132   O313    1.281   .     A
C133   O338    1.281   .     A
C133   O314    1.281   .     A
C134   O344    1.286   .     A
C134   O315    1.277   .     A
C135   O316    1.286   .     A
C135   O345    1.277   .     A
C136   O317    1.281   .     A
C136   O341    1.281   .     A
C137   O343    1.281   .     A
C137   O318    1.281   .     A
C138   O330    1.281   .     A
C138   O319    1.281   .     A
C139   O321    1.281   .     A
C139   O332    1.281   .     A
C140   O328    1.286   .     A
C140   O322    1.277   .     A
C141   C595    1.413   1_455 S
C142   O323    1.286   .     A
C142   O329    1.277   .     A
C143   O324    1.281   .     A
C143   O335    1.281   .     A
C144   O336    1.281   .     A
C144   O325    1.281   .     A
C145   O333    1.286   .     A
C145   O326    1.277   .     A
C146   O334    1.277   .     A
C146   O327    1.286   .     A
C147   C164    1.403   .     A
C148   C162    1.403   .     A
C149   C161    1.404   .     A
C150   C160    1.404   .     A
C151   C159    1.403   .     A
C152   C1008   1.413   1_545 S
C153   C158    1.403   .     A
C154   C157    1.404   .     A
C155   C156    1.404   .     A
C163   C922    1.413   .     A
C163   C827    1.413   .     S
C165   C181    1.403   .     A
C166   C180    1.403   .     A
C167   C179    1.404   .     A
C168   C178    1.404   .     A
C169   C177    1.403   .     A
C170   C176    1.403   .     A
C171   C175    1.404   .     A
C172   C173    1.404   .     A
C182   C542    1.413   1_455 S
C183   C448    1.417   .     A
C183   C553    1.413   .     S
C184   C861    1.417   .     S
C184   C976    1.413   .     S
H201   O347    1.013   .     S
H202   O367    1.014   .     S
H203   O369    1.013   .     S
H204   O371    1.013   .     S
H205   O373    1.013   .     S
H206   O376    1.014   .     S
H207   O378    1.013   .     S
H208   O380    1.013   .     S
H209   O382    1.013   .     S
H210   O384    1.013   .     S
H211   O387    1.014   .     S
H212   O349    1.013   .     S
H213   O389    1.013   .     S
H214   O391    1.013   .     S
H215   O393    1.013   .     S
H216   O395    1.014   .     S
H217   O251    1.013   .     S
H218   O253    1.014   .     S
H219   O255    1.013   .     S
H220   O257    1.013   .     S
H221   O259    1.013   .     S
H222   O262    1.014   .     S
H223   O351    1.013   .     S
H224   O264    1.013   .     S
H225   O266    1.013   .     S
H226   O268    1.013   .     S
H227   O270    1.013   .     S
H228   O273    1.013   .     S
H229   O275    1.013   .     S
H230   O277    1.013   .     S
H231   O279    1.013   .     S
H232   O281    1.013   .     S
H233   O284    1.013   .     S
H234   O354    1.014   .     S
H235   O286    1.013   .     S
H236   O288    1.013   .     S
H237   O290    1.013   .     S
H238   O292    1.013   .     S
H239   O295    1.013   .     S
H240   O297    1.013   .     S
H241   O299    1.013   .     S
H242   O301    1.013   .     S
H243   O303    1.013   .     S
H244   O356    1.013   .     S
H245   O358    1.013   .     S
H246   O360    1.013   .     S
H247   O362    1.014   .     S
H248   O365    1.013   .     S
O249   Zn400   1.951   .     S
O249   Zn397   1.951   .     S
O249   Zn1228  1.951   1_545 S
O249   Zn408   1.951   .     S
O250   C946    1.280   .     A
O250   Zn399   1.955   .     S
O261   Zn402   1.955   .     S
O261   C535    1.280   .     S
O269   C490    1.221   .     S
O271   C492    1.222   1_455 S
O272   Zn401   1.955   .     S
O274   C905    1.222   1_545 S
O276   C906    1.221   .     S
O278   C495    1.221   1_455 S
O280   C496    1.222   .     S
O282   C909    1.222   .     S
O283   Zn411   1.955   .     S
O285   C910    1.221   1_545 S
O294   Zn410   1.955   .     S
O304   Zn405   1.955   .     S
O305   Zn397   1.955   .     S
O306   Zn407   1.955   .     S
O307   Zn406   1.955   .     S
O308   Zn409   1.955   .     S
O309   Zn403   1.951   .     S
O309   Zn409   1.951   .     S
O309   Zn405   1.951   .     S
O309   Zn1223  1.951   1_545 S
O310   Zn408   1.955   .     S
O311   Zn400   1.939   .     S
O312   Zn399   1.939   .     S
O313   Zn402   1.938   .     S
O314   Zn401   1.938   .     S
O315   Zn404   1.939   .     S
O316   Zn403   1.939   .     S
O317   Zn398   1.938   .     S
O318   Zn412   1.938   .     S
O319   Zn399   1.938   .     S
O320   Zn814   1.951   1_455 S
O320   Zn398   1.951   .     S
O320   Zn406   1.951   .     S
O320   Zn410   1.951   .     S
O321   Zn400   1.938   .     S
O322   Zn412   1.939   .     S
O323   Zn398   1.939   .     S
O324   Zn403   1.938   .     S
O325   Zn404   1.938   .     S
O326   Zn401   1.939   .     S
O327   Zn402   1.939   .     S
O328   Zn819   1.939   .     S
O329   Zn406   1.939   .     S
O330   Zn1233  1.938   .     S
O331   Zn401   1.951   .     S
O331   Zn411   1.951   .     S
O331   Zn407   1.951   .     S
O331   Zn824   1.951   1_455 S
O332   Zn408   1.938   .     S
O333   Zn411   1.939   .     S
O334   Zn822   1.939   .     S
O335   Zn405   1.938   .     S
O336   Zn1221  1.938   .     S
O337   Zn818   1.938   .     S
O338   Zn407   1.938   .     S
O339   Zn397   1.939   .     S
O340   Zn1229  1.939   .     S
O341   Zn410   1.938   .     S
O342   Zn404   1.955   .     S
O342   C945    1.278   .     S
O343   Zn823   1.938   .     S
O344   Zn1232  1.939   .     S
O345   Zn409   1.939   .     S
O353   Zn403   1.955   .     S
O364   Zn398   1.955   .     S
O375   Zn412   1.955   .     S
O375   C536    1.278   .     A
O386   Zn400   1.955   .     S
Zn397  O1160   1.938   1_545 S
Zn399  O1133   1.951   .     S
Zn402  O732    1.951   .     S
Zn404  O1073   1.951   .     S
Zn405  O1164   1.939   1_545 S
Zn406  O749    1.938   1_455 S
Zn407  O740    1.939   1_455 S
Zn408  O1168   1.939   1_545 S
Zn409  O1154   1.938   1_545 S
Zn410  O746    1.939   1_455 S
Zn411  O755    1.938   1_455 S
Zn412  O743    1.951   .     S
C413   C491    1.413   .     A
C413   C490    1.490   .     S
C414   C426    1.413   .     A
C414   C500    1.490   .     S
C414   C1336   1.413   .     A
C415   C518    1.410   .     A
C415   C450    1.415   .     A
C415   C1399   1.413   1_545 S
C416   C519    1.410   .     A
C416   C1      1.413   1_655 S
C416   C34     1.415   1_655 S
C417   C521    1.410   .     A
C417   C448    1.417   .     S
C418   C522    1.410   .     A
C418   C449    1.417   .     A
C418   C1344   1.413   1_545 S
C419   C523    1.410   .     A
C419   C1274   1.415   .     S
C419   C1355   1.413   .     S
C420   C447    1.413   .     A
C420   C524    1.410   .     A
C420   C1275   1.417   .     A
C421   C458    1.413   .     A
C421   C525    1.410   .     A
C421   C452    1.415   .     S
C422   C526    1.410   .     A
C422   C469    1.413   .     A
C422   C453    1.415   .     S
C423   C527    1.410   .     A
C423   C480    1.413   .     A
C423   C42     1.417   1_655 A
C424   C586    1.413   .     A
C424   C528    1.410   .     A
C424   C451    1.417   .     S
C425   C427    1.413   .     A
C425   C501    1.490   .     S
C425   C101    1.413   1_655 S
C426   C529    1.410   .     A
C426   C1276   1.415   .     A
C427   C530    1.410   .     A
C427   C41     1.415   1_655 A
C428   C532    1.410   .     A
C428   C436    1.413   .     A
C428   C454    1.417   .     S
C429   C576    1.412   .     A
C429   C578    1.412   .     A
C429   C548    1.460   .     S
C430   C549    1.460   .     S
C430   C577    1.412   .     A
C430   C574    1.412   .     A
C431   C541    1.460   .     S
C431   C573    1.411   .     A
C431   C580    1.411   .     A
C432   C572    1.411   .     A
C432   C579    1.411   .     A
C432   C543    1.460   .     S
C433   C582    1.412   .     A
C433   C571    1.412   .     A
C433   C544    1.460   .     S
C434   C545    1.460   .     S
C434   C570    1.412   .     A
C434   C581    1.412   .     A
C435   C546    1.460   .     S
C435   C569    1.411   .     A
C435   C584    1.411   .     A
C436   C503    1.492   .     S
C436   C514    1.412   .     S
C437   C583    1.411   .     A
C437   C568    1.411   .     A
C437   C547    1.460   .     S
C438   C567    1.411   .     A
C438   C557    1.460   .     S
C438   C587    1.411   .     A
C439   C566    1.411   .     A
C439   C558    1.460   .     S
C439   C585    1.411   .     A
C440   C565    1.412   .     A
C440   C589    1.411   .     A
C440   C550    1.460   .     S
C441   C563    1.412   .     A
C441   C588    1.412   .     A
C441   C551    1.460   .     S
C442   C562    1.411   .     A
C442   C591    1.411   .     A
C442   C552    1.460   .     S
C443   C590    1.411   .     A
C443   C561    1.411   .     A
C443   C554    1.460   .     S
C444   C593    1.411   .     A
C444   C560    1.412   .     A
C444   C555    1.460   .     S
C445   C559    1.411   .     A
C445   C556    1.460   .     S
C445   C592    1.412   .     A
C446   C594    1.415   .     A
C446   C448    1.418   .     S
C447   C504    1.492   .     S
C447   C1335   1.412   .     A
C449   C450    1.418   .     A
C449   C1420   1.417   1_545 S
C450   C1243   1.415   1_545 S
C451   C1244   1.417   1_545 A
C451   C452    1.418   1_556 S
C452   C1250   1.415   1_545 A
C452   C451    1.418   1_554 S
C453   C454    1.418   1_556 S
C454   C453    1.418   1_554 S
C455   O759    1.397   .     S
C455   O758    1.222   .     D
C455   C559    1.482   .     S
C456   O760    1.222   .     D
C456   C560    1.486   .     S
C456   O761    1.397   .     S
C457   O762    1.222   .     D
C457   O763    1.398   .     S
C457   C561    1.482   .     S
C458   C505    1.490   .     S
C458   C512    1.413   .     S
C459   O764    1.222   .     D
C459   C562    1.485   .     S
C459   O766    1.398   .     S
C460   C563    1.482   .     S
C460   O767    1.222   .     D
C460   O768    1.397   .     S
C461   C565    1.486   .     S
C461   O769    1.222   .     D
C461   O770    1.397   .     S
C462   O771    1.222   .     D
C462   O772    1.398   .     S
C462   C566    1.482   .     S
C463   C567    1.485   .     S
C463   O774    1.398   .     S
C463   O773    1.222   .     D
C464   O777    1.398   .     S
C464   O775    1.222   .     D
C464   C568    1.482   .     S
C465   O778    1.222   .     D
C465   O779    1.398   .     S
C465   C569    1.485   .     S
C466   O781    1.397   .     S
C466   O780    1.222   .     D
C466   C570    1.482   .     S
C467   O782    1.222   .     D
C467   O783    1.397   .     S
C467   C571    1.486   .     S
C468   O784    1.222   .     D
C468   O785    1.398   .     S
C468   C572    1.482   .     S
C469   C506    1.490   .     S
C469   C513    1.413   .     A
C470   O786    1.222   .     D
C470   O788    1.398   .     S
C470   C573    1.485   .     S
C471   O789    1.222   .     D
C471   C574    1.483   .     S
C471   O790    1.397   .     S
C472   O792    1.397   .     S
C472   C576    1.486   .     S
C472   O791    1.222   .     D
C473   O793    1.222   .     D
C473   C577    1.486   .     S
C473   O794    1.397   .     S
C474   O795    1.222   .     D
C474   C578    1.482   .     S
C474   O796    1.397   .     S
C475   O799    1.398   .     S
C475   C579    1.485   .     S
C475   O797    1.222   .     D
C476   O800    1.222   .     D
C476   O801    1.398   .     S
C476   C580    1.482   .     S
C477   O802    1.222   .     D
C477   C581    1.486   .     S
C477   O803    1.397   .     S
C478   O805    1.397   .     S
C478   O804    1.222   .     D
C478   C582    1.482   .     S
C479   O806    1.222   .     D
C479   O807    1.398   .     S
C479   C583    1.485   .     S
C480   C507    1.492   .     S
C480   C102    1.412   1_655 A
C481   O663    1.398   .     S
C481   O808    1.222   .     D
C481   C584    1.482   .     S
C482   O664    1.222   .     D
C482   O665    1.398   .     S
C482   C585    1.485   .     S
C483   O666    1.222   .     D
C483   C587    1.482   .     S
C483   O667    1.398   .     S
C484   O669    1.397   .     S
C484   O668    1.222   .     D
C484   C588    1.486   .     S
C485   O671    1.397   .     S
C485   O670    1.222   .     D
C485   C589    1.482   .     S
C486   C590    1.485   .     S
C486   O672    1.222   .     D
C486   O674    1.398   .     S
C487   O675    1.222   .     D
C487   C591    1.482   .     S
C487   O676    1.398   .     S
C488   O678    1.397   .     S
C488   C592    1.486   .     S
C488   O677    1.222   .     D
C489   C593    1.482   .     S
C489   O680    1.397   .     S
C489   O679    1.222   .     D
C490   O682    1.399   .     S
C491   C535    1.464   .     S
C492   C509    1.492   .     S
C492   O685    1.399   .     S
C492   O271    1.222   1_655 S
C493   C520    1.492   .     S
C493   O687    1.399   .     S
C493   O1510   1.222   .     S
C494   C531    1.490   .     S
C494   O689    1.399   .     S
C494   O1512   1.221   1_545 S
C495   O691    1.399   .     S
C495   C542    1.490   .     S
C495   O278    1.221   1_655 S
C496   O693    1.399   .     S
C496   C553    1.492   .     S
C497   C564    1.492   .     S
C497   O696    1.399   .     S
C497   O1518   1.222   1_545 S
C498   C575    1.490   .     S
C498   O698    1.399   .     S
C498   O1521   1.221   .     S
C499   O699    1.222   .     D
C499   C586    1.492   .     S
C499   O700    1.399   .     S
C500   O702    1.399   .     S
C500   O701    1.221   .     D
C501   O704    1.399   .     S
C501   O703    1.221   .     D
C502   C536    1.459   .     S
C502   C553    1.412   .     S
C503   O707    1.399   .     S
C503   O705    1.222   .     D
C504   O709    1.399   .     S
C504   O708    1.222   .     D
C505   O711    1.399   .     S
C505   O710    1.221   .     D
C506   O712    1.221   .     D
C506   O713    1.399   .     S
C507   O715    1.399   .     S
C507   O714    1.222   .     D
C508   C533    1.459   .     S
C508   C564    1.412   .     A
C508   C1344   1.412   1_545 S
C509   C90     1.412   1_655 A
C509   C5      1.413   1_655 S
C510   C534    1.464   .     S
C510   C1399   1.413   1_545 A
C510   C531    1.413   .     S
C511   C1271   1.412   1_545 A
C511   C539    1.459   .     S
C511   C586    1.412   .     S
C512   C540    1.464   .     S
C512   C1238   1.413   1_545 A
C513   C537    1.464   .     S
C514   C538    1.459   .     S
C515   F597    1.358   .     S
C515   C521    1.387   .     A
C515   C594    1.410   .     A
C516   F605    1.358   .     S
C516   C519    1.387   .     A
C516   C595    1.410   .     A
C517   C596    1.410   .     A
C517   F606    1.358   .     S
C517   C523    1.387   .     A
C518   F607    1.358   .     S
C518   C522    1.387   .     A
C519   F608    1.358   .     S
C520   C1242   1.413   .     S
C520   C1332   1.412   .     S
C521   F609    1.358   .     S
C522   F610    1.358   .     S
C523   F611    1.358   .     S
C524   F612    1.358   .     S
C524   C529    1.387   1_556 S
C525   F598    1.358   .     S
C525   C528    1.387   1_554 S
C526   F599    1.358   .     S
C526   C532    1.387   1_556 S
C527   F600    1.358   .     S
C527   C530    1.387   1_554 S
C528   F601    1.358   .     S
C528   C525    1.387   1_556 S
C529   F602    1.358   .     S
C529   C524    1.387   1_554 S
C530   F603    1.358   .     S
C530   C527    1.387   1_556 S
C531   C1243   1.413   1_545 S
C532   F604    1.358   .     S
C532   C526    1.387   1_554 S
C533   O798    1.278   .     A
C533   O1578   1.278   1_545 S
C534   O1486   1.280   1_545 A
C534   O765    1.280   .     S
C535   O776    1.280   .     A
C536   O684    1.278   .     S
C537   O695    1.280   .     S
C537   O718    1.280   .     S
C538   O706    1.278   .     S
C538   O719    1.278   .     S
C539   O720    1.278   .     A
C539   O716    1.278   .     A
C540   O717    1.280   .     S
C540   O722    1.280   .     S
C541   O723    1.277   .     A
C541   O751    1.286   .     A
C542   C79     1.413   1_655 S
C542   C182    1.413   1_655 S
C543   O752    1.277   .     A
C543   O724    1.286   .     A
C544   O749    1.281   .     A
C544   O725    1.281   .     A
C545   O750    1.281   .     A
C545   O726    1.281   .     A
C546   O756    1.286   .     A
C546   O727    1.277   .     A
C547   O728    1.286   .     A
C547   O757    1.277   .     A
C548   O729    1.281   .     A
C548   O753    1.281   .     A
C549   O755    1.281   .     A
C549   O730    1.281   .     A
C550   O742    1.281   .     A
C550   O731    1.281   .     A
C551   O733    1.281   .     A
C551   O744    1.281   .     A
C552   O740    1.286   .     A
C552   O734    1.277   .     A
C554   O735    1.286   .     A
C554   O741    1.277   .     A
C555   O736    1.281   .     A
C555   O747    1.281   .     A
C556   O748    1.281   .     A
C556   O737    1.281   .     A
C557   O745    1.286   .     A
C557   O738    1.277   .     A
C558   O746    1.277   .     A
C558   O739    1.286   .     A
C559   C576    1.403   .     A
C560   C574    1.403   .     A
C561   C573    1.404   .     A
C562   C572    1.404   .     A
C563   C571    1.403   .     A
C564   C1420   1.413   1_545 S
C565   C570    1.403   .     A
C566   C569    1.404   .     A
C567   C568    1.404   .     A
C575   C1334   1.413   .     A
C575   C1239   1.413   .     S
C577   C593    1.403   .     A
C578   C592    1.403   .     A
C579   C591    1.404   .     A
C580   C590    1.404   .     A
C581   C589    1.403   .     A
C582   C588    1.403   .     A
C583   C587    1.404   .     A
C584   C585    1.404   .     A
C595   C36     1.417   1_655 A
C595   C141    1.413   1_655 S
C596   C1273   1.417   .     S
C596   C1388   1.413   .     S
H613   O759    1.013   .     S
H614   O779    1.014   .     S
H615   O781    1.013   .     S
H616   O783    1.013   .     S
H617   O785    1.013   .     S
H618   O788    1.014   .     S
H619   O790    1.013   .     S
H620   O792    1.013   .     S
H621   O794    1.013   .     S
H622   O796    1.013   .     S
H623   O799    1.014   .     S
H624   O761    1.013   .     S
H625   O801    1.013   .     S
H626   O803    1.013   .     S
H627   O805    1.013   .     S
H628   O807    1.014   .     S
H629   O663    1.013   .     S
H630   O665    1.014   .     S
H631   O667    1.013   .     S
H632   O669    1.013   .     S
H633   O671    1.013   .     S
H634   O674    1.014   .     S
H635   O763    1.013   .     S
H636   O676    1.013   .     S
H637   O678    1.013   .     S
H638   O680    1.013   .     S
H639   O682    1.013   .     S
H640   O685    1.013   .     S
H641   O687    1.013   .     S
H642   O689    1.013   .     S
H643   O691    1.013   .     S
H644   O693    1.013   .     S
H645   O696    1.013   .     S
H646   O766    1.014   .     S
H647   O698    1.013   .     S
H648   O700    1.013   .     S
H649   O702    1.013   .     S
H650   O704    1.013   .     S
H651   O707    1.013   .     S
H652   O709    1.013   .     S
H653   O711    1.013   .     S
H654   O713    1.013   .     S
H655   O715    1.013   .     S
H656   O768    1.013   .     S
H657   O770    1.013   .     S
H658   O772    1.013   .     S
H659   O774    1.014   .     S
H660   O777    1.013   .     S
O661   Zn812   1.951   .     S
O661   Zn809   1.951   .     S
O661   Zn1640  1.951   1_545 S
O661   Zn820   1.951   .     S
O662   C1358   1.280   .     A
O662   Zn811   1.955   .     S
O673   Zn814   1.955   .     S
O673   C123    1.280   1_655 S
O681   C78     1.221   1_655 S
O684   Zn813   1.955   .     S
O686   C1317   1.222   1_545 S
O688   C1318   1.221   .     S
O692   C84     1.222   1_655 S
O694   C1321   1.222   .     S
O695   Zn823   1.955   .     S
O697   C1322   1.221   1_545 S
O706   Zn822   1.955   .     S
O716   Zn817   1.955   .     S
O717   Zn809   1.955   .     S
O718   Zn819   1.955   .     S
O719   Zn818   1.955   .     S
O720   Zn821   1.955   .     S
O721   Zn815   1.951   .     S
O721   Zn821   1.951   .     S
O721   Zn817   1.951   .     S
O721   Zn1635  1.951   1_545 S
O722   Zn820   1.955   .     S
O723   Zn812   1.939   .     S
O724   Zn811   1.939   .     S
O725   Zn814   1.938   .     S
O726   Zn813   1.938   .     S
O727   Zn816   1.939   .     S
O728   Zn815   1.939   .     S
O729   Zn810   1.938   .     S
O730   Zn824   1.938   .     S
O731   Zn811   1.938   .     S
O732   Zn810   1.951   .     S
O732   Zn818   1.951   .     S
O732   Zn822   1.951   .     S
O733   Zn812   1.938   .     S
O734   Zn824   1.939   .     S
O735   Zn810   1.939   .     S
O736   Zn815   1.938   .     S
O737   Zn816   1.938   .     S
O738   Zn813   1.939   .     S
O739   Zn814   1.939   .     S
O740   Zn407   1.939   1_655 S
O741   Zn818   1.939   .     S
O742   Zn1645  1.938   .     S
O743   Zn813   1.951   .     S
O743   Zn823   1.951   .     S
O743   Zn819   1.951   .     S
O744   Zn820   1.938   .     S
O745   Zn823   1.939   .     S
O746   Zn410   1.939   1_655 S
O747   Zn817   1.938   .     S
O748   Zn1633  1.938   .     S
O749   Zn406   1.938   1_655 S
O750   Zn819   1.938   .     S
O751   Zn809   1.939   .     S
O752   Zn1641  1.939   .     S
O753   Zn822   1.938   .     S
O754   Zn816   1.955   .     S
O754   C1357   1.278   .     S
O755   Zn411   1.938   1_655 S
O756   Zn1644  1.939   .     S
O757   Zn821   1.939   .     S
O765   Zn815   1.955   .     S
O776   Zn810   1.955   .     S
O787   Zn824   1.955   .     S
O787   C124    1.278   1_655 A
O798   Zn812   1.955   .     S
Zn809  O1572   1.938   1_545 S
Zn811  O1545   1.951   .     S
Zn814  O320    1.951   1_655 S
Zn816  O1485   1.951   .     S
Zn817  O1576   1.939   1_545 S
Zn820  O1580   1.939   1_545 S
Zn821  O1566   1.938   1_545 S
Zn824  O331    1.951   1_655 S
C825   C903    1.413   .     A
C825   C902    1.490   .     S
C825   C1240   1.413   1_455 S
C826   C838    1.413   .     A
C826   C912    1.490   .     S
C826   C100    1.413   1_565 A
C827   C930    1.410   .     A
C827   C862    1.415   .     A
C828   C931    1.410   .     A
C828   C1237   1.413   .     S
C828   C1270   1.415   .     S
C829   C933    1.410   .     A
C829   C860    1.417   .     S
C829   C1333   1.413   1_455 S
C830   C934    1.410   .     A
C830   C861    1.417   .     A
C831   C935    1.410   .     A
C831   C38     1.415   1_565 S
C831   C119    1.413   1_565 S
C832   C859    1.413   .     A
C832   C936    1.410   .     A
C832   C39     1.417   1_565 A
C833   C870    1.413   .     A
C833   C937    1.410   .     A
C833   C864    1.415   .     S
C834   C938    1.410   .     A
C834   C881    1.413   .     A
C834   C865    1.415   .     S
C835   C939    1.410   .     A
C835   C892    1.413   .     A
C835   C1278   1.417   .     A
C836   C998    1.413   .     A
C836   C940    1.410   .     A
C836   C863    1.417   .     S
C837   C839    1.413   .     A
C837   C913    1.490   .     S
C837   C1337   1.413   .     S
C838   C941    1.410   .     A
C838   C40     1.415   1_565 A
C839   C942    1.410   .     A
C839   C1277   1.415   .     A
C840   C944    1.410   .     A
C840   C848    1.413   .     A
C840   C866    1.417   .     S
C841   C988    1.412   .     A
C841   C990    1.412   .     A
C841   C960    1.460   .     S
C842   C961    1.460   .     S
C842   C989    1.412   .     A
C842   C986    1.412   .     A
C843   C953    1.460   .     S
C843   C985    1.411   .     A
C843   C992    1.411   .     A
C844   C984    1.411   .     A
C844   C991    1.411   .     A
C844   C955    1.460   .     S
C845   C994    1.412   .     A
C845   C983    1.412   .     A
C845   C956    1.460   .     S
C846   C957    1.460   .     S
C846   C982    1.412   .     A
C846   C993    1.412   .     A
C847   C958    1.460   .     S
C847   C981    1.411   .     A
C847   C996    1.411   .     A
C848   C915    1.492   .     S
C848   C926    1.412   .     S
C849   C995    1.411   .     A
C849   C980    1.411   .     A
C849   C959    1.460   .     S
C850   C979    1.411   .     A
C850   C969    1.460   .     S
C850   C999    1.411   .     A
C851   C978    1.411   .     A
C851   C970    1.460   .     S
C851   C997    1.411   .     A
C852   C977    1.412   .     A
C852   C1001   1.411   .     A
C852   C962    1.460   .     S
C853   C975    1.412   .     A
C853   C1000   1.412   .     A
C853   C963    1.460   .     S
C854   C974    1.411   .     A
C854   C1003   1.411   .     A
C854   C964    1.460   .     S
C855   C1002   1.411   .     A
C855   C973    1.411   .     A
C855   C966    1.460   .     S
C856   C1005   1.411   .     A
C856   C972    1.412   .     A
C856   C967    1.460   .     S
C857   C971    1.411   .     A
C857   C968    1.460   .     S
C857   C1004   1.412   .     A
C858   C1006   1.415   .     A
C858   C1240   1.415   1_455 S
C858   C860    1.418   .     S
C859   C916    1.492   .     S
C859   C99     1.412   1_565 A
C860   C1419   1.417   1_455 A
C861   C862    1.418   .     A
C863   C864    1.418   1_556 S
C864   C863    1.418   1_554 S
C865   C1251   1.415   1_455 A
C865   C866    1.418   1_556 S
C866   C1247   1.417   1_455 A
C866   C865    1.418   1_554 S
C867   O1171   1.397   .     S
C867   O1170   1.222   .     D
C867   C971    1.482   .     S
C868   O1172   1.222   .     D
C868   C972    1.486   .     S
C868   O1173   1.397   .     S
C869   O1174   1.222   .     D
C869   O1175   1.398   .     S
C869   C973    1.482   .     S
C870   C917    1.490   .     S
C870   C924    1.413   .     S
C871   O1176   1.222   .     D
C871   C974    1.485   .     S
C871   O1178   1.398   .     S
C872   C975    1.482   .     S
C872   O1179   1.222   .     D
C872   O1180   1.397   .     S
C873   C977    1.486   .     S
C873   O1181   1.222   .     D
C873   O1182   1.397   .     S
C874   O1183   1.222   .     D
C874   O1184   1.398   .     S
C874   C978    1.482   .     S
C875   C979    1.485   .     S
C875   O1186   1.398   .     S
C875   O1185   1.222   .     D
C876   O1189   1.398   .     S
C876   O1187   1.222   .     D
C876   C980    1.482   .     S
C877   O1190   1.222   .     D
C877   O1191   1.398   .     S
C877   C981    1.485   .     S
C878   O1193   1.397   .     S
C878   O1192   1.222   .     D
C878   C982    1.482   .     S
C879   O1194   1.222   .     D
C879   O1195   1.397   .     S
C879   C983    1.486   .     S
C880   O1196   1.222   .     D
C880   O1197   1.398   .     S
C880   C984    1.482   .     S
C881   C918    1.490   .     S
C881   C925    1.413   .     A
C882   O1198   1.222   .     D
C882   O1200   1.398   .     S
C882   C985    1.485   .     S
C883   O1201   1.222   .     D
C883   C986    1.483   .     S
C883   O1202   1.397   .     S
C884   O1204   1.397   .     S
C884   C988    1.486   .     S
C884   O1203   1.222   .     D
C885   O1205   1.222   .     D
C885   C989    1.486   .     S
C885   O1206   1.397   .     S
C886   O1207   1.222   .     D
C886   C990    1.482   .     S
C886   O1208   1.397   .     S
C887   O1211   1.398   .     S
C887   C991    1.485   .     S
C887   O1209   1.222   .     D
C888   O1212   1.222   .     D
C888   O1213   1.398   .     S
C888   C992    1.482   .     S
C889   O1214   1.222   .     D
C889   C993    1.486   .     S
C889   O1215   1.397   .     S
C890   O1217   1.397   .     S
C890   O1216   1.222   .     D
C890   C994    1.482   .     S
C891   O1218   1.222   .     D
C891   O1219   1.398   .     S
C891   C995    1.485   .     S
C892   C919    1.492   .     S
C892   C1338   1.412   .     A
C893   O1075   1.398   .     S
C893   O1220   1.222   .     D
C893   C996    1.482   .     S
C894   O1076   1.222   .     D
C894   O1077   1.398   .     S
C894   C997    1.485   .     S
C895   O1078   1.222   .     D
C895   C999    1.482   .     S
C895   O1079   1.398   .     S
C896   O1081   1.397   .     S
C896   O1080   1.222   .     D
C896   C1000   1.486   .     S
C897   O1083   1.397   .     S
C897   O1082   1.222   .     D
C897   C1001   1.482   .     S
C898   C1002   1.485   .     S
C898   O1084   1.222   .     D
C898   O1086   1.398   .     S
C899   O1087   1.222   .     D
C899   C1003   1.482   .     S
C899   O1088   1.398   .     S
C900   O1090   1.397   .     S
C900   C1004   1.486   .     S
C900   O1089   1.222   .     D
C901   C1005   1.482   .     S
C901   O1092   1.397   .     S
C901   O1091   1.222   .     D
C902   O1094   1.399   .     S
C902   O1505   1.221   1_455 S
C903   C947    1.464   .     S
C903   C1366   1.413   1_455 S
C904   C921    1.492   .     S
C904   O1097   1.399   .     S
C904   O1507   1.222   .     S
C905   C932    1.492   .     S
C905   O1099   1.399   .     S
C905   O274    1.222   1_565 S
C906   C943    1.490   .     S
C906   O1101   1.399   .     S
C907   O1103   1.399   .     S
C907   C954    1.490   .     S
C907   O1514   1.221   .     S
C908   O1105   1.399   .     S
C908   C965    1.492   .     S
C908   O1516   1.222   1_455 S
C909   C976    1.492   .     S
C909   O1108   1.399   .     S
C910   C987    1.490   .     S
C910   O1110   1.399   .     S
C910   O285    1.221   1_565 S
C911   O1111   1.222   .     D
C911   C998    1.492   .     S
C911   O1112   1.399   .     S
C912   O1114   1.399   .     S
C912   O1113   1.221   .     D
C913   O1116   1.399   .     S
C913   O1115   1.221   .     D
C914   C1333   1.412   1_455 A
C914   C948    1.459   .     S
C914   C965    1.412   .     S
C915   O1119   1.399   .     S
C915   O1117   1.222   .     D
C916   O1121   1.399   .     S
C916   O1120   1.222   .     D
C917   O1123   1.399   .     S
C917   O1122   1.221   .     D
C918   O1124   1.221   .     D
C918   O1125   1.399   .     S
C919   O1127   1.399   .     S
C919   O1126   1.222   .     D
C920   C945    1.459   .     S
C920   C976    1.412   .     A
C921   C1326   1.412   .     A
C921   C1241   1.413   .     S
C922   C946    1.464   .     S
C922   C943    1.413   .     S
C923   C951    1.459   .     S
C923   C998    1.412   .     S
C924   C952    1.464   .     S
C925   C949    1.464   .     S
C925   C1249   1.413   1_455 S
C926   C950    1.459   .     S
C926   C1304   1.412   1_455 A
C927   F1009   1.358   .     S
C927   C933    1.387   .     A
C927   C1006   1.410   .     A
C928   F1017   1.358   .     S
C928   C931    1.387   .     A
C928   C1007   1.410   .     A
C929   C1008   1.410   .     A
C929   F1018   1.358   .     S
C929   C935    1.387   .     A
C930   F1019   1.358   .     S
C930   C934    1.387   .     A
C931   F1020   1.358   .     S
C932   C6      1.413   1_565 S
C932   C96     1.412   1_565 S
C933   F1021   1.358   .     S
C934   F1022   1.358   .     S
C935   F1023   1.358   .     S
C936   F1024   1.358   .     S
C936   C941    1.387   1_556 S
C937   F1010   1.358   .     S
C937   C940    1.387   1_554 S
C938   F1011   1.358   .     S
C938   C944    1.387   1_556 S
C939   F1012   1.358   .     S
C939   C942    1.387   1_554 S
C940   F1013   1.358   .     S
C940   C937    1.387   1_556 S
C941   F1014   1.358   .     S
C941   C936    1.387   1_554 S
C942   F1015   1.358   .     S
C942   C939    1.387   1_556 S
C944   F1016   1.358   .     S
C944   C938    1.387   1_554 S
C945   O1210   1.278   .     A
C946   O1177   1.280   .     S
C947   O1188   1.280   .     A
C947   O1497   1.280   1_455 S
C948   O1611   1.278   1_455 A
C948   O1096   1.278   .     S
C949   O1107   1.280   .     S
C949   O1130   1.280   .     S
C950   O1118   1.278   .     S
C950   O1131   1.278   .     S
C951   O1132   1.278   .     A
C951   O1128   1.278   .     A
C952   O1129   1.280   .     S
C952   O1134   1.280   .     S
C953   O1135   1.277   .     A
C953   O1163   1.286   .     A
C954   C1315   1.413   .     S
C954   C1418   1.413   .     S
C955   O1164   1.277   .     A
C955   O1136   1.286   .     A
C956   O1161   1.281   .     A
C956   O1137   1.281   .     A
C957   O1162   1.281   .     A
C957   O1138   1.281   .     A
C958   O1168   1.286   .     A
C958   O1139   1.277   .     A
C959   O1140   1.286   .     A
C959   O1169   1.277   .     A
C960   O1141   1.281   .     A
C960   O1165   1.281   .     A
C961   O1167   1.281   .     A
C961   O1142   1.281   .     A
C962   O1154   1.281   .     A
C962   O1143   1.281   .     A
C963   O1145   1.281   .     A
C963   O1156   1.281   .     A
C964   O1152   1.286   .     A
C964   O1146   1.277   .     A
C965   C1419   1.413   1_455 S
C966   O1147   1.286   .     A
C966   O1153   1.277   .     A
C967   O1148   1.281   .     A
C967   O1159   1.281   .     A
C968   O1160   1.281   .     A
C968   O1149   1.281   .     A
C969   O1157   1.286   .     A
C969   O1150   1.277   .     A
C970   O1158   1.277   .     A
C970   O1151   1.286   .     A
C971   C988    1.403   .     A
C972   C986    1.403   .     A
C973   C985    1.404   .     A
C974   C984    1.404   .     A
C975   C983    1.403   .     A
C977   C982    1.403   .     A
C978   C981    1.404   .     A
C979   C980    1.404   .     A
C987   C98     1.413   1_565 A
C987   C3      1.413   1_565 S
C989   C1005   1.403   .     A
C990   C1004   1.403   .     A
C991   C1003   1.404   .     A
C992   C1002   1.404   .     A
C993   C1001   1.403   .     A
C994   C1000   1.403   .     A
C995   C999    1.404   .     A
C996   C997    1.404   .     A
C1006  C1366   1.413   1_455 S
C1007  C1272   1.417   .     A
C1007  C1377   1.413   .     S
C1008  C37     1.417   1_565 S
C1008  C152    1.413   1_565 S
H1025  O1171   1.013   .     S
H1026  O1191   1.014   .     S
H1027  O1193   1.013   .     S
H1028  O1195   1.013   .     S
H1029  O1197   1.013   .     S
H1030  O1200   1.014   .     S
H1031  O1202   1.013   .     S
H1032  O1204   1.013   .     S
H1033  O1206   1.013   .     S
H1034  O1208   1.013   .     S
H1035  O1211   1.014   .     S
H1036  O1173   1.013   .     S
H1037  O1213   1.013   .     S
H1038  O1215   1.013   .     S
H1039  O1217   1.013   .     S
H1040  O1219   1.014   .     S
H1041  O1075   1.013   .     S
H1042  O1077   1.014   .     S
H1043  O1079   1.013   .     S
H1044  O1081   1.013   .     S
H1045  O1083   1.013   .     S
H1046  O1086   1.014   .     S
H1047  O1175   1.013   .     S
H1048  O1088   1.013   .     S
H1049  O1090   1.013   .     S
H1050  O1092   1.013   .     S
H1051  O1094   1.013   .     S
H1052  O1097   1.013   .     S
H1053  O1099   1.013   .     S
H1054  O1101   1.013   .     S
H1055  O1103   1.013   .     S
H1056  O1105   1.013   .     S
H1057  O1108   1.013   .     S
H1058  O1178   1.014   .     S
H1059  O1110   1.013   .     S
H1060  O1112   1.013   .     S
H1061  O1114   1.013   .     S
H1062  O1116   1.013   .     S
H1063  O1119   1.013   .     S
H1064  O1121   1.013   .     S
H1065  O1123   1.013   .     S
H1066  O1125   1.013   .     S
H1067  O1127   1.013   .     S
H1068  O1180   1.013   .     S
H1069  O1182   1.013   .     S
H1070  O1184   1.013   .     S
H1071  O1186   1.014   .     S
H1072  O1189   1.013   .     S
O1073  Zn1224  1.951   .     S
O1073  Zn1221  1.951   .     S
O1073  Zn1232  1.951   .     S
O1074  C122    1.280   1_565 A
O1074  Zn1223  1.955   .     S
O1085  Zn1226  1.955   .     S
O1085  C1359   1.280   .     S
O1093  C1314   1.221   .     S
O1095  C1316   1.222   1_455 S
O1096  Zn1225  1.955   .     S
O1100  C82     1.221   1_565 S
O1102  C1319   1.221   1_455 S
O1104  C1320   1.222   .     S
O1106  C85     1.222   1_565 S
O1107  Zn1235  1.955   .     S
O1118  Zn1234  1.955   .     S
O1128  Zn1229  1.955   .     S
O1129  Zn1221  1.955   .     S
O1130  Zn1231  1.955   .     S
O1131  Zn1230  1.955   .     S
O1132  Zn1233  1.955   .     S
O1133  Zn1227  1.951   .     S
O1133  Zn1233  1.951   .     S
O1133  Zn1229  1.951   .     S
O1134  Zn1232  1.955   .     S
O1135  Zn1224  1.939   .     S
O1136  Zn1223  1.939   .     S
O1137  Zn1226  1.938   .     S
O1138  Zn1225  1.938   .     S
O1139  Zn1228  1.939   .     S
O1140  Zn1227  1.939   .     S
O1141  Zn1222  1.938   .     S
O1142  Zn1236  1.938   .     S
O1143  Zn1223  1.938   .     S
O1144  Zn1638  1.951   1_455 S
O1144  Zn1222  1.951   .     S
O1144  Zn1230  1.951   .     S
O1144  Zn1234  1.951   .     S
O1145  Zn1224  1.938   .     S
O1146  Zn1236  1.939   .     S
O1147  Zn1222  1.939   .     S
O1148  Zn1227  1.938   .     S
O1149  Zn1228  1.938   .     S
O1150  Zn1225  1.939   .     S
O1151  Zn1226  1.939   .     S
O1152  Zn1643  1.939   .     S
O1153  Zn1230  1.939   .     S
O1154  Zn409   1.938   1_565 S
O1155  Zn1225  1.951   .     S
O1155  Zn1235  1.951   .     S
O1155  Zn1231  1.951   .     S
O1155  Zn1648  1.951   1_455 S
O1156  Zn1232  1.938   .     S
O1157  Zn1235  1.939   .     S
O1158  Zn1646  1.939   .     S
O1159  Zn1229  1.938   .     S
O1160  Zn397   1.938   1_565 S
O1161  Zn1642  1.938   .     S
O1162  Zn1231  1.938   .     S
O1163  Zn1221  1.939   .     S
O1164  Zn405   1.939   1_565 S
O1165  Zn1234  1.938   .     S
O1166  Zn1228  1.955   .     S
O1166  C121    1.278   1_565 S
O1167  Zn1647  1.938   .     S
O1168  Zn408   1.939   1_565 S
O1169  Zn1233  1.939   .     S
O1177  Zn1227  1.955   .     S
O1188  Zn1222  1.955   .     S
O1199  Zn1236  1.955   .     S
O1199  C1360   1.278   .     A
O1210  Zn1224  1.955   .     S
Zn1223 O309    1.951   1_565 S
Zn1226 O1556   1.951   .     S
Zn1228 O249    1.951   1_565 S
Zn1230 O1573   1.938   1_455 S
Zn1231 O1564   1.939   1_455 S
Zn1234 O1570   1.939   1_455 S
Zn1235 O1579   1.938   1_455 S
Zn1236 O1567   1.951   .     S
C1237  C1315   1.413   .     A
C1237  C1314   1.490   .     S
C1238  C1250   1.413   .     A
C1238  C1324   1.490   .     S
C1238  C512    1.413   1_565 A
C1239  C1342   1.410   .     A
C1239  C1274   1.415   .     A
C1240  C1343   1.410   .     A
C1240  C825    1.413   1_655 S
C1240  C858    1.415   1_655 S
C1241  C1345   1.410   .     A
C1241  C1272   1.417   .     S
C1242  C1346   1.410   .     A
C1242  C1273   1.417   .     A
C1243  C1347   1.410   .     A
C1243  C450    1.415   1_565 S
C1243  C531    1.413   1_565 S
C1244  C1271   1.413   .     A
C1244  C1348   1.410   .     A
C1244  C451    1.417   1_565 A
C1245  C1282   1.413   .     A
C1245  C1349   1.410   .     A
C1245  C1276   1.415   .     S
C1246  C1350   1.410   .     A
C1246  C1293   1.413   .     A
C1246  C1277   1.415   .     S
C1247  C1351   1.410   .     A
C1247  C1304   1.413   .     A
C1247  C866    1.417   1_655 A
C1248  C1410   1.413   .     A
C1248  C1352   1.410   .     A
C1248  C1275   1.417   .     S
C1249  C1251   1.413   .     A
C1249  C1325   1.490   .     S
C1249  C925    1.413   1_655 S
C1250  C1353   1.410   .     A
C1250  C452    1.415   1_565 A
C1251  C1354   1.410   .     A
C1251  C865    1.415   1_655 A
C1252  C1356   1.410   .     A
C1252  C1260   1.413   .     A
C1252  C1278   1.417   .     S
C1253  C1400   1.412   .     A
C1253  C1402   1.412   .     A
C1253  C1372   1.460   .     S
C1254  C1373   1.460   .     S
C1254  C1401   1.412   .     A
C1254  C1398   1.412   .     A
C1255  C1365   1.460   .     S
C1255  C1397   1.411   .     A
C1255  C1404   1.411   .     A
C1256  C1396   1.411   .     A
C1256  C1403   1.411   .     A
C1256  C1367   1.460   .     S
C1257  C1406   1.412   .     A
C1257  C1395   1.412   .     A
C1257  C1368   1.460   .     S
C1258  C1369   1.460   .     S
C1258  C1394   1.412   .     A
C1258  C1405   1.412   .     A
C1259  C1370   1.460   .     S
C1259  C1393   1.411   .     A
C1259  C1408   1.411   .     A
C1260  C1327   1.492   .     S
C1260  C1338   1.412   .     S
C1261  C1407   1.411   .     A
C1261  C1392   1.411   .     A
C1261  C1371   1.460   .     S
C1262  C1391   1.411   .     A
C1262  C1381   1.460   .     S
C1262  C1411   1.411   .     A
C1263  C1390   1.411   .     A
C1263  C1382   1.460   .     S
C1263  C1409   1.411   .     A
C1264  C1389   1.412   .     A
C1264  C1413   1.411   .     A
C1264  C1374   1.460   .     S
C1265  C1387   1.412   .     A
C1265  C1412   1.412   .     A
C1265  C1375   1.460   .     S
C1266  C1386   1.411   .     A
C1266  C1415   1.411   .     A
C1266  C1376   1.460   .     S
C1267  C1414   1.411   .     A
C1267  C1385   1.411   .     A
C1267  C1378   1.460   .     S
C1268  C1417   1.411   .     A
C1268  C1384   1.412   .     A
C1268  C1379   1.460   .     S
C1269  C1383   1.411   .     A
C1269  C1380   1.460   .     S
C1269  C1416   1.412   .     A
C1270  C1418   1.415   .     A
C1270  C1272   1.418   .     S
C1271  C1328   1.492   .     S
C1271  C511    1.412   1_565 A
C1273  C1274   1.418   .     A
C1275  C1276   1.418   1_556 S
C1276  C1275   1.418   1_554 S
C1277  C1278   1.418   1_556 S
C1278  C1277   1.418   1_554 S
C1279  O1583   1.397   .     S
C1279  O1582   1.222   .     D
C1279  C1383   1.482   .     S
C1280  O1584   1.222   .     D
C1280  C1384   1.486   .     S
C1280  O1585   1.397   .     S
C1281  O1586   1.222   .     D
C1281  O1587   1.398   .     S
C1281  C1385   1.482   .     S
C1282  C1329   1.490   .     S
C1282  C1336   1.413   .     S
C1283  O1588   1.222   .     D
C1283  C1386   1.485   .     S
C1283  O1590   1.398   .     S
C1284  C1387   1.482   .     S
C1284  O1591   1.222   .     D
C1284  O1592   1.397   .     S
C1285  C1389   1.486   .     S
C1285  O1593   1.222   .     D
C1285  O1594   1.397   .     S
C1286  O1595   1.222   .     D
C1286  O1596   1.398   .     S
C1286  C1390   1.482   .     S
C1287  C1391   1.485   .     S
C1287  O1598   1.398   .     S
C1287  O1597   1.222   .     D
C1288  O1601   1.398   .     S
C1288  O1599   1.222   .     D
C1288  C1392   1.482   .     S
C1289  O1602   1.222   .     D
C1289  O1603   1.398   .     S
C1289  C1393   1.485   .     S
C1290  O1605   1.397   .     S
C1290  O1604   1.222   .     D
C1290  C1394   1.482   .     S
C1291  O1606   1.222   .     D
C1291  O1607   1.397   .     S
C1291  C1395   1.486   .     S
C1292  O1608   1.222   .     D
C1292  O1609   1.398   .     S
C1292  C1396   1.482   .     S
C1293  C1330   1.490   .     S
C1293  C1337   1.413   .     A
C1294  O1610   1.222   .     D
C1294  O1612   1.398   .     S
C1294  C1397   1.485   .     S
C1295  O1613   1.222   .     D
C1295  C1398   1.483   .     S
C1295  O1614   1.397   .     S
C1296  O1616   1.397   .     S
C1296  C1400   1.486   .     S
C1296  O1615   1.222   .     D
C1297  O1617   1.222   .     D
C1297  C1401   1.486   .     S
C1297  O1618   1.397   .     S
C1298  O1619   1.222   .     D
C1298  C1402   1.482   .     S
C1298  O1620   1.397   .     S
C1299  O1623   1.398   .     S
C1299  C1403   1.485   .     S
C1299  O1621   1.222   .     D
C1300  O1624   1.222   .     D
C1300  O1625   1.398   .     S
C1300  C1404   1.482   .     S
C1301  O1626   1.222   .     D
C1301  C1405   1.486   .     S
C1301  O1627   1.397   .     S
C1302  O1629   1.397   .     S
C1302  O1628   1.222   .     D
C1302  C1406   1.482   .     S
C1303  O1630   1.222   .     D
C1303  O1631   1.398   .     S
C1303  C1407   1.485   .     S
C1304  C1331   1.492   .     S
C1304  C926    1.412   1_655 A
C1305  O1487   1.398   .     S
C1305  O1632   1.222   .     D
C1305  C1408   1.482   .     S
C1306  O1488   1.222   .     D
C1306  O1489   1.398   .     S
C1306  C1409   1.485   .     S
C1307  O1490   1.222   .     D
C1307  C1411   1.482   .     S
C1307  O1491   1.398   .     S
C1308  O1493   1.397   .     S
C1308  O1492   1.222   .     D
C1308  C1412   1.486   .     S
C1309  O1495   1.397   .     S
C1309  O1494   1.222   .     D
C1309  C1413   1.482   .     S
C1310  C1414   1.485   .     S
C1310  O1496   1.222   .     D
C1310  O1498   1.398   .     S
C1311  O1499   1.222   .     D
C1311  C1415   1.482   .     S
C1311  O1500   1.398   .     S
C1312  O1502   1.397   .     S
C1312  C1416   1.486   .     S
C1312  O1501   1.222   .     D
C1313  C1417   1.482   .     S
C1313  O1504   1.397   .     S
C1313  O1503   1.222   .     D
C1314  O1506   1.399   .     S
C1315  C1359   1.464   .     S
C1316  C1333   1.492   .     S
C1316  O1509   1.399   .     S
C1316  O1095   1.222   1_655 S
C1317  C1344   1.492   .     S
C1317  O1511   1.399   .     S
C1317  O686    1.222   1_565 S
C1318  C1355   1.490   .     S
C1318  O1513   1.399   .     S
C1319  O1515   1.399   .     S
C1319  C1366   1.490   .     S
C1319  O1102   1.221   1_655 S
C1320  O1517   1.399   .     S
C1320  C1377   1.492   .     S
C1321  C1388   1.492   .     S
C1321  O1520   1.399   .     S
C1322  C1399   1.490   .     S
C1322  O1522   1.399   .     S
C1322  O697    1.221   1_565 S
C1323  O1523   1.222   .     D
C1323  C1410   1.492   .     S
C1323  O1524   1.399   .     S
C1324  O1526   1.399   .     S
C1324  O1525   1.221   .     D
C1325  O1528   1.399   .     S
C1325  O1527   1.221   .     D
C1326  C1360   1.459   .     S
C1326  C1377   1.412   .     S
C1327  O1531   1.399   .     S
C1327  O1529   1.222   .     D
C1328  O1533   1.399   .     S
C1328  O1532   1.222   .     D
C1329  O1535   1.399   .     S
C1329  O1534   1.221   .     D
C1330  O1536   1.221   .     D
C1330  O1537   1.399   .     S
C1331  O1539   1.399   .     S
C1331  O1538   1.222   .     D
C1332  C1357   1.459   .     S
C1332  C1388   1.412   .     A
C1333  C914    1.412   1_655 A
C1333  C829    1.413   1_655 S
C1334  C1358   1.464   .     S
C1334  C1355   1.413   .     S
C1335  C1363   1.459   .     S
C1335  C1410   1.412   .     S
C1336  C1364   1.464   .     S
C1337  C1361   1.464   .     S
C1338  C1362   1.459   .     S
C1339  F1421   1.358   .     S
C1339  C1345   1.387   .     A
C1339  C1418   1.410   .     A
C1340  F1429   1.358   .     S
C1340  C1343   1.387   .     A
C1340  C1419   1.410   .     A
C1341  C1420   1.410   .     A
C1341  F1430   1.358   .     S
C1341  C1347   1.387   .     A
C1342  F1431   1.358   .     S
C1342  C1346   1.387   .     A
C1343  F1432   1.358   .     S
C1344  C418    1.413   1_565 S
C1344  C508    1.412   1_565 S
C1345  F1433   1.358   .     S
C1346  F1434   1.358   .     S
C1347  F1435   1.358   .     S
C1348  F1436   1.358   .     S
C1348  C1353   1.387   1_556 S
C1349  F1422   1.358   .     S
C1349  C1352   1.387   1_554 S
C1350  F1423   1.358   .     S
C1350  C1356   1.387   1_556 S
C1351  F1424   1.358   .     S
C1351  C1354   1.387   1_554 S
C1352  F1425   1.358   .     S
C1352  C1349   1.387   1_556 S
C1353  F1426   1.358   .     S
C1353  C1348   1.387   1_554 S
C1354  F1427   1.358   .     S
C1354  C1351   1.387   1_556 S
C1356  F1428   1.358   .     S
C1356  C1350   1.387   1_554 S
C1357  O1622   1.278   .     A
C1358  O1589   1.280   .     S
C1359  O1600   1.280   .     A
C1360  O1508   1.278   .     S
C1361  O1519   1.280   .     S
C1361  O1542   1.280   .     S
C1362  O1530   1.278   .     S
C1362  O1543   1.278   .     S
C1363  O1544   1.278   .     A
C1363  O1540   1.278   .     A
C1364  O1541   1.280   .     S
C1364  O1546   1.280   .     S
C1365  O1547   1.277   .     A
C1365  O1575   1.286   .     A
C1366  C903    1.413   1_655 S
C1366  C1006   1.413   1_655 S
C1367  O1576   1.277   .     A
C1367  O1548   1.286   .     A
C1368  O1573   1.281   .     A
C1368  O1549   1.281   .     A
C1369  O1574   1.281   .     A
C1369  O1550   1.281   .     A
C1370  O1580   1.286   .     A
C1370  O1551   1.277   .     A
C1371  O1552   1.286   .     A
C1371  O1581   1.277   .     A
C1372  O1553   1.281   .     A
C1372  O1577   1.281   .     A
C1373  O1579   1.281   .     A
C1373  O1554   1.281   .     A
C1374  O1566   1.281   .     A
C1374  O1555   1.281   .     A
C1375  O1557   1.281   .     A
C1375  O1568   1.281   .     A
C1376  O1564   1.286   .     A
C1376  O1558   1.277   .     A
C1378  O1559   1.286   .     A
C1378  O1565   1.277   .     A
C1379  O1560   1.281   .     A
C1379  O1571   1.281   .     A
C1380  O1572   1.281   .     A
C1380  O1561   1.281   .     A
C1381  O1569   1.286   .     A
C1381  O1562   1.277   .     A
C1382  O1570   1.277   .     A
C1382  O1563   1.286   .     A
C1383  C1400   1.403   .     A
C1384  C1398   1.403   .     A
C1385  C1397   1.404   .     A
C1386  C1396   1.404   .     A
C1387  C1395   1.403   .     A
C1389  C1394   1.403   .     A
C1390  C1393   1.404   .     A
C1391  C1392   1.404   .     A
C1399  C510    1.413   1_565 A
C1399  C415    1.413   1_565 S
C1401  C1417   1.403   .     A
C1402  C1416   1.403   .     A
C1403  C1415   1.404   .     A
C1404  C1414   1.404   .     A
C1405  C1413   1.403   .     A
C1406  C1412   1.403   .     A
C1407  C1411   1.404   .     A
C1408  C1409   1.404   .     A
C1419  C860    1.417   1_655 A
C1419  C965    1.413   1_655 S
C1420  C449    1.417   1_565 S
C1420  C564    1.413   1_565 S
H1437  O1583   1.013   .     S
H1438  O1603   1.014   .     S
H1439  O1605   1.013   .     S
H1440  O1607   1.013   .     S
H1441  O1609   1.013   .     S
H1442  O1612   1.014   .     S
H1443  O1614   1.013   .     S
H1444  O1616   1.013   .     S
H1445  O1618   1.013   .     S
H1446  O1620   1.013   .     S
H1447  O1623   1.014   .     S
H1448  O1585   1.013   .     S
H1449  O1625   1.013   .     S
H1450  O1627   1.013   .     S
H1451  O1629   1.013   .     S
H1452  O1631   1.014   .     S
H1453  O1487   1.013   .     S
H1454  O1489   1.014   .     S
H1455  O1491   1.013   .     S
H1456  O1493   1.013   .     S
H1457  O1495   1.013   .     S
H1458  O1498   1.014   .     S
H1459  O1587   1.013   .     S
H1460  O1500   1.013   .     S
H1461  O1502   1.013   .     S
H1462  O1504   1.013   .     S
H1463  O1506   1.013   .     S
H1464  O1509   1.013   .     S
H1465  O1511   1.013   .     S
H1466  O1513   1.013   .     S
H1467  O1515   1.013   .     S
H1468  O1517   1.013   .     S
H1469  O1520   1.013   .     S
H1470  O1590   1.014   .     S
H1471  O1522   1.013   .     S
H1472  O1524   1.013   .     S
H1473  O1526   1.013   .     S
H1474  O1528   1.013   .     S
H1475  O1531   1.013   .     S
H1476  O1533   1.013   .     S
H1477  O1535   1.013   .     S
H1478  O1537   1.013   .     S
H1479  O1539   1.013   .     S
H1480  O1592   1.013   .     S
H1481  O1594   1.013   .     S
H1482  O1596   1.013   .     S
H1483  O1598   1.014   .     S
H1484  O1601   1.013   .     S
O1485  Zn1636  1.951   .     S
O1485  Zn1633  1.951   .     S
O1485  Zn1644  1.951   .     S
O1486  C534    1.280   1_565 A
O1486  Zn1635  1.955   .     S
O1497  Zn1638  1.955   .     S
O1497  C947    1.280   1_655 S
O1505  C902    1.221   1_655 S
O1508  Zn1637  1.955   .     S
O1512  C494    1.221   1_565 S
O1516  C908    1.222   1_655 S
O1518  C497    1.222   1_565 S
O1519  Zn1647  1.955   .     S
O1530  Zn1646  1.955   .     S
O1540  Zn1641  1.955   .     S
O1541  Zn1633  1.955   .     S
O1542  Zn1643  1.955   .     S
O1543  Zn1642  1.955   .     S
O1544  Zn1645  1.955   .     S
O1545  Zn1639  1.951   .     S
O1545  Zn1645  1.951   .     S
O1545  Zn1641  1.951   .     S
O1546  Zn1644  1.955   .     S
O1547  Zn1636  1.939   .     S
O1548  Zn1635  1.939   .     S
O1549  Zn1638  1.938   .     S
O1550  Zn1637  1.938   .     S
O1551  Zn1640  1.939   .     S
O1552  Zn1639  1.939   .     S
O1553  Zn1634  1.938   .     S
O1554  Zn1648  1.938   .     S
O1555  Zn1635  1.938   .     S
O1556  Zn1634  1.951   .     S
O1556  Zn1642  1.951   .     S
O1556  Zn1646  1.951   .     S
O1557  Zn1636  1.938   .     S
O1558  Zn1648  1.939   .     S
O1559  Zn1634  1.939   .     S
O1560  Zn1639  1.938   .     S
O1561  Zn1640  1.938   .     S
O1562  Zn1637  1.939   .     S
O1563  Zn1638  1.939   .     S
O1564  Zn1231  1.939   1_655 S
O1565  Zn1642  1.939   .     S
O1566  Zn821   1.938   1_565 S
O1567  Zn1637  1.951   .     S
O1567  Zn1647  1.951   .     S
O1567  Zn1643  1.951   .     S
O1568  Zn1644  1.938   .     S
O1569  Zn1647  1.939   .     S
O1570  Zn1234  1.939   1_655 S
O1571  Zn1641  1.938   .     S
O1572  Zn809   1.938   1_565 S
O1573  Zn1230  1.938   1_655 S
O1574  Zn1643  1.938   .     S
O1575  Zn1633  1.939   .     S
O1576  Zn817   1.939   1_565 S
O1577  Zn1646  1.938   .     S
O1578  Zn1640  1.955   .     S
O1578  C533    1.278   1_565 S
O1579  Zn1235  1.938   1_655 S
O1580  Zn820   1.939   1_565 S
O1581  Zn1645  1.939   .     S
O1589  Zn1639  1.955   .     S
O1600  Zn1634  1.955   .     S
O1611  Zn1648  1.955   .     S
O1611  C948    1.278   1_655 A
O1622  Zn1636  1.955   .     S
Zn1635 O721    1.951   1_565 S
Zn1638 O1144   1.951   1_655 S
Zn1640 O661    1.951   1_565 S
Zn1648 O1155   1.951   1_655 S
