data_str_m3_o10_o16_pcu_sym.16
_audit_creation_date              2020-01-03
_audit_creation_method            'Materials Studio'
_symmetry_space_group_name_H-M    'P1'
_symmetry_Int_Tables_number       1
_symmetry_cell_setting            triclinic
loop_
_symmetry_equiv_pos_as_xyz
  x,y,z
_cell_length_a                    23.4662
_cell_length_b                    25.7835
_cell_length_c                    24.0481
_cell_angle_alpha                 92.3329
_cell_angle_beta                  101.0550
_cell_angle_gamma                 94.1860
loop_
_atom_site_label
_atom_site_type_symbol
_atom_site_fract_x
_atom_site_fract_y
_atom_site_fract_z
_atom_site_U_iso_or_equiv
_atom_site_adp_type
_atom_site_occupancy
C1     C     0.01407   0.26462   0.24570   0.00000  Uiso   1.00
C2     C     0.05351   0.17223   0.41733   0.00000  Uiso   1.00
C3     C     0.01920   0.31835   0.23564   0.00000  Uiso   1.00
C4     C     0.03559   0.16972   0.35559   0.00000  Uiso   1.00
C5     C     0.31117   0.01372   0.24984   0.00000  Uiso   1.00
C6     C     0.31808   0.06836   0.24951   0.00000  Uiso   1.00
C7     C     0.29762   0.16290   0.14467   0.00000  Uiso   1.00
C8     C     0.26535   0.09135   0.00402   0.00000  Uiso   1.00
C9     C     0.27748   0.15328   0.08426   0.00000  Uiso   1.00
C10    C     0.02693   0.20474   0.45252   0.00000  Uiso   1.00
C11    C     0.04913   0.20965   0.01058   0.00000  Uiso   1.00
C12    C     0.13148   0.16210   0.49669   0.00000  Uiso   1.00
C13    C     0.10168   0.18974   0.03251   0.00000  Uiso   1.00
C14    C     0.10207   0.14600   0.44162   0.00000  Uiso   1.00
C15    C     0.18907   0.14872   0.01424   0.00000  Uiso   1.00
C16    C     0.21023   0.10842   0.48374   0.00000  Uiso   1.00
C17    C     0.17579   0.08568   0.43375   0.00000  Uiso   1.00
C18    C     0.12276   0.10499   0.41217   0.00000  Uiso   1.00
C19    C     0.22718   0.17596   0.05963   0.00000  Uiso   1.00
C20    C     0.29786   0.11225   0.05565   0.00000  Uiso   1.00
H21    H     0.00385   0.09486   0.07444   0.00000  Uiso   1.00
H22    H     0.25120   0.24265   0.10229   0.00000  Uiso   1.00
H23    H     0.32030   0.24769   0.39628   0.00000  Uiso   1.00
H24    H     0.08638   0.31110   0.19897   0.00000  Uiso   1.00
H25    H     0.27409   0.33075   0.26632   0.00000  Uiso   1.00
H26    H     0.15659   0.12497   0.20812   0.00000  Uiso   1.00
H27    H     0.17674   0.20836   0.29189   0.00000  Uiso   1.00
H28    H     0.19069   0.05424   0.41038   0.00000  Uiso   1.00
H29    H     0.28162   0.05999   0.48175   0.00000  Uiso   1.00
H30    H     0.11804   0.19551   0.07770   0.00000  Uiso   1.00
H31    H     0.02769   0.23213   0.03830   0.00000  Uiso   1.00
H32    H     0.09767   0.08688   0.37281   0.00000  Uiso   1.00
N33    N     0.14493   0.15223   0.23543   0.00000  Uiso   1.00
N34    N     0.18840   0.18110   0.26458   0.00000  Uiso   1.00
O35    O     0.29769   0.24629   0.25358   0.00000  Uiso   1.00
O36    O     0.31377   0.23293   0.43211   0.00000  Uiso   1.00
O37    O     0.06331   0.00581   0.20990   0.00000  Uiso   1.00
O38    O     0.05742   0.23704   0.24424   0.00000  Uiso   1.00
O39    O     0.31490   0.17358   0.33380   0.00000  Uiso   1.00
O40    O     0.07463   0.16433   0.32446   0.00000  Uiso   1.00
O41    O     0.27592   0.09629   0.25577   0.00000  Uiso   1.00
O42    O     0.03565   0.08704   0.24643   0.00000  Uiso   1.00
O43    O     0.25870   0.16901   0.17554   0.00000  Uiso   1.00
O44    O     0.01843   0.15976   0.16620   0.00000  Uiso   1.00
O45    O     0.21531   0.22464   0.07880   0.00000  Uiso   1.00
Zn46   Zn    0.27119   0.17284   0.25624   0.00000  Uiso   1.00
Zn47   Zn    0.06214   0.16049   0.24377   0.00000  Uiso   1.00
C48    C     0.34741   0.26462   0.24570   0.00000  Uiso   1.00
C49    C     0.38684   0.17223   0.41733   0.00000  Uiso   1.00
C50    C     0.35254   0.31835   0.23564   0.00000  Uiso   1.00
C51    C     0.36892   0.16972   0.35559   0.00000  Uiso   1.00
C52    C     0.64450   0.01372   0.24984   0.00000  Uiso   1.00
C53    C     0.65141   0.06836   0.24951   0.00000  Uiso   1.00
C54    C     0.63095   0.16290   0.14467   0.00000  Uiso   1.00
C55    C     0.59868   0.09135   0.00402   0.00000  Uiso   1.00
C56    C     0.61082   0.15328   0.08426   0.00000  Uiso   1.00
C57    C     0.36027   0.20474   0.45252   0.00000  Uiso   1.00
C58    C     0.38246   0.20965   0.01058   0.00000  Uiso   1.00
C59    C     0.46481   0.16210   0.49669   0.00000  Uiso   1.00
C60    C     0.43501   0.18974   0.03251   0.00000  Uiso   1.00
C61    C     0.43541   0.14600   0.44162   0.00000  Uiso   1.00
C62    C     0.52240   0.14872   0.01424   0.00000  Uiso   1.00
C63    C     0.54356   0.10842   0.48374   0.00000  Uiso   1.00
C64    C     0.50913   0.08568   0.43375   0.00000  Uiso   1.00
C65    C     0.45609   0.10499   0.41217   0.00000  Uiso   1.00
C66    C     0.56051   0.17596   0.05963   0.00000  Uiso   1.00
C67    C     0.63119   0.11225   0.05565   0.00000  Uiso   1.00
H68    H     0.33719   0.09486   0.07444   0.00000  Uiso   1.00
H69    H     0.58454   0.24265   0.10229   0.00000  Uiso   1.00
H70    H     0.65363   0.24769   0.39628   0.00000  Uiso   1.00
H71    H     0.41971   0.31110   0.19897   0.00000  Uiso   1.00
H72    H     0.60742   0.33075   0.26632   0.00000  Uiso   1.00
H73    H     0.48992   0.12497   0.20812   0.00000  Uiso   1.00
H74    H     0.51007   0.20836   0.29189   0.00000  Uiso   1.00
H75    H     0.52402   0.05424   0.41038   0.00000  Uiso   1.00
H76    H     0.61495   0.05999   0.48175   0.00000  Uiso   1.00
H77    H     0.45138   0.19551   0.07770   0.00000  Uiso   1.00
H78    H     0.36103   0.23213   0.03830   0.00000  Uiso   1.00
H79    H     0.43101   0.08688   0.37281   0.00000  Uiso   1.00
N80    N     0.47827   0.15223   0.23543   0.00000  Uiso   1.00
N81    N     0.52173   0.18110   0.26458   0.00000  Uiso   1.00
O82    O     0.63102   0.24629   0.25358   0.00000  Uiso   1.00
O83    O     0.64710   0.23293   0.43211   0.00000  Uiso   1.00
O84    O     0.39664   0.00581   0.20990   0.00000  Uiso   1.00
O85    O     0.39075   0.23704   0.24424   0.00000  Uiso   1.00
O86    O     0.64823   0.17358   0.33380   0.00000  Uiso   1.00
O87    O     0.40796   0.16433   0.32446   0.00000  Uiso   1.00
O88    O     0.60925   0.09629   0.25577   0.00000  Uiso   1.00
O89    O     0.36898   0.08704   0.24643   0.00000  Uiso   1.00
O90    O     0.59204   0.16901   0.17554   0.00000  Uiso   1.00
O91    O     0.35177   0.15976   0.16620   0.00000  Uiso   1.00
O92    O     0.54864   0.22464   0.07880   0.00000  Uiso   1.00
Zn93   Zn    0.60453   0.17284   0.25624   0.00000  Uiso   1.00
Zn94   Zn    0.39547   0.16049   0.24377   0.00000  Uiso   1.00
C95    C     0.68074   0.26462   0.24570   0.00000  Uiso   1.00
C96    C     0.72018   0.17223   0.41733   0.00000  Uiso   1.00
C97    C     0.68587   0.31835   0.23564   0.00000  Uiso   1.00
C98    C     0.70225   0.16972   0.35559   0.00000  Uiso   1.00
C99    C     0.97783   0.01372   0.24984   0.00000  Uiso   1.00
C100   C     0.98474   0.06836   0.24951   0.00000  Uiso   1.00
C101   C     0.96429   0.16290   0.14467   0.00000  Uiso   1.00
C102   C     0.93202   0.09135   0.00402   0.00000  Uiso   1.00
C103   C     0.94415   0.15328   0.08426   0.00000  Uiso   1.00
C104   C     0.69360   0.20474   0.45252   0.00000  Uiso   1.00
C105   C     0.71580   0.20965   0.01058   0.00000  Uiso   1.00
C106   C     0.79815   0.16210   0.49669   0.00000  Uiso   1.00
C107   C     0.76834   0.18974   0.03251   0.00000  Uiso   1.00
C108   C     0.76874   0.14600   0.44162   0.00000  Uiso   1.00
C109   C     0.85573   0.14872   0.01424   0.00000  Uiso   1.00
C110   C     0.87690   0.10842   0.48374   0.00000  Uiso   1.00
C111   C     0.84246   0.08568   0.43375   0.00000  Uiso   1.00
C112   C     0.78943   0.10499   0.41217   0.00000  Uiso   1.00
C113   C     0.89384   0.17596   0.05963   0.00000  Uiso   1.00
C114   C     0.96453   0.11225   0.05565   0.00000  Uiso   1.00
H115   H     0.67052   0.09486   0.07444   0.00000  Uiso   1.00
H116   H     0.91787   0.24265   0.10229   0.00000  Uiso   1.00
H117   H     0.98696   0.24769   0.39628   0.00000  Uiso   1.00
H118   H     0.75304   0.31110   0.19897   0.00000  Uiso   1.00
H119   H     0.94076   0.33075   0.26632   0.00000  Uiso   1.00
H120   H     0.82326   0.12497   0.20812   0.00000  Uiso   1.00
H121   H     0.84341   0.20836   0.29189   0.00000  Uiso   1.00
H122   H     0.85735   0.05424   0.41038   0.00000  Uiso   1.00
H123   H     0.94829   0.05999   0.48175   0.00000  Uiso   1.00
H124   H     0.78471   0.19551   0.07770   0.00000  Uiso   1.00
H125   H     0.69436   0.23213   0.03830   0.00000  Uiso   1.00
H126   H     0.76434   0.08688   0.37281   0.00000  Uiso   1.00
N127   N     0.81160   0.15223   0.23543   0.00000  Uiso   1.00
N128   N     0.85507   0.18110   0.26458   0.00000  Uiso   1.00
O129   O     0.96435   0.24629   0.25358   0.00000  Uiso   1.00
O130   O     0.98043   0.23293   0.43211   0.00000  Uiso   1.00
O131   O     0.72998   0.00581   0.20990   0.00000  Uiso   1.00
O132   O     0.72408   0.23704   0.24424   0.00000  Uiso   1.00
O133   O     0.98157   0.17358   0.33380   0.00000  Uiso   1.00
O134   O     0.74130   0.16433   0.32446   0.00000  Uiso   1.00
O135   O     0.94258   0.09629   0.25577   0.00000  Uiso   1.00
O136   O     0.70231   0.08704   0.24643   0.00000  Uiso   1.00
O137   O     0.92537   0.16901   0.17554   0.00000  Uiso   1.00
O138   O     0.68510   0.15976   0.16620   0.00000  Uiso   1.00
O139   O     0.88197   0.22464   0.07880   0.00000  Uiso   1.00
Zn140  Zn    0.93786   0.17284   0.25624   0.00000  Uiso   1.00
Zn141  Zn    0.72881   0.16049   0.24377   0.00000  Uiso   1.00
C142   C     0.01407   0.59796   0.24570   0.00000  Uiso   1.00
C143   C     0.05351   0.50556   0.41733   0.00000  Uiso   1.00
C144   C     0.01920   0.65169   0.23564   0.00000  Uiso   1.00
C145   C     0.03559   0.50306   0.35559   0.00000  Uiso   1.00
C146   C     0.31117   0.34705   0.24984   0.00000  Uiso   1.00
C147   C     0.31808   0.40169   0.24951   0.00000  Uiso   1.00
C148   C     0.29762   0.49624   0.14467   0.00000  Uiso   1.00
C149   C     0.26535   0.42469   0.00402   0.00000  Uiso   1.00
C150   C     0.27748   0.48662   0.08426   0.00000  Uiso   1.00
C151   C     0.02693   0.53807   0.45252   0.00000  Uiso   1.00
C152   C     0.04913   0.54298   0.01058   0.00000  Uiso   1.00
C153   C     0.13148   0.49543   0.49669   0.00000  Uiso   1.00
C154   C     0.10168   0.52307   0.03251   0.00000  Uiso   1.00
C155   C     0.10207   0.47934   0.44162   0.00000  Uiso   1.00
C156   C     0.18907   0.48206   0.01424   0.00000  Uiso   1.00
C157   C     0.21023   0.44175   0.48374   0.00000  Uiso   1.00
C158   C     0.17579   0.41902   0.43375   0.00000  Uiso   1.00
C159   C     0.12276   0.43832   0.41217   0.00000  Uiso   1.00
C160   C     0.22718   0.50929   0.05963   0.00000  Uiso   1.00
C161   C     0.29786   0.44558   0.05565   0.00000  Uiso   1.00
H162   H     0.00385   0.42820   0.07444   0.00000  Uiso   1.00
H163   H     0.25120   0.57599   0.10229   0.00000  Uiso   1.00
H164   H     0.32030   0.58102   0.39628   0.00000  Uiso   1.00
H165   H     0.08638   0.64444   0.19897   0.00000  Uiso   1.00
H166   H     0.27409   0.66408   0.26632   0.00000  Uiso   1.00
H167   H     0.15659   0.45830   0.20812   0.00000  Uiso   1.00
H168   H     0.17674   0.54169   0.29189   0.00000  Uiso   1.00
H169   H     0.19069   0.38757   0.41038   0.00000  Uiso   1.00
H170   H     0.28162   0.39332   0.48175   0.00000  Uiso   1.00
H171   H     0.11804   0.52884   0.07770   0.00000  Uiso   1.00
H172   H     0.02769   0.56546   0.03830   0.00000  Uiso   1.00
H173   H     0.09767   0.42021   0.37281   0.00000  Uiso   1.00
N174   N     0.14493   0.48556   0.23543   0.00000  Uiso   1.00
N175   N     0.18840   0.51444   0.26458   0.00000  Uiso   1.00
O176   O     0.29769   0.57963   0.25358   0.00000  Uiso   1.00
O177   O     0.31377   0.56626   0.43211   0.00000  Uiso   1.00
O178   O     0.06331   0.33914   0.20990   0.00000  Uiso   1.00
O179   O     0.05742   0.57038   0.24424   0.00000  Uiso   1.00
O180   O     0.31490   0.50691   0.33380   0.00000  Uiso   1.00
O181   O     0.07463   0.49766   0.32446   0.00000  Uiso   1.00
O182   O     0.27592   0.42962   0.25577   0.00000  Uiso   1.00
O183   O     0.03565   0.42037   0.24643   0.00000  Uiso   1.00
O184   O     0.25870   0.50234   0.17554   0.00000  Uiso   1.00
O185   O     0.01843   0.49309   0.16620   0.00000  Uiso   1.00
O186   O     0.21531   0.55798   0.07880   0.00000  Uiso   1.00
Zn187  Zn    0.27119   0.50618   0.25624   0.00000  Uiso   1.00
Zn188  Zn    0.06214   0.49382   0.24377   0.00000  Uiso   1.00
C189   C     0.34741   0.59796   0.24570   0.00000  Uiso   1.00
C190   C     0.38684   0.50556   0.41733   0.00000  Uiso   1.00
C191   C     0.35254   0.65169   0.23564   0.00000  Uiso   1.00
C192   C     0.36892   0.50306   0.35559   0.00000  Uiso   1.00
C193   C     0.64450   0.34705   0.24984   0.00000  Uiso   1.00
C194   C     0.65141   0.40169   0.24951   0.00000  Uiso   1.00
C195   C     0.63095   0.49624   0.14467   0.00000  Uiso   1.00
C196   C     0.59868   0.42469   0.00402   0.00000  Uiso   1.00
C197   C     0.61082   0.48662   0.08426   0.00000  Uiso   1.00
C198   C     0.36027   0.53807   0.45252   0.00000  Uiso   1.00
C199   C     0.38246   0.54298   0.01058   0.00000  Uiso   1.00
C200   C     0.46481   0.49543   0.49669   0.00000  Uiso   1.00
C201   C     0.43501   0.52307   0.03251   0.00000  Uiso   1.00
C202   C     0.43541   0.47934   0.44162   0.00000  Uiso   1.00
C203   C     0.52240   0.48206   0.01424   0.00000  Uiso   1.00
C204   C     0.54356   0.44175   0.48374   0.00000  Uiso   1.00
C205   C     0.50913   0.41902   0.43375   0.00000  Uiso   1.00
C206   C     0.45609   0.43832   0.41217   0.00000  Uiso   1.00
C207   C     0.56051   0.50929   0.05963   0.00000  Uiso   1.00
C208   C     0.63119   0.44558   0.05565   0.00000  Uiso   1.00
H209   H     0.33719   0.42820   0.07444   0.00000  Uiso   1.00
H210   H     0.58454   0.57599   0.10229   0.00000  Uiso   1.00
H211   H     0.65363   0.58102   0.39628   0.00000  Uiso   1.00
H212   H     0.41971   0.64444   0.19897   0.00000  Uiso   1.00
H213   H     0.60742   0.66408   0.26632   0.00000  Uiso   1.00
H214   H     0.48992   0.45830   0.20812   0.00000  Uiso   1.00
H215   H     0.51007   0.54169   0.29189   0.00000  Uiso   1.00
H216   H     0.52402   0.38757   0.41038   0.00000  Uiso   1.00
H217   H     0.61495   0.39332   0.48175   0.00000  Uiso   1.00
H218   H     0.45138   0.52884   0.07770   0.00000  Uiso   1.00
H219   H     0.36103   0.56546   0.03830   0.00000  Uiso   1.00
H220   H     0.43101   0.42021   0.37281   0.00000  Uiso   1.00
N221   N     0.47827   0.48556   0.23543   0.00000  Uiso   1.00
N222   N     0.52173   0.51444   0.26458   0.00000  Uiso   1.00
O223   O     0.63102   0.57963   0.25358   0.00000  Uiso   1.00
O224   O     0.64710   0.56626   0.43211   0.00000  Uiso   1.00
O225   O     0.39664   0.33914   0.20990   0.00000  Uiso   1.00
O226   O     0.39075   0.57038   0.24424   0.00000  Uiso   1.00
O227   O     0.64823   0.50691   0.33380   0.00000  Uiso   1.00
O228   O     0.40796   0.49766   0.32446   0.00000  Uiso   1.00
O229   O     0.60925   0.42962   0.25577   0.00000  Uiso   1.00
O230   O     0.36898   0.42037   0.24643   0.00000  Uiso   1.00
O231   O     0.59204   0.50234   0.17554   0.00000  Uiso   1.00
O232   O     0.35177   0.49309   0.16620   0.00000  Uiso   1.00
O233   O     0.54864   0.55798   0.07880   0.00000  Uiso   1.00
Zn234  Zn    0.60453   0.50618   0.25624   0.00000  Uiso   1.00
Zn235  Zn    0.39547   0.49382   0.24377   0.00000  Uiso   1.00
C236   C     0.68074   0.59796   0.24570   0.00000  Uiso   1.00
C237   C     0.72018   0.50556   0.41733   0.00000  Uiso   1.00
C238   C     0.68587   0.65169   0.23564   0.00000  Uiso   1.00
C239   C     0.70225   0.50306   0.35559   0.00000  Uiso   1.00
C240   C     0.97783   0.34705   0.24984   0.00000  Uiso   1.00
C241   C     0.98474   0.40169   0.24951   0.00000  Uiso   1.00
C242   C     0.96429   0.49624   0.14467   0.00000  Uiso   1.00
C243   C     0.93202   0.42469   0.00402   0.00000  Uiso   1.00
C244   C     0.94415   0.48662   0.08426   0.00000  Uiso   1.00
C245   C     0.69360   0.53807   0.45252   0.00000  Uiso   1.00
C246   C     0.71580   0.54298   0.01058   0.00000  Uiso   1.00
C247   C     0.79815   0.49543   0.49669   0.00000  Uiso   1.00
C248   C     0.76834   0.52307   0.03251   0.00000  Uiso   1.00
C249   C     0.76874   0.47934   0.44162   0.00000  Uiso   1.00
C250   C     0.85573   0.48206   0.01424   0.00000  Uiso   1.00
C251   C     0.87690   0.44175   0.48374   0.00000  Uiso   1.00
C252   C     0.84246   0.41902   0.43375   0.00000  Uiso   1.00
C253   C     0.78943   0.43832   0.41217   0.00000  Uiso   1.00
C254   C     0.89384   0.50929   0.05963   0.00000  Uiso   1.00
C255   C     0.96453   0.44558   0.05565   0.00000  Uiso   1.00
H256   H     0.67052   0.42820   0.07444   0.00000  Uiso   1.00
H257   H     0.91787   0.57599   0.10229   0.00000  Uiso   1.00
H258   H     0.98696   0.58102   0.39628   0.00000  Uiso   1.00
H259   H     0.75304   0.64444   0.19897   0.00000  Uiso   1.00
H260   H     0.94076   0.66408   0.26632   0.00000  Uiso   1.00
H261   H     0.82326   0.45830   0.20812   0.00000  Uiso   1.00
H262   H     0.84341   0.54169   0.29189   0.00000  Uiso   1.00
H263   H     0.85735   0.38757   0.41038   0.00000  Uiso   1.00
H264   H     0.94829   0.39332   0.48175   0.00000  Uiso   1.00
H265   H     0.78471   0.52884   0.07770   0.00000  Uiso   1.00
H266   H     0.69436   0.56546   0.03830   0.00000  Uiso   1.00
H267   H     0.76434   0.42021   0.37281   0.00000  Uiso   1.00
N268   N     0.81160   0.48556   0.23543   0.00000  Uiso   1.00
N269   N     0.85507   0.51444   0.26458   0.00000  Uiso   1.00
O270   O     0.96435   0.57963   0.25358   0.00000  Uiso   1.00
O271   O     0.98043   0.56626   0.43211   0.00000  Uiso   1.00
O272   O     0.72998   0.33914   0.20990   0.00000  Uiso   1.00
O273   O     0.72408   0.57038   0.24424   0.00000  Uiso   1.00
O274   O     0.98157   0.50691   0.33380   0.00000  Uiso   1.00
O275   O     0.74130   0.49766   0.32446   0.00000  Uiso   1.00
O276   O     0.94258   0.42962   0.25577   0.00000  Uiso   1.00
O277   O     0.70231   0.42037   0.24643   0.00000  Uiso   1.00
O278   O     0.92537   0.50234   0.17554   0.00000  Uiso   1.00
O279   O     0.68510   0.49309   0.16620   0.00000  Uiso   1.00
O280   O     0.88197   0.55798   0.07880   0.00000  Uiso   1.00
Zn281  Zn    0.93786   0.50618   0.25624   0.00000  Uiso   1.00
Zn282  Zn    0.72881   0.49382   0.24377   0.00000  Uiso   1.00
C283   C     0.01407   0.93129   0.24570   0.00000  Uiso   1.00
C284   C     0.05351   0.83889   0.41733   0.00000  Uiso   1.00
C285   C     0.01920   0.98502   0.23564   0.00000  Uiso   1.00
C286   C     0.03559   0.83639   0.35559   0.00000  Uiso   1.00
C287   C     0.31117   0.68039   0.24984   0.00000  Uiso   1.00
C288   C     0.31808   0.73502   0.24951   0.00000  Uiso   1.00
C289   C     0.29762   0.82957   0.14467   0.00000  Uiso   1.00
C290   C     0.26535   0.75802   0.00402   0.00000  Uiso   1.00
C291   C     0.27748   0.81995   0.08426   0.00000  Uiso   1.00
C292   C     0.02693   0.87140   0.45252   0.00000  Uiso   1.00
C293   C     0.04913   0.87631   0.01058   0.00000  Uiso   1.00
C294   C     0.13148   0.82876   0.49669   0.00000  Uiso   1.00
C295   C     0.10168   0.85641   0.03251   0.00000  Uiso   1.00
C296   C     0.10207   0.81267   0.44162   0.00000  Uiso   1.00
C297   C     0.18907   0.81539   0.01424   0.00000  Uiso   1.00
C298   C     0.21023   0.77508   0.48374   0.00000  Uiso   1.00
C299   C     0.17579   0.75235   0.43375   0.00000  Uiso   1.00
C300   C     0.12276   0.77166   0.41217   0.00000  Uiso   1.00
C301   C     0.22718   0.84263   0.05963   0.00000  Uiso   1.00
C302   C     0.29786   0.77891   0.05565   0.00000  Uiso   1.00
H303   H     0.00385   0.76153   0.07444   0.00000  Uiso   1.00
H304   H     0.25120   0.90932   0.10229   0.00000  Uiso   1.00
H305   H     0.32030   0.91436   0.39628   0.00000  Uiso   1.00
H306   H     0.08638   0.97777   0.19897   0.00000  Uiso   1.00
H307   H     0.27409   0.99742   0.26632   0.00000  Uiso   1.00
H308   H     0.15659   0.79163   0.20812   0.00000  Uiso   1.00
H309   H     0.17674   0.87503   0.29189   0.00000  Uiso   1.00
H310   H     0.19069   0.72090   0.41038   0.00000  Uiso   1.00
H311   H     0.28162   0.72665   0.48175   0.00000  Uiso   1.00
H312   H     0.11804   0.86217   0.07770   0.00000  Uiso   1.00
H313   H     0.02769   0.89880   0.03830   0.00000  Uiso   1.00
H314   H     0.09767   0.75354   0.37281   0.00000  Uiso   1.00
N315   N     0.14493   0.81890   0.23543   0.00000  Uiso   1.00
N316   N     0.18840   0.84777   0.26458   0.00000  Uiso   1.00
O317   O     0.29769   0.91296   0.25358   0.00000  Uiso   1.00
O318   O     0.31377   0.89959   0.43211   0.00000  Uiso   1.00
O319   O     0.06331   0.67248   0.20990   0.00000  Uiso   1.00
O320   O     0.05742   0.90371   0.24424   0.00000  Uiso   1.00
O321   O     0.31490   0.84024   0.33380   0.00000  Uiso   1.00
O322   O     0.07463   0.83099   0.32446   0.00000  Uiso   1.00
O323   O     0.27592   0.76296   0.25577   0.00000  Uiso   1.00
O324   O     0.03565   0.75371   0.24643   0.00000  Uiso   1.00
O325   O     0.25870   0.83567   0.17554   0.00000  Uiso   1.00
O326   O     0.01843   0.82642   0.16620   0.00000  Uiso   1.00
O327   O     0.21531   0.89131   0.07880   0.00000  Uiso   1.00
Zn328  Zn    0.27119   0.83951   0.25624   0.00000  Uiso   1.00
Zn329  Zn    0.06214   0.82716   0.24377   0.00000  Uiso   1.00
C330   C     0.34741   0.93129   0.24570   0.00000  Uiso   1.00
C331   C     0.38684   0.83889   0.41733   0.00000  Uiso   1.00
C332   C     0.35254   0.98502   0.23564   0.00000  Uiso   1.00
C333   C     0.36892   0.83639   0.35559   0.00000  Uiso   1.00
C334   C     0.64450   0.68039   0.24984   0.00000  Uiso   1.00
C335   C     0.65141   0.73502   0.24951   0.00000  Uiso   1.00
C336   C     0.63095   0.82957   0.14467   0.00000  Uiso   1.00
C337   C     0.59868   0.75802   0.00402   0.00000  Uiso   1.00
C338   C     0.61082   0.81995   0.08426   0.00000  Uiso   1.00
C339   C     0.36027   0.87140   0.45252   0.00000  Uiso   1.00
C340   C     0.38246   0.87631   0.01058   0.00000  Uiso   1.00
C341   C     0.46481   0.82876   0.49669   0.00000  Uiso   1.00
C342   C     0.43501   0.85641   0.03251   0.00000  Uiso   1.00
C343   C     0.43541   0.81267   0.44162   0.00000  Uiso   1.00
C344   C     0.52240   0.81539   0.01424   0.00000  Uiso   1.00
C345   C     0.54356   0.77508   0.48374   0.00000  Uiso   1.00
C346   C     0.50913   0.75235   0.43375   0.00000  Uiso   1.00
C347   C     0.45609   0.77166   0.41217   0.00000  Uiso   1.00
C348   C     0.56051   0.84263   0.05963   0.00000  Uiso   1.00
C349   C     0.63119   0.77891   0.05565   0.00000  Uiso   1.00
H350   H     0.33719   0.76153   0.07444   0.00000  Uiso   1.00
H351   H     0.58454   0.90932   0.10229   0.00000  Uiso   1.00
H352   H     0.65363   0.91436   0.39628   0.00000  Uiso   1.00
H353   H     0.41971   0.97777   0.19897   0.00000  Uiso   1.00
H354   H     0.60742   0.99742   0.26632   0.00000  Uiso   1.00
H355   H     0.48992   0.79163   0.20812   0.00000  Uiso   1.00
H356   H     0.51007   0.87503   0.29189   0.00000  Uiso   1.00
H357   H     0.52402   0.72090   0.41038   0.00000  Uiso   1.00
H358   H     0.61495   0.72665   0.48175   0.00000  Uiso   1.00
H359   H     0.45138   0.86217   0.07770   0.00000  Uiso   1.00
H360   H     0.36103   0.89880   0.03830   0.00000  Uiso   1.00
H361   H     0.43101   0.75354   0.37281   0.00000  Uiso   1.00
N362   N     0.47827   0.81890   0.23543   0.00000  Uiso   1.00
N363   N     0.52173   0.84777   0.26458   0.00000  Uiso   1.00
O364   O     0.63102   0.91296   0.25358   0.00000  Uiso   1.00
O365   O     0.64710   0.89959   0.43211   0.00000  Uiso   1.00
O366   O     0.39664   0.67248   0.20990   0.00000  Uiso   1.00
O367   O     0.39075   0.90371   0.24424   0.00000  Uiso   1.00
O368   O     0.64823   0.84024   0.33380   0.00000  Uiso   1.00
O369   O     0.40796   0.83099   0.32446   0.00000  Uiso   1.00
O370   O     0.60925   0.76296   0.25577   0.00000  Uiso   1.00
O371   O     0.36898   0.75371   0.24643   0.00000  Uiso   1.00
O372   O     0.59204   0.83567   0.17554   0.00000  Uiso   1.00
O373   O     0.35177   0.82642   0.16620   0.00000  Uiso   1.00
O374   O     0.54864   0.89131   0.07880   0.00000  Uiso   1.00
Zn375  Zn    0.60453   0.83951   0.25624   0.00000  Uiso   1.00
Zn376  Zn    0.39547   0.82716   0.24377   0.00000  Uiso   1.00
C377   C     0.68074   0.93129   0.24570   0.00000  Uiso   1.00
C378   C     0.72018   0.83889   0.41733   0.00000  Uiso   1.00
C379   C     0.68587   0.98502   0.23564   0.00000  Uiso   1.00
C380   C     0.70225   0.83639   0.35559   0.00000  Uiso   1.00
C381   C     0.97783   0.68039   0.24984   0.00000  Uiso   1.00
C382   C     0.98474   0.73502   0.24951   0.00000  Uiso   1.00
C383   C     0.96429   0.82957   0.14467   0.00000  Uiso   1.00
C384   C     0.93202   0.75802   0.00402   0.00000  Uiso   1.00
C385   C     0.94415   0.81995   0.08426   0.00000  Uiso   1.00
C386   C     0.69360   0.87140   0.45252   0.00000  Uiso   1.00
C387   C     0.71580   0.87631   0.01058   0.00000  Uiso   1.00
C388   C     0.79815   0.82876   0.49669   0.00000  Uiso   1.00
C389   C     0.76834   0.85641   0.03251   0.00000  Uiso   1.00
C390   C     0.76874   0.81267   0.44162   0.00000  Uiso   1.00
C391   C     0.85573   0.81539   0.01424   0.00000  Uiso   1.00
C392   C     0.87690   0.77508   0.48374   0.00000  Uiso   1.00
C393   C     0.84246   0.75235   0.43375   0.00000  Uiso   1.00
C394   C     0.78943   0.77166   0.41217   0.00000  Uiso   1.00
C395   C     0.89384   0.84263   0.05963   0.00000  Uiso   1.00
C396   C     0.96453   0.77891   0.05565   0.00000  Uiso   1.00
H397   H     0.67052   0.76153   0.07444   0.00000  Uiso   1.00
H398   H     0.91787   0.90932   0.10229   0.00000  Uiso   1.00
H399   H     0.98696   0.91436   0.39628   0.00000  Uiso   1.00
H400   H     0.75304   0.97777   0.19897   0.00000  Uiso   1.00
H401   H     0.94076   0.99742   0.26632   0.00000  Uiso   1.00
H402   H     0.82326   0.79163   0.20812   0.00000  Uiso   1.00
H403   H     0.84341   0.87503   0.29189   0.00000  Uiso   1.00
H404   H     0.85735   0.72090   0.41038   0.00000  Uiso   1.00
H405   H     0.94829   0.72665   0.48175   0.00000  Uiso   1.00
H406   H     0.78471   0.86217   0.07770   0.00000  Uiso   1.00
H407   H     0.69436   0.89880   0.03830   0.00000  Uiso   1.00
H408   H     0.76434   0.75354   0.37281   0.00000  Uiso   1.00
N409   N     0.81160   0.81890   0.23543   0.00000  Uiso   1.00
N410   N     0.85507   0.84777   0.26458   0.00000  Uiso   1.00
O411   O     0.96435   0.91296   0.25358   0.00000  Uiso   1.00
O412   O     0.98043   0.89959   0.43211   0.00000  Uiso   1.00
O413   O     0.72998   0.67248   0.20990   0.00000  Uiso   1.00
O414   O     0.72408   0.90371   0.24424   0.00000  Uiso   1.00
O415   O     0.98157   0.84024   0.33380   0.00000  Uiso   1.00
O416   O     0.74130   0.83099   0.32446   0.00000  Uiso   1.00
O417   O     0.94258   0.76296   0.25577   0.00000  Uiso   1.00
O418   O     0.70231   0.75371   0.24643   0.00000  Uiso   1.00
O419   O     0.92537   0.83567   0.17554   0.00000  Uiso   1.00
O420   O     0.68510   0.82642   0.16620   0.00000  Uiso   1.00
O421   O     0.88197   0.89131   0.07880   0.00000  Uiso   1.00
Zn422  Zn    0.93786   0.83951   0.25624   0.00000  Uiso   1.00
Zn423  Zn    0.72881   0.82716   0.24377   0.00000  Uiso   1.00
C424   C     0.01407   0.26462   0.74570   0.00000  Uiso   1.00
C425   C     0.05351   0.17223   0.91733   0.00000  Uiso   1.00
C426   C     0.01920   0.31835   0.73564   0.00000  Uiso   1.00
C427   C     0.03559   0.16972   0.85559   0.00000  Uiso   1.00
C428   C     0.31117   0.01372   0.74984   0.00000  Uiso   1.00
C429   C     0.31808   0.06836   0.74951   0.00000  Uiso   1.00
C430   C     0.29762   0.16290   0.64467   0.00000  Uiso   1.00
C431   C     0.26535   0.09135   0.50402   0.00000  Uiso   1.00
C432   C     0.27748   0.15328   0.58426   0.00000  Uiso   1.00
C433   C     0.02693   0.20474   0.95252   0.00000  Uiso   1.00
C434   C     0.04913   0.20965   0.51058   0.00000  Uiso   1.00
C435   C     0.13148   0.16210   0.99669   0.00000  Uiso   1.00
C436   C     0.10168   0.18974   0.53251   0.00000  Uiso   1.00
C437   C     0.10207   0.14600   0.94162   0.00000  Uiso   1.00
C438   C     0.18907   0.14872   0.51424   0.00000  Uiso   1.00
C439   C     0.21023   0.10842   0.98374   0.00000  Uiso   1.00
C440   C     0.17579   0.08568   0.93375   0.00000  Uiso   1.00
C441   C     0.12276   0.10499   0.91217   0.00000  Uiso   1.00
C442   C     0.22718   0.17596   0.55963   0.00000  Uiso   1.00
C443   C     0.29786   0.11225   0.55565   0.00000  Uiso   1.00
H444   H     0.00385   0.09486   0.57444   0.00000  Uiso   1.00
H445   H     0.25120   0.24265   0.60229   0.00000  Uiso   1.00
H446   H     0.32030   0.24769   0.89628   0.00000  Uiso   1.00
H447   H     0.08638   0.31110   0.69897   0.00000  Uiso   1.00
H448   H     0.27409   0.33075   0.76632   0.00000  Uiso   1.00
H449   H     0.15659   0.12497   0.70812   0.00000  Uiso   1.00
H450   H     0.17674   0.20836   0.79189   0.00000  Uiso   1.00
H451   H     0.19069   0.05424   0.91038   0.00000  Uiso   1.00
H452   H     0.28162   0.05999   0.98175   0.00000  Uiso   1.00
H453   H     0.11804   0.19551   0.57770   0.00000  Uiso   1.00
H454   H     0.02769   0.23213   0.53830   0.00000  Uiso   1.00
H455   H     0.09767   0.08688   0.87281   0.00000  Uiso   1.00
N456   N     0.14493   0.15223   0.73543   0.00000  Uiso   1.00
N457   N     0.18840   0.18110   0.76458   0.00000  Uiso   1.00
O458   O     0.29769   0.24629   0.75358   0.00000  Uiso   1.00
O459   O     0.31377   0.23293   0.93211   0.00000  Uiso   1.00
O460   O     0.06331   0.00581   0.70990   0.00000  Uiso   1.00
O461   O     0.05742   0.23704   0.74424   0.00000  Uiso   1.00
O462   O     0.31490   0.17358   0.83380   0.00000  Uiso   1.00
O463   O     0.07463   0.16433   0.82446   0.00000  Uiso   1.00
O464   O     0.27592   0.09629   0.75577   0.00000  Uiso   1.00
O465   O     0.03565   0.08704   0.74643   0.00000  Uiso   1.00
O466   O     0.25870   0.16901   0.67554   0.00000  Uiso   1.00
O467   O     0.01843   0.15976   0.66620   0.00000  Uiso   1.00
O468   O     0.21531   0.22464   0.57880   0.00000  Uiso   1.00
Zn469  Zn    0.27119   0.17284   0.75624   0.00000  Uiso   1.00
Zn470  Zn    0.06214   0.16049   0.74377   0.00000  Uiso   1.00
C471   C     0.34741   0.26462   0.74570   0.00000  Uiso   1.00
C472   C     0.38684   0.17223   0.91733   0.00000  Uiso   1.00
C473   C     0.35254   0.31835   0.73564   0.00000  Uiso   1.00
C474   C     0.36892   0.16972   0.85559   0.00000  Uiso   1.00
C475   C     0.64450   0.01372   0.74984   0.00000  Uiso   1.00
C476   C     0.65141   0.06836   0.74951   0.00000  Uiso   1.00
C477   C     0.63095   0.16290   0.64467   0.00000  Uiso   1.00
C478   C     0.59868   0.09135   0.50402   0.00000  Uiso   1.00
C479   C     0.61082   0.15328   0.58426   0.00000  Uiso   1.00
C480   C     0.36027   0.20474   0.95252   0.00000  Uiso   1.00
C481   C     0.38246   0.20965   0.51058   0.00000  Uiso   1.00
C482   C     0.46481   0.16210   0.99669   0.00000  Uiso   1.00
C483   C     0.43501   0.18974   0.53251   0.00000  Uiso   1.00
C484   C     0.43541   0.14600   0.94162   0.00000  Uiso   1.00
C485   C     0.52240   0.14872   0.51424   0.00000  Uiso   1.00
C486   C     0.54356   0.10842   0.98374   0.00000  Uiso   1.00
C487   C     0.50913   0.08568   0.93375   0.00000  Uiso   1.00
C488   C     0.45609   0.10499   0.91217   0.00000  Uiso   1.00
C489   C     0.56051   0.17596   0.55963   0.00000  Uiso   1.00
C490   C     0.63119   0.11225   0.55565   0.00000  Uiso   1.00
H491   H     0.33719   0.09486   0.57444   0.00000  Uiso   1.00
H492   H     0.58454   0.24265   0.60229   0.00000  Uiso   1.00
H493   H     0.65363   0.24769   0.89628   0.00000  Uiso   1.00
H494   H     0.41971   0.31110   0.69897   0.00000  Uiso   1.00
H495   H     0.60742   0.33075   0.76632   0.00000  Uiso   1.00
H496   H     0.48992   0.12497   0.70812   0.00000  Uiso   1.00
H497   H     0.51007   0.20836   0.79189   0.00000  Uiso   1.00
H498   H     0.52402   0.05424   0.91038   0.00000  Uiso   1.00
H499   H     0.61495   0.05999   0.98175   0.00000  Uiso   1.00
H500   H     0.45138   0.19551   0.57770   0.00000  Uiso   1.00
H501   H     0.36103   0.23213   0.53830   0.00000  Uiso   1.00
H502   H     0.43101   0.08688   0.87281   0.00000  Uiso   1.00
N503   N     0.47827   0.15223   0.73543   0.00000  Uiso   1.00
N504   N     0.52173   0.18110   0.76458   0.00000  Uiso   1.00
O505   O     0.63102   0.24629   0.75358   0.00000  Uiso   1.00
O506   O     0.64710   0.23293   0.93211   0.00000  Uiso   1.00
O507   O     0.39664   0.00581   0.70990   0.00000  Uiso   1.00
O508   O     0.39075   0.23704   0.74424   0.00000  Uiso   1.00
O509   O     0.64823   0.17358   0.83380   0.00000  Uiso   1.00
O510   O     0.40796   0.16433   0.82446   0.00000  Uiso   1.00
O511   O     0.60925   0.09629   0.75577   0.00000  Uiso   1.00
O512   O     0.36898   0.08704   0.74643   0.00000  Uiso   1.00
O513   O     0.59204   0.16901   0.67554   0.00000  Uiso   1.00
O514   O     0.35177   0.15976   0.66620   0.00000  Uiso   1.00
O515   O     0.54864   0.22464   0.57880   0.00000  Uiso   1.00
Zn516  Zn    0.60453   0.17284   0.75624   0.00000  Uiso   1.00
Zn517  Zn    0.39547   0.16049   0.74377   0.00000  Uiso   1.00
C518   C     0.68074   0.26462   0.74570   0.00000  Uiso   1.00
C519   C     0.72018   0.17223   0.91733   0.00000  Uiso   1.00
C520   C     0.68587   0.31835   0.73564   0.00000  Uiso   1.00
C521   C     0.70225   0.16972   0.85559   0.00000  Uiso   1.00
C522   C     0.97783   0.01372   0.74984   0.00000  Uiso   1.00
C523   C     0.98474   0.06836   0.74951   0.00000  Uiso   1.00
C524   C     0.96429   0.16290   0.64467   0.00000  Uiso   1.00
C525   C     0.93202   0.09135   0.50402   0.00000  Uiso   1.00
C526   C     0.94415   0.15328   0.58426   0.00000  Uiso   1.00
C527   C     0.69360   0.20474   0.95252   0.00000  Uiso   1.00
C528   C     0.71580   0.20965   0.51058   0.00000  Uiso   1.00
C529   C     0.79815   0.16210   0.99669   0.00000  Uiso   1.00
C530   C     0.76834   0.18974   0.53251   0.00000  Uiso   1.00
C531   C     0.76874   0.14600   0.94162   0.00000  Uiso   1.00
C532   C     0.85573   0.14872   0.51424   0.00000  Uiso   1.00
C533   C     0.87690   0.10842   0.98374   0.00000  Uiso   1.00
C534   C     0.84246   0.08568   0.93375   0.00000  Uiso   1.00
C535   C     0.78943   0.10499   0.91217   0.00000  Uiso   1.00
C536   C     0.89384   0.17596   0.55963   0.00000  Uiso   1.00
C537   C     0.96453   0.11225   0.55565   0.00000  Uiso   1.00
H538   H     0.67052   0.09486   0.57444   0.00000  Uiso   1.00
H539   H     0.91787   0.24265   0.60229   0.00000  Uiso   1.00
H540   H     0.98696   0.24769   0.89628   0.00000  Uiso   1.00
H541   H     0.75304   0.31110   0.69897   0.00000  Uiso   1.00
H542   H     0.94076   0.33075   0.76632   0.00000  Uiso   1.00
H543   H     0.82326   0.12497   0.70812   0.00000  Uiso   1.00
H544   H     0.84341   0.20836   0.79189   0.00000  Uiso   1.00
H545   H     0.85735   0.05424   0.91038   0.00000  Uiso   1.00
H546   H     0.94829   0.05999   0.98175   0.00000  Uiso   1.00
H547   H     0.78471   0.19551   0.57770   0.00000  Uiso   1.00
H548   H     0.69436   0.23213   0.53830   0.00000  Uiso   1.00
H549   H     0.76434   0.08688   0.87281   0.00000  Uiso   1.00
N550   N     0.81160   0.15223   0.73543   0.00000  Uiso   1.00
N551   N     0.85507   0.18110   0.76458   0.00000  Uiso   1.00
O552   O     0.96435   0.24629   0.75358   0.00000  Uiso   1.00
O553   O     0.98043   0.23293   0.93211   0.00000  Uiso   1.00
O554   O     0.72998   0.00581   0.70990   0.00000  Uiso   1.00
O555   O     0.72408   0.23704   0.74424   0.00000  Uiso   1.00
O556   O     0.98157   0.17358   0.83380   0.00000  Uiso   1.00
O557   O     0.74130   0.16433   0.82446   0.00000  Uiso   1.00
O558   O     0.94258   0.09629   0.75577   0.00000  Uiso   1.00
O559   O     0.70231   0.08704   0.74643   0.00000  Uiso   1.00
O560   O     0.92537   0.16901   0.67554   0.00000  Uiso   1.00
O561   O     0.68510   0.15976   0.66620   0.00000  Uiso   1.00
O562   O     0.88197   0.22464   0.57880   0.00000  Uiso   1.00
Zn563  Zn    0.93786   0.17284   0.75624   0.00000  Uiso   1.00
Zn564  Zn    0.72881   0.16049   0.74377   0.00000  Uiso   1.00
C565   C     0.01407   0.59796   0.74570   0.00000  Uiso   1.00
C566   C     0.05351   0.50556   0.91733   0.00000  Uiso   1.00
C567   C     0.01920   0.65169   0.73564   0.00000  Uiso   1.00
C568   C     0.03559   0.50306   0.85559   0.00000  Uiso   1.00
C569   C     0.31117   0.34705   0.74984   0.00000  Uiso   1.00
C570   C     0.31808   0.40169   0.74951   0.00000  Uiso   1.00
C571   C     0.29762   0.49624   0.64467   0.00000  Uiso   1.00
C572   C     0.26535   0.42469   0.50402   0.00000  Uiso   1.00
C573   C     0.27748   0.48662   0.58426   0.00000  Uiso   1.00
C574   C     0.02693   0.53807   0.95252   0.00000  Uiso   1.00
C575   C     0.04913   0.54298   0.51058   0.00000  Uiso   1.00
C576   C     0.13148   0.49543   0.99669   0.00000  Uiso   1.00
C577   C     0.10168   0.52307   0.53251   0.00000  Uiso   1.00
C578   C     0.10207   0.47934   0.94162   0.00000  Uiso   1.00
C579   C     0.18907   0.48206   0.51424   0.00000  Uiso   1.00
C580   C     0.21023   0.44175   0.98374   0.00000  Uiso   1.00
C581   C     0.17579   0.41902   0.93375   0.00000  Uiso   1.00
C582   C     0.12276   0.43832   0.91217   0.00000  Uiso   1.00
C583   C     0.22718   0.50929   0.55963   0.00000  Uiso   1.00
C584   C     0.29786   0.44558   0.55565   0.00000  Uiso   1.00
H585   H     0.00385   0.42820   0.57444   0.00000  Uiso   1.00
H586   H     0.25120   0.57599   0.60229   0.00000  Uiso   1.00
H587   H     0.32030   0.58102   0.89628   0.00000  Uiso   1.00
H588   H     0.08638   0.64444   0.69897   0.00000  Uiso   1.00
H589   H     0.27409   0.66408   0.76632   0.00000  Uiso   1.00
H590   H     0.15659   0.45830   0.70812   0.00000  Uiso   1.00
H591   H     0.17674   0.54169   0.79189   0.00000  Uiso   1.00
H592   H     0.19069   0.38757   0.91038   0.00000  Uiso   1.00
H593   H     0.28162   0.39332   0.98175   0.00000  Uiso   1.00
H594   H     0.11804   0.52884   0.57770   0.00000  Uiso   1.00
H595   H     0.02769   0.56546   0.53830   0.00000  Uiso   1.00
H596   H     0.09767   0.42021   0.87281   0.00000  Uiso   1.00
N597   N     0.14493   0.48556   0.73543   0.00000  Uiso   1.00
N598   N     0.18840   0.51444   0.76458   0.00000  Uiso   1.00
O599   O     0.29769   0.57963   0.75358   0.00000  Uiso   1.00
O600   O     0.31377   0.56626   0.93211   0.00000  Uiso   1.00
O601   O     0.06331   0.33914   0.70990   0.00000  Uiso   1.00
O602   O     0.05742   0.57038   0.74424   0.00000  Uiso   1.00
O603   O     0.31490   0.50691   0.83380   0.00000  Uiso   1.00
O604   O     0.07463   0.49766   0.82446   0.00000  Uiso   1.00
O605   O     0.27592   0.42962   0.75577   0.00000  Uiso   1.00
O606   O     0.03565   0.42037   0.74643   0.00000  Uiso   1.00
O607   O     0.25870   0.50234   0.67554   0.00000  Uiso   1.00
O608   O     0.01843   0.49309   0.66620   0.00000  Uiso   1.00
O609   O     0.21531   0.55798   0.57880   0.00000  Uiso   1.00
Zn610  Zn    0.27119   0.50618   0.75624   0.00000  Uiso   1.00
Zn611  Zn    0.06214   0.49382   0.74377   0.00000  Uiso   1.00
C612   C     0.34741   0.59796   0.74570   0.00000  Uiso   1.00
C613   C     0.38684   0.50556   0.91733   0.00000  Uiso   1.00
C614   C     0.35254   0.65169   0.73564   0.00000  Uiso   1.00
C615   C     0.36892   0.50306   0.85559   0.00000  Uiso   1.00
C616   C     0.64450   0.34705   0.74984   0.00000  Uiso   1.00
C617   C     0.65141   0.40169   0.74951   0.00000  Uiso   1.00
C618   C     0.63095   0.49624   0.64467   0.00000  Uiso   1.00
C619   C     0.59868   0.42469   0.50402   0.00000  Uiso   1.00
C620   C     0.61082   0.48662   0.58426   0.00000  Uiso   1.00
C621   C     0.36027   0.53807   0.95252   0.00000  Uiso   1.00
C622   C     0.38246   0.54298   0.51058   0.00000  Uiso   1.00
C623   C     0.46481   0.49543   0.99669   0.00000  Uiso   1.00
C624   C     0.43501   0.52307   0.53251   0.00000  Uiso   1.00
C625   C     0.43541   0.47934   0.94162   0.00000  Uiso   1.00
C626   C     0.52240   0.48206   0.51424   0.00000  Uiso   1.00
C627   C     0.54356   0.44175   0.98374   0.00000  Uiso   1.00
C628   C     0.50913   0.41902   0.93375   0.00000  Uiso   1.00
C629   C     0.45609   0.43832   0.91217   0.00000  Uiso   1.00
C630   C     0.56051   0.50929   0.55963   0.00000  Uiso   1.00
C631   C     0.63119   0.44558   0.55565   0.00000  Uiso   1.00
H632   H     0.33719   0.42820   0.57444   0.00000  Uiso   1.00
H633   H     0.58454   0.57599   0.60229   0.00000  Uiso   1.00
H634   H     0.65363   0.58102   0.89628   0.00000  Uiso   1.00
H635   H     0.41971   0.64444   0.69897   0.00000  Uiso   1.00
H636   H     0.60742   0.66408   0.76632   0.00000  Uiso   1.00
H637   H     0.48992   0.45830   0.70812   0.00000  Uiso   1.00
H638   H     0.51007   0.54169   0.79189   0.00000  Uiso   1.00
H639   H     0.52402   0.38757   0.91038   0.00000  Uiso   1.00
H640   H     0.61495   0.39332   0.98175   0.00000  Uiso   1.00
H641   H     0.45138   0.52884   0.57770   0.00000  Uiso   1.00
H642   H     0.36103   0.56546   0.53830   0.00000  Uiso   1.00
H643   H     0.43101   0.42021   0.87281   0.00000  Uiso   1.00
N644   N     0.47827   0.48556   0.73543   0.00000  Uiso   1.00
N645   N     0.52173   0.51444   0.76458   0.00000  Uiso   1.00
O646   O     0.63102   0.57963   0.75358   0.00000  Uiso   1.00
O647   O     0.64710   0.56626   0.93211   0.00000  Uiso   1.00
O648   O     0.39664   0.33914   0.70990   0.00000  Uiso   1.00
O649   O     0.39075   0.57038   0.74424   0.00000  Uiso   1.00
O650   O     0.64823   0.50691   0.83380   0.00000  Uiso   1.00
O651   O     0.40796   0.49766   0.82446   0.00000  Uiso   1.00
O652   O     0.60925   0.42962   0.75577   0.00000  Uiso   1.00
O653   O     0.36898   0.42037   0.74643   0.00000  Uiso   1.00
O654   O     0.59204   0.50234   0.67554   0.00000  Uiso   1.00
O655   O     0.35177   0.49309   0.66620   0.00000  Uiso   1.00
O656   O     0.54864   0.55798   0.57880   0.00000  Uiso   1.00
Zn657  Zn    0.60453   0.50618   0.75624   0.00000  Uiso   1.00
Zn658  Zn    0.39547   0.49382   0.74377   0.00000  Uiso   1.00
C659   C     0.68074   0.59796   0.74570   0.00000  Uiso   1.00
C660   C     0.72018   0.50556   0.91733   0.00000  Uiso   1.00
C661   C     0.68587   0.65169   0.73564   0.00000  Uiso   1.00
C662   C     0.70225   0.50306   0.85559   0.00000  Uiso   1.00
C663   C     0.97783   0.34705   0.74984   0.00000  Uiso   1.00
C664   C     0.98474   0.40169   0.74951   0.00000  Uiso   1.00
C665   C     0.96429   0.49624   0.64467   0.00000  Uiso   1.00
C666   C     0.93202   0.42469   0.50402   0.00000  Uiso   1.00
C667   C     0.94415   0.48662   0.58426   0.00000  Uiso   1.00
C668   C     0.69360   0.53807   0.95252   0.00000  Uiso   1.00
C669   C     0.71580   0.54298   0.51058   0.00000  Uiso   1.00
C670   C     0.79815   0.49543   0.99669   0.00000  Uiso   1.00
C671   C     0.76834   0.52307   0.53251   0.00000  Uiso   1.00
C672   C     0.76874   0.47934   0.94162   0.00000  Uiso   1.00
C673   C     0.85573   0.48206   0.51424   0.00000  Uiso   1.00
C674   C     0.87690   0.44175   0.98374   0.00000  Uiso   1.00
C675   C     0.84246   0.41902   0.93375   0.00000  Uiso   1.00
C676   C     0.78943   0.43832   0.91217   0.00000  Uiso   1.00
C677   C     0.89384   0.50929   0.55963   0.00000  Uiso   1.00
C678   C     0.96453   0.44558   0.55565   0.00000  Uiso   1.00
H679   H     0.67052   0.42820   0.57444   0.00000  Uiso   1.00
H680   H     0.91787   0.57599   0.60229   0.00000  Uiso   1.00
H681   H     0.98696   0.58102   0.89628   0.00000  Uiso   1.00
H682   H     0.75304   0.64444   0.69897   0.00000  Uiso   1.00
H683   H     0.94076   0.66408   0.76632   0.00000  Uiso   1.00
H684   H     0.82326   0.45830   0.70812   0.00000  Uiso   1.00
H685   H     0.84341   0.54169   0.79189   0.00000  Uiso   1.00
H686   H     0.85735   0.38757   0.91038   0.00000  Uiso   1.00
H687   H     0.94829   0.39332   0.98175   0.00000  Uiso   1.00
H688   H     0.78471   0.52884   0.57770   0.00000  Uiso   1.00
H689   H     0.69436   0.56546   0.53830   0.00000  Uiso   1.00
H690   H     0.76434   0.42021   0.87281   0.00000  Uiso   1.00
N691   N     0.81160   0.48556   0.73543   0.00000  Uiso   1.00
N692   N     0.85507   0.51444   0.76458   0.00000  Uiso   1.00
O693   O     0.96435   0.57963   0.75358   0.00000  Uiso   1.00
O694   O     0.98043   0.56626   0.93211   0.00000  Uiso   1.00
O695   O     0.72998   0.33914   0.70990   0.00000  Uiso   1.00
O696   O     0.72408   0.57038   0.74424   0.00000  Uiso   1.00
O697   O     0.98157   0.50691   0.83380   0.00000  Uiso   1.00
O698   O     0.74130   0.49766   0.82446   0.00000  Uiso   1.00
O699   O     0.94258   0.42962   0.75577   0.00000  Uiso   1.00
O700   O     0.70231   0.42037   0.74643   0.00000  Uiso   1.00
O701   O     0.92537   0.50234   0.67554   0.00000  Uiso   1.00
O702   O     0.68510   0.49309   0.66620   0.00000  Uiso   1.00
O703   O     0.88197   0.55798   0.57880   0.00000  Uiso   1.00
Zn704  Zn    0.93786   0.50618   0.75624   0.00000  Uiso   1.00
Zn705  Zn    0.72881   0.49382   0.74377   0.00000  Uiso   1.00
C706   C     0.01407   0.93129   0.74570   0.00000  Uiso   1.00
C707   C     0.05351   0.83889   0.91733   0.00000  Uiso   1.00
C708   C     0.01920   0.98502   0.73564   0.00000  Uiso   1.00
C709   C     0.03559   0.83639   0.85559   0.00000  Uiso   1.00
C710   C     0.31117   0.68039   0.74984   0.00000  Uiso   1.00
C711   C     0.31808   0.73502   0.74951   0.00000  Uiso   1.00
C712   C     0.29762   0.82957   0.64467   0.00000  Uiso   1.00
C713   C     0.26535   0.75802   0.50402   0.00000  Uiso   1.00
C714   C     0.27748   0.81995   0.58426   0.00000  Uiso   1.00
C715   C     0.02693   0.87140   0.95252   0.00000  Uiso   1.00
C716   C     0.04913   0.87631   0.51058   0.00000  Uiso   1.00
C717   C     0.13148   0.82876   0.99669   0.00000  Uiso   1.00
C718   C     0.10168   0.85641   0.53251   0.00000  Uiso   1.00
C719   C     0.10207   0.81267   0.94162   0.00000  Uiso   1.00
C720   C     0.18907   0.81539   0.51424   0.00000  Uiso   1.00
C721   C     0.21023   0.77508   0.98374   0.00000  Uiso   1.00
C722   C     0.17579   0.75235   0.93375   0.00000  Uiso   1.00
C723   C     0.12276   0.77166   0.91217   0.00000  Uiso   1.00
C724   C     0.22718   0.84263   0.55963   0.00000  Uiso   1.00
C725   C     0.29786   0.77891   0.55565   0.00000  Uiso   1.00
H726   H     0.00385   0.76153   0.57444   0.00000  Uiso   1.00
H727   H     0.25120   0.90932   0.60229   0.00000  Uiso   1.00
H728   H     0.32030   0.91436   0.89628   0.00000  Uiso   1.00
H729   H     0.08638   0.97777   0.69897   0.00000  Uiso   1.00
H730   H     0.27409   0.99742   0.76632   0.00000  Uiso   1.00
H731   H     0.15659   0.79163   0.70812   0.00000  Uiso   1.00
H732   H     0.17674   0.87503   0.79189   0.00000  Uiso   1.00
H733   H     0.19069   0.72090   0.91038   0.00000  Uiso   1.00
H734   H     0.28162   0.72665   0.98175   0.00000  Uiso   1.00
H735   H     0.11804   0.86217   0.57770   0.00000  Uiso   1.00
H736   H     0.02769   0.89880   0.53830   0.00000  Uiso   1.00
H737   H     0.09767   0.75354   0.87281   0.00000  Uiso   1.00
N738   N     0.14493   0.81890   0.73543   0.00000  Uiso   1.00
N739   N     0.18840   0.84777   0.76458   0.00000  Uiso   1.00
O740   O     0.29769   0.91296   0.75358   0.00000  Uiso   1.00
O741   O     0.31377   0.89959   0.93211   0.00000  Uiso   1.00
O742   O     0.06331   0.67248   0.70990   0.00000  Uiso   1.00
O743   O     0.05742   0.90371   0.74424   0.00000  Uiso   1.00
O744   O     0.31490   0.84024   0.83380   0.00000  Uiso   1.00
O745   O     0.07463   0.83099   0.82446   0.00000  Uiso   1.00
O746   O     0.27592   0.76296   0.75577   0.00000  Uiso   1.00
O747   O     0.03565   0.75371   0.74643   0.00000  Uiso   1.00
O748   O     0.25870   0.83567   0.67554   0.00000  Uiso   1.00
O749   O     0.01843   0.82642   0.66620   0.00000  Uiso   1.00
O750   O     0.21531   0.89131   0.57880   0.00000  Uiso   1.00
Zn751  Zn    0.27119   0.83951   0.75624   0.00000  Uiso   1.00
Zn752  Zn    0.06214   0.82716   0.74377   0.00000  Uiso   1.00
C753   C     0.34741   0.93129   0.74570   0.00000  Uiso   1.00
C754   C     0.38684   0.83889   0.91733   0.00000  Uiso   1.00
C755   C     0.35254   0.98502   0.73564   0.00000  Uiso   1.00
C756   C     0.36892   0.83639   0.85559   0.00000  Uiso   1.00
C757   C     0.64450   0.68039   0.74984   0.00000  Uiso   1.00
C758   C     0.65141   0.73502   0.74951   0.00000  Uiso   1.00
C759   C     0.63095   0.82957   0.64467   0.00000  Uiso   1.00
C760   C     0.59868   0.75802   0.50402   0.00000  Uiso   1.00
C761   C     0.61082   0.81995   0.58426   0.00000  Uiso   1.00
C762   C     0.36027   0.87140   0.95252   0.00000  Uiso   1.00
C763   C     0.38246   0.87631   0.51058   0.00000  Uiso   1.00
C764   C     0.46481   0.82876   0.99669   0.00000  Uiso   1.00
C765   C     0.43501   0.85641   0.53251   0.00000  Uiso   1.00
C766   C     0.43541   0.81267   0.94162   0.00000  Uiso   1.00
C767   C     0.52240   0.81539   0.51424   0.00000  Uiso   1.00
C768   C     0.54356   0.77508   0.98374   0.00000  Uiso   1.00
C769   C     0.50913   0.75235   0.93375   0.00000  Uiso   1.00
C770   C     0.45609   0.77166   0.91217   0.00000  Uiso   1.00
C771   C     0.56051   0.84263   0.55963   0.00000  Uiso   1.00
C772   C     0.63119   0.77891   0.55565   0.00000  Uiso   1.00
H773   H     0.33719   0.76153   0.57444   0.00000  Uiso   1.00
H774   H     0.58454   0.90932   0.60229   0.00000  Uiso   1.00
H775   H     0.65363   0.91436   0.89628   0.00000  Uiso   1.00
H776   H     0.41971   0.97777   0.69897   0.00000  Uiso   1.00
H777   H     0.60742   0.99742   0.76632   0.00000  Uiso   1.00
H778   H     0.48992   0.79163   0.70812   0.00000  Uiso   1.00
H779   H     0.51007   0.87503   0.79189   0.00000  Uiso   1.00
H780   H     0.52402   0.72090   0.91038   0.00000  Uiso   1.00
H781   H     0.61495   0.72665   0.98175   0.00000  Uiso   1.00
H782   H     0.45138   0.86217   0.57770   0.00000  Uiso   1.00
H783   H     0.36103   0.89880   0.53830   0.00000  Uiso   1.00
H784   H     0.43101   0.75354   0.87281   0.00000  Uiso   1.00
N785   N     0.47827   0.81890   0.73543   0.00000  Uiso   1.00
N786   N     0.52173   0.84777   0.76458   0.00000  Uiso   1.00
O787   O     0.63102   0.91296   0.75358   0.00000  Uiso   1.00
O788   O     0.64710   0.89959   0.93211   0.00000  Uiso   1.00
O789   O     0.39664   0.67248   0.70990   0.00000  Uiso   1.00
O790   O     0.39075   0.90371   0.74424   0.00000  Uiso   1.00
O791   O     0.64823   0.84024   0.83380   0.00000  Uiso   1.00
O792   O     0.40796   0.83099   0.82446   0.00000  Uiso   1.00
O793   O     0.60925   0.76296   0.75577   0.00000  Uiso   1.00
O794   O     0.36898   0.75371   0.74643   0.00000  Uiso   1.00
O795   O     0.59204   0.83567   0.67554   0.00000  Uiso   1.00
O796   O     0.35177   0.82642   0.66620   0.00000  Uiso   1.00
O797   O     0.54864   0.89131   0.57880   0.00000  Uiso   1.00
Zn798  Zn    0.60453   0.83951   0.75624   0.00000  Uiso   1.00
Zn799  Zn    0.39547   0.82716   0.74377   0.00000  Uiso   1.00
C800   C     0.68074   0.93129   0.74570   0.00000  Uiso   1.00
C801   C     0.72018   0.83889   0.91733   0.00000  Uiso   1.00
C802   C     0.68587   0.98502   0.73564   0.00000  Uiso   1.00
C803   C     0.70225   0.83639   0.85559   0.00000  Uiso   1.00
C804   C     0.97783   0.68039   0.74984   0.00000  Uiso   1.00
C805   C     0.98474   0.73502   0.74951   0.00000  Uiso   1.00
C806   C     0.96429   0.82957   0.64467   0.00000  Uiso   1.00
C807   C     0.93202   0.75802   0.50402   0.00000  Uiso   1.00
C808   C     0.94415   0.81995   0.58426   0.00000  Uiso   1.00
C809   C     0.69360   0.87140   0.95252   0.00000  Uiso   1.00
C810   C     0.71580   0.87631   0.51058   0.00000  Uiso   1.00
C811   C     0.79815   0.82876   0.99669   0.00000  Uiso   1.00
C812   C     0.76834   0.85641   0.53251   0.00000  Uiso   1.00
C813   C     0.76874   0.81267   0.94162   0.00000  Uiso   1.00
C814   C     0.85573   0.81539   0.51424   0.00000  Uiso   1.00
C815   C     0.87690   0.77508   0.98374   0.00000  Uiso   1.00
C816   C     0.84246   0.75235   0.93375   0.00000  Uiso   1.00
C817   C     0.78943   0.77166   0.91217   0.00000  Uiso   1.00
C818   C     0.89384   0.84263   0.55963   0.00000  Uiso   1.00
C819   C     0.96453   0.77891   0.55565   0.00000  Uiso   1.00
H820   H     0.67052   0.76153   0.57444   0.00000  Uiso   1.00
H821   H     0.91787   0.90932   0.60229   0.00000  Uiso   1.00
H822   H     0.98696   0.91436   0.89628   0.00000  Uiso   1.00
H823   H     0.75304   0.97777   0.69897   0.00000  Uiso   1.00
H824   H     0.94076   0.99742   0.76632   0.00000  Uiso   1.00
H825   H     0.82326   0.79163   0.70812   0.00000  Uiso   1.00
H826   H     0.84341   0.87503   0.79189   0.00000  Uiso   1.00
H827   H     0.85735   0.72090   0.91038   0.00000  Uiso   1.00
H828   H     0.94829   0.72665   0.98175   0.00000  Uiso   1.00
H829   H     0.78471   0.86217   0.57770   0.00000  Uiso   1.00
H830   H     0.69436   0.89880   0.53830   0.00000  Uiso   1.00
H831   H     0.76434   0.75354   0.87281   0.00000  Uiso   1.00
N832   N     0.81160   0.81890   0.73543   0.00000  Uiso   1.00
N833   N     0.85507   0.84777   0.76458   0.00000  Uiso   1.00
O834   O     0.96435   0.91296   0.75358   0.00000  Uiso   1.00
O835   O     0.98043   0.89959   0.93211   0.00000  Uiso   1.00
O836   O     0.72998   0.67248   0.70990   0.00000  Uiso   1.00
O837   O     0.72408   0.90371   0.74424   0.00000  Uiso   1.00
O838   O     0.98157   0.84024   0.83380   0.00000  Uiso   1.00
O839   O     0.74130   0.83099   0.82446   0.00000  Uiso   1.00
O840   O     0.94258   0.76296   0.75577   0.00000  Uiso   1.00
O841   O     0.70231   0.75371   0.74643   0.00000  Uiso   1.00
O842   O     0.92537   0.83567   0.67554   0.00000  Uiso   1.00
O843   O     0.68510   0.82642   0.66620   0.00000  Uiso   1.00
O844   O     0.88197   0.89131   0.57880   0.00000  Uiso   1.00
Zn845  Zn    0.93786   0.83951   0.75624   0.00000  Uiso   1.00
Zn846  Zn    0.72881   0.82716   0.74377   0.00000  Uiso   1.00
loop_
_geom_bond_atom_site_label_1
_geom_bond_atom_site_label_2
_geom_bond_distance
_geom_bond_site_symmetry_2
_ccdc_geom_bond_type
C1     O38     1.288   .     A
C1     C3      1.416   .     S
C1     O129    1.278   1_455 S
C2     C4      1.461   .     S
C2     C14     1.409   .     A
C2     C10     1.424   .     A
C3     C240    1.348   1_455 S
C3     O178    1.390   .     S
C4     O40     1.301   .     A
C4     O133    1.288   1_455 S
C5     C6      1.407   .     S
C5     C332    1.348   1_545 S
C5     H307    1.088   1_545 S
C6     O41     1.293   .     A
C6     O89     1.272   .     S
C7     O43     1.297   .     A
C7     C9      1.444   .     S
C7     O91     1.287   .     S
C8     C20     1.391   .     A
C8     C439    1.401   1_554 S
C8     H452    1.084   1_554 S
C9     C20     1.401   .     A
C9     C19     1.395   .     A
C10    C434    1.391   .     S
C10    O130    1.378   1_455 S
C11    H31     1.083   .     S
C11    C13     1.388   .     A
C11    C433    1.391   1_554 S
C12    C14     1.402   .     A
C12    C436    1.412   .     S
C12    C438    1.409   .     S
C13    H30     1.081   .     S
C13    C435    1.412   1_554 S
C14    C18     1.415   .     A
C15    C19     1.398   .     A
C15    C435    1.409   1_554 S
C15    C439    1.421   1_554 S
C16    C17     1.394   .     A
C16    C431    1.401   .     S
C16    C438    1.421   .     S
C17    C18     1.389   .     A
C17    H28     1.084   .     S
C18    H32     1.082   .     S
C19    O45     1.385   .     S
C20    H68     1.083   .     S
H21    C114    1.083   1_455 S
H22    O45     0.992   .     S
H23    O36     0.990   .     S
H24    O178    0.990   .     S
H25    C146    1.088   .     S
H26    N33     1.029   .     S
H27    N34     1.029   .     S
H29    C431    1.084   .     S
N33    N34     1.288   .     D
N33    Zn47    2.017   .     S
N34    Zn46    2.017   .     S
O35    Zn46    1.957   .     S
O35    C48     1.278   .     S
O36    C57     1.378   .     S
O37    H306    0.990   1_545 S
O37    C285    1.390   1_545 S
O38    Zn47    1.985   .     S
O39    Zn46    1.947   .     S
O39    C51     1.288   .     S
O40    Zn47    1.904   .     S
O41    Zn46    1.985   .     S
O42    Zn47    1.957   .     S
O42    C100    1.272   1_455 S
O43    Zn46    1.904   .     S
O44    Zn47    1.947   .     S
O44    C101    1.287   1_455 S
C48    O85     1.288   .     A
C48    C50     1.416   .     S
C49    C51     1.461   .     S
C49    C61     1.409   .     A
C49    C57     1.424   .     A
C50    C146    1.348   .     S
C50    O225    1.390   .     S
C51    O87     1.301   .     A
C52    C53     1.407   .     S
C52    C379    1.348   1_545 S
C52    H354    1.088   1_545 S
C53    O88     1.293   .     A
C53    O136    1.272   .     S
C54    O90     1.297   .     A
C54    C56     1.444   .     S
C54    O138    1.287   .     S
C55    C67     1.391   .     A
C55    C486    1.401   1_554 S
C55    H499    1.084   1_554 S
C56    C67     1.401   .     A
C56    C66     1.395   .     A
C57    C481    1.391   .     S
C58    H78     1.083   .     S
C58    C60     1.388   .     A
C58    C480    1.391   1_554 S
C59    C61     1.402   .     A
C59    C483    1.412   .     S
C59    C485    1.409   .     S
C60    H77     1.081   .     S
C60    C482    1.412   1_554 S
C61    C65     1.415   .     A
C62    C66     1.398   .     A
C62    C482    1.409   1_554 S
C62    C486    1.421   1_554 S
C63    C64     1.394   .     A
C63    C478    1.401   .     S
C63    C485    1.421   .     S
C64    C65     1.389   .     A
C64    H75     1.084   .     S
C65    H79     1.082   .     S
C66    O92     1.385   .     S
C67    H115    1.083   .     S
H69    O92     0.992   .     S
H70    O83     0.990   .     S
H71    O225    0.990   .     S
H72    C193    1.088   .     S
H73    N80     1.029   .     S
H74    N81     1.029   .     S
H76    C478    1.084   .     S
N80    N81     1.288   .     D
N80    Zn94    2.017   .     S
N81    Zn93    2.017   .     S
O82    Zn93    1.957   .     S
O82    C95     1.278   .     S
O83    C104    1.378   .     S
O84    H353    0.990   1_545 S
O84    C332    1.390   1_545 S
O85    Zn94    1.985   .     S
O86    Zn93    1.947   .     S
O86    C98     1.288   .     S
O87    Zn94    1.904   .     S
O88    Zn93    1.985   .     S
O89    Zn94    1.957   .     S
O90    Zn93    1.904   .     S
O91    Zn94    1.947   .     S
C95    O132    1.288   .     A
C95    C97     1.416   .     S
C96    C98     1.461   .     S
C96    C108    1.409   .     A
C96    C104    1.424   .     A
C97    C193    1.348   .     S
C97    O272    1.390   .     S
C98    O134    1.301   .     A
C99    C100    1.407   .     S
C99    C285    1.348   1_645 S
C99    H401    1.088   1_545 S
C100   O135    1.293   .     A
C100   O42     1.272   1_655 S
C101   O137    1.297   .     A
C101   C103    1.444   .     S
C101   O44     1.287   1_655 S
C102   C114    1.391   .     A
C102   C533    1.401   1_554 S
C102   H546    1.084   1_554 S
C103   C114    1.401   .     A
C103   C113    1.395   .     A
C104   C528    1.391   .     S
C105   H125    1.083   .     S
C105   C107    1.388   .     A
C105   C527    1.391   1_554 S
C106   C108    1.402   .     A
C106   C530    1.412   .     S
C106   C532    1.409   .     S
C107   H124    1.081   .     S
C107   C529    1.412   1_554 S
C108   C112    1.415   .     A
C109   C113    1.398   .     A
C109   C529    1.409   1_554 S
C109   C533    1.421   1_554 S
C110   C111    1.394   .     A
C110   C525    1.401   .     S
C110   C532    1.421   .     S
C111   C112    1.389   .     A
C111   H122    1.084   .     S
C112   H126    1.082   .     S
C113   O139    1.385   .     S
C114   H21     1.083   1_655 S
H116   O139    0.992   .     S
H117   O130    0.990   .     S
H118   O272    0.990   .     S
H119   C240    1.088   .     S
H120   N127    1.029   .     S
H121   N128    1.029   .     S
H123   C525    1.084   .     S
N127   N128    1.288   .     D
N127   Zn141   2.017   .     S
N128   Zn140   2.017   .     S
O129   Zn140   1.957   .     S
O129   C1      1.278   1_655 S
O130   C10     1.378   1_655 S
O131   H400    0.990   1_545 S
O131   C379    1.390   1_545 S
O132   Zn141   1.985   .     S
O133   Zn140   1.947   .     S
O133   C4      1.288   1_655 S
O134   Zn141   1.904   .     S
O135   Zn140   1.985   .     S
O136   Zn141   1.957   .     S
O137   Zn140   1.904   .     S
O138   Zn141   1.947   .     S
C142   O179    1.288   .     A
C142   C144    1.416   .     S
C142   O270    1.278   1_455 S
C143   C145    1.461   .     S
C143   C155    1.409   .     A
C143   C151    1.424   .     A
C144   C381    1.348   1_455 S
C144   O319    1.390   .     S
C145   O181    1.301   .     A
C145   O274    1.288   1_455 S
C146   C147    1.407   .     S
C147   O182    1.293   .     A
C147   O230    1.272   .     S
C148   O184    1.297   .     A
C148   C150    1.444   .     S
C148   O232    1.287   .     S
C149   C161    1.391   .     A
C149   C580    1.401   1_554 S
C149   H593    1.084   1_554 S
C150   C161    1.401   .     A
C150   C160    1.395   .     A
C151   C575    1.391   .     S
C151   O271    1.378   1_455 S
C152   H172    1.083   .     S
C152   C154    1.388   .     A
C152   C574    1.391   1_554 S
C153   C155    1.402   .     A
C153   C577    1.412   .     S
C153   C579    1.409   .     S
C154   H171    1.081   .     S
C154   C576    1.412   1_554 S
C155   C159    1.415   .     A
C156   C160    1.398   .     A
C156   C576    1.409   1_554 S
C156   C580    1.421   1_554 S
C157   C158    1.394   .     A
C157   C572    1.401   .     S
C157   C579    1.421   .     S
C158   C159    1.389   .     A
C158   H169    1.084   .     S
C159   H173    1.082   .     S
C160   O186    1.385   .     S
C161   H209    1.083   .     S
H162   C255    1.083   1_455 S
H163   O186    0.992   .     S
H164   O177    0.990   .     S
H165   O319    0.990   .     S
H166   C287    1.088   .     S
H167   N174    1.029   .     S
H168   N175    1.029   .     S
H170   C572    1.084   .     S
N174   N175    1.288   .     D
N174   Zn188   2.017   .     S
N175   Zn187   2.017   .     S
O176   Zn187   1.957   .     S
O176   C189    1.278   .     S
O177   C198    1.378   .     S
O179   Zn188   1.985   .     S
O180   Zn187   1.947   .     S
O180   C192    1.288   .     S
O181   Zn188   1.904   .     S
O182   Zn187   1.985   .     S
O183   Zn188   1.957   .     S
O183   C241    1.272   1_455 S
O184   Zn187   1.904   .     S
O185   Zn188   1.947   .     S
O185   C242    1.287   1_455 S
C189   O226    1.288   .     A
C189   C191    1.416   .     S
C190   C192    1.461   .     S
C190   C202    1.409   .     A
C190   C198    1.424   .     A
C191   C287    1.348   .     S
C191   O366    1.390   .     S
C192   O228    1.301   .     A
C193   C194    1.407   .     S
C194   O229    1.293   .     A
C194   O277    1.272   .     S
C195   O231    1.297   .     A
C195   C197    1.444   .     S
C195   O279    1.287   .     S
C196   C208    1.391   .     A
C196   C627    1.401   1_554 S
C196   H640    1.084   1_554 S
C197   C208    1.401   .     A
C197   C207    1.395   .     A
C198   C622    1.391   .     S
C199   H219    1.083   .     S
C199   C201    1.388   .     A
C199   C621    1.391   1_554 S
C200   C202    1.402   .     A
C200   C624    1.412   .     S
C200   C626    1.409   .     S
C201   H218    1.081   .     S
C201   C623    1.412   1_554 S
C202   C206    1.415   .     A
C203   C207    1.398   .     A
C203   C623    1.409   1_554 S
C203   C627    1.421   1_554 S
C204   C205    1.394   .     A
C204   C619    1.401   .     S
C204   C626    1.421   .     S
C205   C206    1.389   .     A
C205   H216    1.084   .     S
C206   H220    1.082   .     S
C207   O233    1.385   .     S
C208   H256    1.083   .     S
H210   O233    0.992   .     S
H211   O224    0.990   .     S
H212   O366    0.990   .     S
H213   C334    1.088   .     S
H214   N221    1.029   .     S
H215   N222    1.029   .     S
H217   C619    1.084   .     S
N221   N222    1.288   .     D
N221   Zn235   2.017   .     S
N222   Zn234   2.017   .     S
O223   Zn234   1.957   .     S
O223   C236    1.278   .     S
O224   C245    1.378   .     S
O226   Zn235   1.985   .     S
O227   Zn234   1.947   .     S
O227   C239    1.288   .     S
O228   Zn235   1.904   .     S
O229   Zn234   1.985   .     S
O230   Zn235   1.957   .     S
O231   Zn234   1.904   .     S
O232   Zn235   1.947   .     S
C236   O273    1.288   .     A
C236   C238    1.416   .     S
C237   C239    1.461   .     S
C237   C249    1.409   .     A
C237   C245    1.424   .     A
C238   C334    1.348   .     S
C238   O413    1.390   .     S
C239   O275    1.301   .     A
C240   C241    1.407   .     S
C240   C3      1.348   1_655 S
C241   O276    1.293   .     A
C241   O183    1.272   1_655 S
C242   O278    1.297   .     A
C242   C244    1.444   .     S
C242   O185    1.287   1_655 S
C243   C255    1.391   .     A
C243   C674    1.401   1_554 S
C243   H687    1.084   1_554 S
C244   C255    1.401   .     A
C244   C254    1.395   .     A
C245   C669    1.391   .     S
C246   H266    1.083   .     S
C246   C248    1.388   .     A
C246   C668    1.391   1_554 S
C247   C249    1.402   .     A
C247   C671    1.412   .     S
C247   C673    1.409   .     S
C248   H265    1.081   .     S
C248   C670    1.412   1_554 S
C249   C253    1.415   .     A
C250   C254    1.398   .     A
C250   C670    1.409   1_554 S
C250   C674    1.421   1_554 S
C251   C252    1.394   .     A
C251   C666    1.401   .     S
C251   C673    1.421   .     S
C252   C253    1.389   .     A
C252   H263    1.084   .     S
C253   H267    1.082   .     S
C254   O280    1.385   .     S
C255   H162    1.083   1_655 S
H257   O280    0.992   .     S
H258   O271    0.990   .     S
H259   O413    0.990   .     S
H260   C381    1.088   .     S
H261   N268    1.029   .     S
H262   N269    1.029   .     S
H264   C666    1.084   .     S
N268   N269    1.288   .     D
N268   Zn282   2.017   .     S
N269   Zn281   2.017   .     S
O270   Zn281   1.957   .     S
O270   C142    1.278   1_655 S
O271   C151    1.378   1_655 S
O273   Zn282   1.985   .     S
O274   Zn281   1.947   .     S
O274   C145    1.288   1_655 S
O275   Zn282   1.904   .     S
O276   Zn281   1.985   .     S
O277   Zn282   1.957   .     S
O278   Zn281   1.904   .     S
O279   Zn282   1.947   .     S
C283   O320    1.288   .     A
C283   C285    1.416   .     S
C283   O411    1.278   1_455 S
C284   C286    1.461   .     S
C284   C296    1.409   .     A
C284   C292    1.424   .     A
C285   C99     1.348   1_465 S
C285   O37     1.390   1_565 S
C286   O322    1.301   .     A
C286   O415    1.288   1_455 S
C287   C288    1.407   .     S
C288   O323    1.293   .     A
C288   O371    1.272   .     S
C289   O325    1.297   .     A
C289   C291    1.444   .     S
C289   O373    1.287   .     S
C290   C302    1.391   .     A
C290   C721    1.401   1_554 S
C290   H734    1.084   1_554 S
C291   C302    1.401   .     A
C291   C301    1.395   .     A
C292   C716    1.391   .     S
C292   O412    1.378   1_455 S
C293   H313    1.083   .     S
C293   C295    1.388   .     A
C293   C715    1.391   1_554 S
C294   C296    1.402   .     A
C294   C718    1.412   .     S
C294   C720    1.409   .     S
C295   H312    1.081   .     S
C295   C717    1.412   1_554 S
C296   C300    1.415   .     A
C297   C301    1.398   .     A
C297   C717    1.409   1_554 S
C297   C721    1.421   1_554 S
C298   C299    1.394   .     A
C298   C713    1.401   .     S
C298   C720    1.421   .     S
C299   C300    1.389   .     A
C299   H310    1.084   .     S
C300   H314    1.082   .     S
C301   O327    1.385   .     S
C302   H350    1.083   .     S
H303   C396    1.083   1_455 S
H304   O327    0.992   .     S
H305   O318    0.990   .     S
H306   O37     0.990   1_565 S
H307   C5      1.088   1_565 S
H308   N315    1.029   .     S
H309   N316    1.029   .     S
H311   C713    1.084   .     S
N315   N316    1.288   .     D
N315   Zn329   2.017   .     S
N316   Zn328   2.017   .     S
O317   Zn328   1.957   .     S
O317   C330    1.278   .     S
O318   C339    1.378   .     S
O320   Zn329   1.985   .     S
O321   Zn328   1.947   .     S
O321   C333    1.288   .     S
O322   Zn329   1.904   .     S
O323   Zn328   1.985   .     S
O324   Zn329   1.957   .     S
O324   C382    1.272   1_455 S
O325   Zn328   1.904   .     S
O326   Zn329   1.947   .     S
O326   C383    1.287   1_455 S
C330   O367    1.288   .     A
C330   C332    1.416   .     S
C331   C333    1.461   .     S
C331   C343    1.409   .     A
C331   C339    1.424   .     A
C332   C5      1.348   1_565 S
C332   O84     1.390   1_565 S
C333   O369    1.301   .     A
C334   C335    1.407   .     S
C335   O370    1.293   .     A
C335   O418    1.272   .     S
C336   O372    1.297   .     A
C336   C338    1.444   .     S
C336   O420    1.287   .     S
C337   C349    1.391   .     A
C337   C768    1.401   1_554 S
C337   H781    1.084   1_554 S
C338   C349    1.401   .     A
C338   C348    1.395   .     A
C339   C763    1.391   .     S
C340   H360    1.083   .     S
C340   C342    1.388   .     A
C340   C762    1.391   1_554 S
C341   C343    1.402   .     A
C341   C765    1.412   .     S
C341   C767    1.409   .     S
C342   H359    1.081   .     S
C342   C764    1.412   1_554 S
C343   C347    1.415   .     A
C344   C348    1.398   .     A
C344   C764    1.409   1_554 S
C344   C768    1.421   1_554 S
C345   C346    1.394   .     A
C345   C760    1.401   .     S
C345   C767    1.421   .     S
C346   C347    1.389   .     A
C346   H357    1.084   .     S
C347   H361    1.082   .     S
C348   O374    1.385   .     S
C349   H397    1.083   .     S
H351   O374    0.992   .     S
H352   O365    0.990   .     S
H353   O84     0.990   1_565 S
H354   C52     1.088   1_565 S
H355   N362    1.029   .     S
H356   N363    1.029   .     S
H358   C760    1.084   .     S
N362   N363    1.288   .     D
N362   Zn376   2.017   .     S
N363   Zn375   2.017   .     S
O364   Zn375   1.957   .     S
O364   C377    1.278   .     S
O365   C386    1.378   .     S
O367   Zn376   1.985   .     S
O368   Zn375   1.947   .     S
O368   C380    1.288   .     S
O369   Zn376   1.904   .     S
O370   Zn375   1.985   .     S
O371   Zn376   1.957   .     S
O372   Zn375   1.904   .     S
O373   Zn376   1.947   .     S
C377   O414    1.288   .     A
C377   C379    1.416   .     S
C378   C380    1.461   .     S
C378   C390    1.409   .     A
C378   C386    1.424   .     A
C379   C52     1.348   1_565 S
C379   O131    1.390   1_565 S
C380   O416    1.301   .     A
C381   C382    1.407   .     S
C381   C144    1.348   1_655 S
C382   O417    1.293   .     A
C382   O324    1.272   1_655 S
C383   O419    1.297   .     A
C383   C385    1.444   .     S
C383   O326    1.287   1_655 S
C384   C396    1.391   .     A
C384   C815    1.401   1_554 S
C384   H828    1.084   1_554 S
C385   C396    1.401   .     A
C385   C395    1.395   .     A
C386   C810    1.391   .     S
C387   H407    1.083   .     S
C387   C389    1.388   .     A
C387   C809    1.391   1_554 S
C388   C390    1.402   .     A
C388   C812    1.412   .     S
C388   C814    1.409   .     S
C389   H406    1.081   .     S
C389   C811    1.412   1_554 S
C390   C394    1.415   .     A
C391   C395    1.398   .     A
C391   C811    1.409   1_554 S
C391   C815    1.421   1_554 S
C392   C393    1.394   .     A
C392   C807    1.401   .     S
C392   C814    1.421   .     S
C393   C394    1.389   .     A
C393   H404    1.084   .     S
C394   H408    1.082   .     S
C395   O421    1.385   .     S
C396   H303    1.083   1_655 S
H398   O421    0.992   .     S
H399   O412    0.990   .     S
H400   O131    0.990   1_565 S
H401   C99     1.088   1_565 S
H402   N409    1.029   .     S
H403   N410    1.029   .     S
H405   C807    1.084   .     S
N409   N410    1.288   .     D
N409   Zn423   2.017   .     S
N410   Zn422   2.017   .     S
O411   Zn422   1.957   .     S
O411   C283    1.278   1_655 S
O412   C292    1.378   1_655 S
O414   Zn423   1.985   .     S
O415   Zn422   1.947   .     S
O415   C286    1.288   1_655 S
O416   Zn423   1.904   .     S
O417   Zn422   1.985   .     S
O418   Zn423   1.957   .     S
O419   Zn422   1.904   .     S
O420   Zn423   1.947   .     S
C424   O461    1.288   .     A
C424   C426    1.416   .     S
C424   O552    1.278   1_455 S
C425   C427    1.461   .     S
C425   C437    1.409   .     A
C425   C433    1.424   .     A
C426   C663    1.348   1_455 S
C426   O601    1.390   .     S
C427   O463    1.301   .     A
C427   O556    1.288   1_455 S
C428   C429    1.407   .     S
C428   C755    1.348   1_545 S
C428   H730    1.088   1_545 S
C429   O464    1.293   .     A
C429   O512    1.272   .     S
C430   O466    1.297   .     A
C430   C432    1.444   .     S
C430   O514    1.287   .     S
C431   C443    1.391   .     A
C432   C443    1.401   .     A
C432   C442    1.395   .     A
C433   C11     1.391   1_556 S
C433   O553    1.378   1_455 S
C434   H454    1.083   .     S
C434   C436    1.388   .     A
C435   C437    1.402   .     A
C435   C13     1.412   1_556 S
C435   C15     1.409   1_556 S
C436   H453    1.081   .     S
C437   C441    1.415   .     A
C438   C442    1.398   .     A
C439   C440    1.394   .     A
C439   C8      1.401   1_556 S
C439   C15     1.421   1_556 S
C440   C441    1.389   .     A
C440   H451    1.084   .     S
C441   H455    1.082   .     S
C442   O468    1.385   .     S
C443   H491    1.083   .     S
H444   C537    1.083   1_455 S
H445   O468    0.992   .     S
H446   O459    0.990   .     S
H447   O601    0.990   .     S
H448   C569    1.088   .     S
H449   N456    1.029   .     S
H450   N457    1.029   .     S
H452   C8      1.084   1_556 S
N456   N457    1.288   .     D
N456   Zn470   2.017   .     S
N457   Zn469   2.017   .     S
O458   Zn469   1.957   .     S
O458   C471    1.278   .     S
O459   C480    1.378   .     S
O460   H729    0.990   1_545 S
O460   C708    1.390   1_545 S
O461   Zn470   1.985   .     S
O462   Zn469   1.947   .     S
O462   C474    1.288   .     S
O463   Zn470   1.904   .     S
O464   Zn469   1.985   .     S
O465   Zn470   1.957   .     S
O465   C523    1.272   1_455 S
O466   Zn469   1.904   .     S
O467   Zn470   1.947   .     S
O467   C524    1.287   1_455 S
C471   O508    1.288   .     A
C471   C473    1.416   .     S
C472   C474    1.461   .     S
C472   C484    1.409   .     A
C472   C480    1.424   .     A
C473   C569    1.348   .     S
C473   O648    1.390   .     S
C474   O510    1.301   .     A
C475   C476    1.407   .     S
C475   C802    1.348   1_545 S
C475   H777    1.088   1_545 S
C476   O511    1.293   .     A
C476   O559    1.272   .     S
C477   O513    1.297   .     A
C477   C479    1.444   .     S
C477   O561    1.287   .     S
C478   C490    1.391   .     A
C479   C490    1.401   .     A
C479   C489    1.395   .     A
C480   C58     1.391   1_556 S
C481   H501    1.083   .     S
C481   C483    1.388   .     A
C482   C484    1.402   .     A
C482   C60     1.412   1_556 S
C482   C62     1.409   1_556 S
C483   H500    1.081   .     S
C484   C488    1.415   .     A
C485   C489    1.398   .     A
C486   C487    1.394   .     A
C486   C55     1.401   1_556 S
C486   C62     1.421   1_556 S
C487   C488    1.389   .     A
C487   H498    1.084   .     S
C488   H502    1.082   .     S
C489   O515    1.385   .     S
C490   H538    1.083   .     S
H492   O515    0.992   .     S
H493   O506    0.990   .     S
H494   O648    0.990   .     S
H495   C616    1.088   .     S
H496   N503    1.029   .     S
H497   N504    1.029   .     S
H499   C55     1.084   1_556 S
N503   N504    1.288   .     D
N503   Zn517   2.017   .     S
N504   Zn516   2.017   .     S
O505   Zn516   1.957   .     S
O505   C518    1.278   .     S
O506   C527    1.378   .     S
O507   H776    0.990   1_545 S
O507   C755    1.390   1_545 S
O508   Zn517   1.985   .     S
O509   Zn516   1.947   .     S
O509   C521    1.288   .     S
O510   Zn517   1.904   .     S
O511   Zn516   1.985   .     S
O512   Zn517   1.957   .     S
O513   Zn516   1.904   .     S
O514   Zn517   1.947   .     S
C518   O555    1.288   .     A
C518   C520    1.416   .     S
C519   C521    1.461   .     S
C519   C531    1.409   .     A
C519   C527    1.424   .     A
C520   C616    1.348   .     S
C520   O695    1.390   .     S
C521   O557    1.301   .     A
C522   C523    1.407   .     S
C522   C708    1.348   1_645 S
C522   H824    1.088   1_545 S
C523   O558    1.293   .     A
C523   O465    1.272   1_655 S
C524   O560    1.297   .     A
C524   C526    1.444   .     S
C524   O467    1.287   1_655 S
C525   C537    1.391   .     A
C526   C537    1.401   .     A
C526   C536    1.395   .     A
C527   C105    1.391   1_556 S
C528   H548    1.083   .     S
C528   C530    1.388   .     A
C529   C531    1.402   .     A
C529   C107    1.412   1_556 S
C529   C109    1.409   1_556 S
C530   H547    1.081   .     S
C531   C535    1.415   .     A
C532   C536    1.398   .     A
C533   C534    1.394   .     A
C533   C102    1.401   1_556 S
C533   C109    1.421   1_556 S
C534   C535    1.389   .     A
C534   H545    1.084   .     S
C535   H549    1.082   .     S
C536   O562    1.385   .     S
C537   H444    1.083   1_655 S
H539   O562    0.992   .     S
H540   O553    0.990   .     S
H541   O695    0.990   .     S
H542   C663    1.088   .     S
H543   N550    1.029   .     S
H544   N551    1.029   .     S
H546   C102    1.084   1_556 S
N550   N551    1.288   .     D
N550   Zn564   2.017   .     S
N551   Zn563   2.017   .     S
O552   Zn563   1.957   .     S
O552   C424    1.278   1_655 S
O553   C433    1.378   1_655 S
O554   H823    0.990   1_545 S
O554   C802    1.390   1_545 S
O555   Zn564   1.985   .     S
O556   Zn563   1.947   .     S
O556   C427    1.288   1_655 S
O557   Zn564   1.904   .     S
O558   Zn563   1.985   .     S
O559   Zn564   1.957   .     S
O560   Zn563   1.904   .     S
O561   Zn564   1.947   .     S
C565   O602    1.288   .     A
C565   C567    1.416   .     S
C565   O693    1.278   1_455 S
C566   C568    1.461   .     S
C566   C578    1.409   .     A
C566   C574    1.424   .     A
C567   C804    1.348   1_455 S
C567   O742    1.390   .     S
C568   O604    1.301   .     A
C568   O697    1.288   1_455 S
C569   C570    1.407   .     S
C570   O605    1.293   .     A
C570   O653    1.272   .     S
C571   O607    1.297   .     A
C571   C573    1.444   .     S
C571   O655    1.287   .     S
C572   C584    1.391   .     A
C573   C584    1.401   .     A
C573   C583    1.395   .     A
C574   C152    1.391   1_556 S
C574   O694    1.378   1_455 S
C575   H595    1.083   .     S
C575   C577    1.388   .     A
C576   C578    1.402   .     A
C576   C154    1.412   1_556 S
C576   C156    1.409   1_556 S
C577   H594    1.081   .     S
C578   C582    1.415   .     A
C579   C583    1.398   .     A
C580   C581    1.394   .     A
C580   C149    1.401   1_556 S
C580   C156    1.421   1_556 S
C581   C582    1.389   .     A
C581   H592    1.084   .     S
C582   H596    1.082   .     S
C583   O609    1.385   .     S
C584   H632    1.083   .     S
H585   C678    1.083   1_455 S
H586   O609    0.992   .     S
H587   O600    0.990   .     S
H588   O742    0.990   .     S
H589   C710    1.088   .     S
H590   N597    1.029   .     S
H591   N598    1.029   .     S
H593   C149    1.084   1_556 S
N597   N598    1.288   .     D
N597   Zn611   2.017   .     S
N598   Zn610   2.017   .     S
O599   Zn610   1.957   .     S
O599   C612    1.278   .     S
O600   C621    1.378   .     S
O602   Zn611   1.985   .     S
O603   Zn610   1.947   .     S
O603   C615    1.288   .     S
O604   Zn611   1.904   .     S
O605   Zn610   1.985   .     S
O606   Zn611   1.957   .     S
O606   C664    1.272   1_455 S
O607   Zn610   1.904   .     S
O608   Zn611   1.947   .     S
O608   C665    1.287   1_455 S
C612   O649    1.288   .     A
C612   C614    1.416   .     S
C613   C615    1.461   .     S
C613   C625    1.409   .     A
C613   C621    1.424   .     A
C614   C710    1.348   .     S
C614   O789    1.390   .     S
C615   O651    1.301   .     A
C616   C617    1.407   .     S
C617   O652    1.293   .     A
C617   O700    1.272   .     S
C618   O654    1.297   .     A
C618   C620    1.444   .     S
C618   O702    1.287   .     S
C619   C631    1.391   .     A
C620   C631    1.401   .     A
C620   C630    1.395   .     A
C621   C199    1.391   1_556 S
C622   H642    1.083   .     S
C622   C624    1.388   .     A
C623   C625    1.402   .     A
C623   C201    1.412   1_556 S
C623   C203    1.409   1_556 S
C624   H641    1.081   .     S
C625   C629    1.415   .     A
C626   C630    1.398   .     A
C627   C628    1.394   .     A
C627   C196    1.401   1_556 S
C627   C203    1.421   1_556 S
C628   C629    1.389   .     A
C628   H639    1.084   .     S
C629   H643    1.082   .     S
C630   O656    1.385   .     S
C631   H679    1.083   .     S
H633   O656    0.992   .     S
H634   O647    0.990   .     S
H635   O789    0.990   .     S
H636   C757    1.088   .     S
H637   N644    1.029   .     S
H638   N645    1.029   .     S
H640   C196    1.084   1_556 S
N644   N645    1.288   .     D
N644   Zn658   2.017   .     S
N645   Zn657   2.017   .     S
O646   Zn657   1.957   .     S
O646   C659    1.278   .     S
O647   C668    1.378   .     S
O649   Zn658   1.985   .     S
O650   Zn657   1.947   .     S
O650   C662    1.288   .     S
O651   Zn658   1.904   .     S
O652   Zn657   1.985   .     S
O653   Zn658   1.957   .     S
O654   Zn657   1.904   .     S
O655   Zn658   1.947   .     S
C659   O696    1.288   .     A
C659   C661    1.416   .     S
C660   C662    1.461   .     S
C660   C672    1.409   .     A
C660   C668    1.424   .     A
C661   C757    1.348   .     S
C661   O836    1.390   .     S
C662   O698    1.301   .     A
C663   C664    1.407   .     S
C663   C426    1.348   1_655 S
C664   O699    1.293   .     A
C664   O606    1.272   1_655 S
C665   O701    1.297   .     A
C665   C667    1.444   .     S
C665   O608    1.287   1_655 S
C666   C678    1.391   .     A
C667   C678    1.401   .     A
C667   C677    1.395   .     A
C668   C246    1.391   1_556 S
C669   H689    1.083   .     S
C669   C671    1.388   .     A
C670   C672    1.402   .     A
C670   C248    1.412   1_556 S
C670   C250    1.409   1_556 S
C671   H688    1.081   .     S
C672   C676    1.415   .     A
C673   C677    1.398   .     A
C674   C675    1.394   .     A
C674   C243    1.401   1_556 S
C674   C250    1.421   1_556 S
C675   C676    1.389   .     A
C675   H686    1.084   .     S
C676   H690    1.082   .     S
C677   O703    1.385   .     S
C678   H585    1.083   1_655 S
H680   O703    0.992   .     S
H681   O694    0.990   .     S
H682   O836    0.990   .     S
H683   C804    1.088   .     S
H684   N691    1.029   .     S
H685   N692    1.029   .     S
H687   C243    1.084   1_556 S
N691   N692    1.288   .     D
N691   Zn705   2.017   .     S
N692   Zn704   2.017   .     S
O693   Zn704   1.957   .     S
O693   C565    1.278   1_655 S
O694   C574    1.378   1_655 S
O696   Zn705   1.985   .     S
O697   Zn704   1.947   .     S
O697   C568    1.288   1_655 S
O698   Zn705   1.904   .     S
O699   Zn704   1.985   .     S
O700   Zn705   1.957   .     S
O701   Zn704   1.904   .     S
O702   Zn705   1.947   .     S
C706   O743    1.288   .     A
C706   C708    1.416   .     S
C706   O834    1.278   1_455 S
C707   C709    1.461   .     S
C707   C719    1.409   .     A
C707   C715    1.424   .     A
C708   C522    1.348   1_465 S
C708   O460    1.390   1_565 S
C709   O745    1.301   .     A
C709   O838    1.288   1_455 S
C710   C711    1.407   .     S
C711   O746    1.293   .     A
C711   O794    1.272   .     S
C712   O748    1.297   .     A
C712   C714    1.444   .     S
C712   O796    1.287   .     S
C713   C725    1.391   .     A
C714   C725    1.401   .     A
C714   C724    1.395   .     A
C715   C293    1.391   1_556 S
C715   O835    1.378   1_455 S
C716   H736    1.083   .     S
C716   C718    1.388   .     A
C717   C719    1.402   .     A
C717   C295    1.412   1_556 S
C717   C297    1.409   1_556 S
C718   H735    1.081   .     S
C719   C723    1.415   .     A
C720   C724    1.398   .     A
C721   C722    1.394   .     A
C721   C290    1.401   1_556 S
C721   C297    1.421   1_556 S
C722   C723    1.389   .     A
C722   H733    1.084   .     S
C723   H737    1.082   .     S
C724   O750    1.385   .     S
C725   H773    1.083   .     S
H726   C819    1.083   1_455 S
H727   O750    0.992   .     S
H728   O741    0.990   .     S
H729   O460    0.990   1_565 S
H730   C428    1.088   1_565 S
H731   N738    1.029   .     S
H732   N739    1.029   .     S
H734   C290    1.084   1_556 S
N738   N739    1.288   .     D
N738   Zn752   2.017   .     S
N739   Zn751   2.017   .     S
O740   Zn751   1.957   .     S
O740   C753    1.278   .     S
O741   C762    1.378   .     S
O743   Zn752   1.985   .     S
O744   Zn751   1.947   .     S
O744   C756    1.288   .     S
O745   Zn752   1.904   .     S
O746   Zn751   1.985   .     S
O747   Zn752   1.957   .     S
O747   C805    1.272   1_455 S
O748   Zn751   1.904   .     S
O749   Zn752   1.947   .     S
O749   C806    1.287   1_455 S
C753   O790    1.288   .     A
C753   C755    1.416   .     S
C754   C756    1.461   .     S
C754   C766    1.409   .     A
C754   C762    1.424   .     A
C755   C428    1.348   1_565 S
C755   O507    1.390   1_565 S
C756   O792    1.301   .     A
C757   C758    1.407   .     S
C758   O793    1.293   .     A
C758   O841    1.272   .     S
C759   O795    1.297   .     A
C759   C761    1.444   .     S
C759   O843    1.287   .     S
C760   C772    1.391   .     A
C761   C772    1.401   .     A
C761   C771    1.395   .     A
C762   C340    1.391   1_556 S
C763   H783    1.083   .     S
C763   C765    1.388   .     A
C764   C766    1.402   .     A
C764   C342    1.412   1_556 S
C764   C344    1.409   1_556 S
C765   H782    1.081   .     S
C766   C770    1.415   .     A
C767   C771    1.398   .     A
C768   C769    1.394   .     A
C768   C337    1.401   1_556 S
C768   C344    1.421   1_556 S
C769   C770    1.389   .     A
C769   H780    1.084   .     S
C770   H784    1.082   .     S
C771   O797    1.385   .     S
C772   H820    1.083   .     S
H774   O797    0.992   .     S
H775   O788    0.990   .     S
H776   O507    0.990   1_565 S
H777   C475    1.088   1_565 S
H778   N785    1.029   .     S
H779   N786    1.029   .     S
H781   C337    1.084   1_556 S
N785   N786    1.288   .     D
N785   Zn799   2.017   .     S
N786   Zn798   2.017   .     S
O787   Zn798   1.957   .     S
O787   C800    1.278   .     S
O788   C809    1.378   .     S
O790   Zn799   1.985   .     S
O791   Zn798   1.947   .     S
O791   C803    1.288   .     S
O792   Zn799   1.904   .     S
O793   Zn798   1.985   .     S
O794   Zn799   1.957   .     S
O795   Zn798   1.904   .     S
O796   Zn799   1.947   .     S
C800   O837    1.288   .     A
C800   C802    1.416   .     S
C801   C803    1.461   .     S
C801   C813    1.409   .     A
C801   C809    1.424   .     A
C802   C475    1.348   1_565 S
C802   O554    1.390   1_565 S
C803   O839    1.301   .     A
C804   C805    1.407   .     S
C804   C567    1.348   1_655 S
C805   O840    1.293   .     A
C805   O747    1.272   1_655 S
C806   O842    1.297   .     A
C806   C808    1.444   .     S
C806   O749    1.287   1_655 S
C807   C819    1.391   .     A
C808   C819    1.401   .     A
C808   C818    1.395   .     A
C809   C387    1.391   1_556 S
C810   H830    1.083   .     S
C810   C812    1.388   .     A
C811   C813    1.402   .     A
C811   C389    1.412   1_556 S
C811   C391    1.409   1_556 S
C812   H829    1.081   .     S
C813   C817    1.415   .     A
C814   C818    1.398   .     A
C815   C816    1.394   .     A
C815   C384    1.401   1_556 S
C815   C391    1.421   1_556 S
C816   C817    1.389   .     A
C816   H827    1.084   .     S
C817   H831    1.082   .     S
C818   O844    1.385   .     S
C819   H726    1.083   1_655 S
H821   O844    0.992   .     S
H822   O835    0.990   .     S
H823   O554    0.990   1_565 S
H824   C522    1.088   1_565 S
H825   N832    1.029   .     S
H826   N833    1.029   .     S
H828   C384    1.084   1_556 S
N832   N833    1.288   .     D
N832   Zn846   2.017   .     S
N833   Zn845   2.017   .     S
O834   Zn845   1.957   .     S
O834   C706    1.278   1_655 S
O835   C715    1.378   1_655 S
O837   Zn846   1.985   .     S
O838   Zn845   1.947   .     S
O838   C709    1.288   1_655 S
O839   Zn846   1.904   .     S
O840   Zn845   1.985   .     S
O841   Zn846   1.957   .     S
O842   Zn845   1.904   .     S
O843   Zn846   1.947   .     S
