data_str_m3_o1_o10_pcu_sym.49
_audit_creation_date              2020-01-03
_audit_creation_method            'Materials Studio'
_symmetry_space_group_name_H-M    'P1'
_symmetry_Int_Tables_number       1
_symmetry_cell_setting            triclinic
loop_
_symmetry_equiv_pos_as_xyz
  x,y,z
_cell_length_a                    25.8950
_cell_length_b                    31.9960
_cell_length_c                    29.7767
_cell_angle_alpha                 89.3384
_cell_angle_beta                  97.9082
_cell_angle_gamma                 91.6797
loop_
_atom_site_label
_atom_site_type_symbol
_atom_site_fract_x
_atom_site_fract_y
_atom_site_fract_z
_atom_site_U_iso_or_equiv
_atom_site_adp_type
_atom_site_occupancy
C1     C     0.16627   0.08678   0.16680   0.00000  Uiso   1.00
C2     C     0.19765   0.02187   0.20157   0.00000  Uiso   1.00
C3     C     0.16731   0.29072   0.16626   0.00000  Uiso   1.00
C4     C     0.16602   0.04261   0.16707   0.00000  Uiso   1.00
C5     C     0.19948   0.19338   0.02673   0.00000  Uiso   1.00
C6     C     0.13386   0.13995   0.30661   0.00000  Uiso   1.00
C7     C     0.19918   0.19300   0.31232   0.00000  Uiso   1.00
C8     C     0.13415   0.14034   0.02101   0.00000  Uiso   1.00
C9     C     0.23684   0.22431   0.05244   0.00000  Uiso   1.00
C10    C     0.09649   0.10902   0.28089   0.00000  Uiso   1.00
C11    C     0.16706   0.24656   0.16653   0.00000  Uiso   1.00
C12    C     0.06734   0.16646   0.15500   0.00000  Uiso   1.00
C13    C     0.26600   0.16687   0.17833   0.00000  Uiso   1.00
C14    C     0.01268   0.16425   0.14879   0.00000  Uiso   1.00
C15    C     0.32065   0.16908   0.18454   0.00000  Uiso   1.00
C16    C     0.13497   0.02101   0.13221   0.00000  Uiso   1.00
C17    C     0.19837   0.31232   0.20112   0.00000  Uiso   1.00
C18    C     0.13569   0.31146   0.13176   0.00000  Uiso   1.00
F19    F     0.32183   0.15558   0.10612   0.00000  Uiso   1.00
F20    F     0.01151   0.17775   0.22722   0.00000  Uiso   1.00
F21    F     0.10315   0.04136   0.09953   0.00000  Uiso   1.00
F22    F     0.23018   0.29197   0.23380   0.00000  Uiso   1.00
F23    F     0.10454   0.29020   0.09870   0.00000  Uiso   1.00
F24    F     0.22879   0.04313   0.23464   0.00000  Uiso   1.00
F25    F     0.23183   0.21909   0.29258   0.00000  Uiso   1.00
F26    F     0.10150   0.11425   0.04075   0.00000  Uiso   1.00
H27    H     0.22690   0.25648   0.04051   0.00000  Uiso   1.00
H28    H     0.23688   0.22354   0.08904   0.00000  Uiso   1.00
H29    H     0.27720   0.21814   0.04612   0.00000  Uiso   1.00
H30    H     0.10643   0.07685   0.29282   0.00000  Uiso   1.00
H31    H     0.05613   0.11520   0.28721   0.00000  Uiso   1.00
H32    H     0.09645   0.10979   0.24429   0.00000  Uiso   1.00
N33    N     0.16665   0.16666   0.28573   0.00000  Uiso   1.00
N34    N     0.16668   0.16668   0.04760   0.00000  Uiso   1.00
O35    O     0.16666   0.10558   0.20487   0.00000  Uiso   1.00
O36    O     0.16667   0.22775   0.12846   0.00000  Uiso   1.00
O37    O     0.16666   0.10559   0.12843   0.00000  Uiso   1.00
O38    O     0.16667   0.22774   0.20490   0.00000  Uiso   1.00
O39    O     0.09058   0.16666   0.19595   0.00000  Uiso   1.00
O40    O     0.24275   0.16667   0.13739   0.00000  Uiso   1.00
O41    O     0.09058   0.16667   0.11950   0.00000  Uiso   1.00
O42    O     0.24275   0.16666   0.21383   0.00000  Uiso   1.00
Zn43   Zn    0.16667   0.16666   0.21771   0.00000  Uiso   1.00
Zn44   Zn    0.16667   0.16667   0.11563   0.00000  Uiso   1.00
C45    C     0.49960   0.08678   0.16680   0.00000  Uiso   1.00
C46    C     0.53098   0.02187   0.20157   0.00000  Uiso   1.00
C47    C     0.50064   0.29072   0.16626   0.00000  Uiso   1.00
C48    C     0.49936   0.04261   0.16707   0.00000  Uiso   1.00
C49    C     0.53281   0.19338   0.02673   0.00000  Uiso   1.00
C50    C     0.46719   0.13995   0.30661   0.00000  Uiso   1.00
C51    C     0.53251   0.19300   0.31232   0.00000  Uiso   1.00
C52    C     0.46749   0.14034   0.02101   0.00000  Uiso   1.00
C53    C     0.57018   0.22431   0.05244   0.00000  Uiso   1.00
C54    C     0.42982   0.10902   0.28089   0.00000  Uiso   1.00
C55    C     0.50040   0.24656   0.16653   0.00000  Uiso   1.00
C56    C     0.40067   0.16646   0.15500   0.00000  Uiso   1.00
C57    C     0.59933   0.16687   0.17833   0.00000  Uiso   1.00
C58    C     0.34602   0.16425   0.14879   0.00000  Uiso   1.00
C59    C     0.65398   0.16908   0.18454   0.00000  Uiso   1.00
C60    C     0.46830   0.02101   0.13221   0.00000  Uiso   1.00
C61    C     0.53170   0.31232   0.20112   0.00000  Uiso   1.00
C62    C     0.46902   0.31146   0.13176   0.00000  Uiso   1.00
F63    F     0.65516   0.15558   0.10612   0.00000  Uiso   1.00
F64    F     0.34484   0.17775   0.22722   0.00000  Uiso   1.00
F65    F     0.43649   0.04136   0.09953   0.00000  Uiso   1.00
F66    F     0.56351   0.29197   0.23380   0.00000  Uiso   1.00
F67    F     0.43787   0.29020   0.09870   0.00000  Uiso   1.00
F68    F     0.56213   0.04313   0.23464   0.00000  Uiso   1.00
F69    F     0.56516   0.21909   0.29258   0.00000  Uiso   1.00
F70    F     0.43484   0.11425   0.04075   0.00000  Uiso   1.00
H71    H     0.56024   0.25648   0.04051   0.00000  Uiso   1.00
H72    H     0.57022   0.22354   0.08904   0.00000  Uiso   1.00
H73    H     0.61053   0.21814   0.04612   0.00000  Uiso   1.00
H74    H     0.43976   0.07685   0.29282   0.00000  Uiso   1.00
H75    H     0.38947   0.11520   0.28721   0.00000  Uiso   1.00
H76    H     0.42978   0.10979   0.24429   0.00000  Uiso   1.00
N77    N     0.49999   0.16666   0.28573   0.00000  Uiso   1.00
N78    N     0.50001   0.16668   0.04760   0.00000  Uiso   1.00
O79    O     0.50000   0.10558   0.20487   0.00000  Uiso   1.00
O80    O     0.50000   0.22775   0.12846   0.00000  Uiso   1.00
O81    O     0.50000   0.10559   0.12843   0.00000  Uiso   1.00
O82    O     0.50000   0.22774   0.20490   0.00000  Uiso   1.00
O83    O     0.42392   0.16666   0.19595   0.00000  Uiso   1.00
O84    O     0.57608   0.16667   0.13739   0.00000  Uiso   1.00
O85    O     0.42392   0.16667   0.11950   0.00000  Uiso   1.00
O86    O     0.57608   0.16666   0.21383   0.00000  Uiso   1.00
Zn87   Zn    0.50000   0.16666   0.21771   0.00000  Uiso   1.00
Zn88   Zn    0.50000   0.16667   0.11563   0.00000  Uiso   1.00
C89    C     0.83294   0.08678   0.16680   0.00000  Uiso   1.00
C90    C     0.86431   0.02187   0.20157   0.00000  Uiso   1.00
C91    C     0.83398   0.29072   0.16626   0.00000  Uiso   1.00
C92    C     0.83269   0.04261   0.16707   0.00000  Uiso   1.00
C93    C     0.86614   0.19338   0.02673   0.00000  Uiso   1.00
C94    C     0.80052   0.13995   0.30661   0.00000  Uiso   1.00
C95    C     0.86585   0.19300   0.31232   0.00000  Uiso   1.00
C96    C     0.80082   0.14034   0.02101   0.00000  Uiso   1.00
C97    C     0.90351   0.22431   0.05244   0.00000  Uiso   1.00
C98    C     0.76316   0.10902   0.28089   0.00000  Uiso   1.00
C99    C     0.83373   0.24656   0.16653   0.00000  Uiso   1.00
C100   C     0.73400   0.16646   0.15500   0.00000  Uiso   1.00
C101   C     0.93266   0.16687   0.17833   0.00000  Uiso   1.00
C102   C     0.67935   0.16425   0.14879   0.00000  Uiso   1.00
C103   C     0.98732   0.16908   0.18454   0.00000  Uiso   1.00
C104   C     0.80163   0.02101   0.13221   0.00000  Uiso   1.00
C105   C     0.86503   0.31232   0.20112   0.00000  Uiso   1.00
C106   C     0.80235   0.31146   0.13176   0.00000  Uiso   1.00
F107   F     0.98849   0.15558   0.10612   0.00000  Uiso   1.00
F108   F     0.67817   0.17775   0.22722   0.00000  Uiso   1.00
F109   F     0.76982   0.04136   0.09953   0.00000  Uiso   1.00
F110   F     0.89685   0.29197   0.23380   0.00000  Uiso   1.00
F111   F     0.77121   0.29020   0.09870   0.00000  Uiso   1.00
F112   F     0.89546   0.04313   0.23464   0.00000  Uiso   1.00
F113   F     0.89850   0.21909   0.29258   0.00000  Uiso   1.00
F114   F     0.76817   0.11425   0.04075   0.00000  Uiso   1.00
H115   H     0.89357   0.25648   0.04051   0.00000  Uiso   1.00
H116   H     0.90355   0.22354   0.08904   0.00000  Uiso   1.00
H117   H     0.94387   0.21814   0.04612   0.00000  Uiso   1.00
H118   H     0.77310   0.07685   0.29282   0.00000  Uiso   1.00
H119   H     0.72280   0.11520   0.28721   0.00000  Uiso   1.00
H120   H     0.76312   0.10979   0.24429   0.00000  Uiso   1.00
N121   N     0.83332   0.16666   0.28573   0.00000  Uiso   1.00
N122   N     0.83335   0.16668   0.04760   0.00000  Uiso   1.00
O123   O     0.83333   0.10558   0.20487   0.00000  Uiso   1.00
O124   O     0.83334   0.22775   0.12846   0.00000  Uiso   1.00
O125   O     0.83333   0.10559   0.12843   0.00000  Uiso   1.00
O126   O     0.83334   0.22774   0.20490   0.00000  Uiso   1.00
O127   O     0.75725   0.16666   0.19595   0.00000  Uiso   1.00
O128   O     0.90942   0.16667   0.13739   0.00000  Uiso   1.00
O129   O     0.75725   0.16667   0.11950   0.00000  Uiso   1.00
O130   O     0.90942   0.16666   0.21383   0.00000  Uiso   1.00
Zn131  Zn    0.83333   0.16666   0.21771   0.00000  Uiso   1.00
Zn132  Zn    0.83333   0.16667   0.11563   0.00000  Uiso   1.00
C133   C     0.16627   0.42011   0.16680   0.00000  Uiso   1.00
C134   C     0.19765   0.35520   0.20157   0.00000  Uiso   1.00
C135   C     0.16731   0.62405   0.16626   0.00000  Uiso   1.00
C136   C     0.16602   0.37595   0.16707   0.00000  Uiso   1.00
C137   C     0.19948   0.52671   0.02673   0.00000  Uiso   1.00
C138   C     0.13386   0.47329   0.30661   0.00000  Uiso   1.00
C139   C     0.19918   0.52633   0.31232   0.00000  Uiso   1.00
C140   C     0.13415   0.47367   0.02101   0.00000  Uiso   1.00
C141   C     0.23684   0.55765   0.05244   0.00000  Uiso   1.00
C142   C     0.09649   0.44235   0.28089   0.00000  Uiso   1.00
C143   C     0.16706   0.57989   0.16653   0.00000  Uiso   1.00
C144   C     0.06734   0.49980   0.15500   0.00000  Uiso   1.00
C145   C     0.26600   0.50020   0.17833   0.00000  Uiso   1.00
C146   C     0.01268   0.49759   0.14879   0.00000  Uiso   1.00
C147   C     0.32065   0.50241   0.18454   0.00000  Uiso   1.00
C148   C     0.13497   0.35435   0.13221   0.00000  Uiso   1.00
C149   C     0.19837   0.64565   0.20112   0.00000  Uiso   1.00
C150   C     0.13569   0.64480   0.13176   0.00000  Uiso   1.00
F151   F     0.32183   0.48892   0.10612   0.00000  Uiso   1.00
F152   F     0.01151   0.51108   0.22722   0.00000  Uiso   1.00
F153   F     0.10315   0.37469   0.09953   0.00000  Uiso   1.00
F154   F     0.23018   0.62531   0.23380   0.00000  Uiso   1.00
F155   F     0.10454   0.62354   0.09870   0.00000  Uiso   1.00
F156   F     0.22879   0.37646   0.23464   0.00000  Uiso   1.00
F157   F     0.23183   0.55242   0.29258   0.00000  Uiso   1.00
F158   F     0.10150   0.44758   0.04075   0.00000  Uiso   1.00
H159   H     0.22690   0.58981   0.04051   0.00000  Uiso   1.00
H160   H     0.23688   0.55688   0.08904   0.00000  Uiso   1.00
H161   H     0.27720   0.55147   0.04612   0.00000  Uiso   1.00
H162   H     0.10643   0.41019   0.29282   0.00000  Uiso   1.00
H163   H     0.05613   0.44853   0.28721   0.00000  Uiso   1.00
H164   H     0.09645   0.44312   0.24429   0.00000  Uiso   1.00
N165   N     0.16665   0.49999   0.28573   0.00000  Uiso   1.00
N166   N     0.16668   0.50001   0.04760   0.00000  Uiso   1.00
O167   O     0.16666   0.43892   0.20487   0.00000  Uiso   1.00
O168   O     0.16667   0.56108   0.12846   0.00000  Uiso   1.00
O169   O     0.16666   0.43893   0.12843   0.00000  Uiso   1.00
O170   O     0.16667   0.56107   0.20490   0.00000  Uiso   1.00
O171   O     0.09058   0.50000   0.19595   0.00000  Uiso   1.00
O172   O     0.24275   0.50000   0.13739   0.00000  Uiso   1.00
O173   O     0.09058   0.50000   0.11950   0.00000  Uiso   1.00
O174   O     0.24275   0.50000   0.21383   0.00000  Uiso   1.00
Zn175  Zn    0.16667   0.49999   0.21771   0.00000  Uiso   1.00
Zn176  Zn    0.16667   0.50001   0.11563   0.00000  Uiso   1.00
C177   C     0.49960   0.42011   0.16680   0.00000  Uiso   1.00
C178   C     0.53098   0.35520   0.20157   0.00000  Uiso   1.00
C179   C     0.50064   0.62405   0.16626   0.00000  Uiso   1.00
C180   C     0.49936   0.37595   0.16707   0.00000  Uiso   1.00
C181   C     0.53281   0.52671   0.02673   0.00000  Uiso   1.00
C182   C     0.46719   0.47329   0.30661   0.00000  Uiso   1.00
C183   C     0.53251   0.52633   0.31232   0.00000  Uiso   1.00
C184   C     0.46749   0.47367   0.02101   0.00000  Uiso   1.00
C185   C     0.57018   0.55765   0.05244   0.00000  Uiso   1.00
C186   C     0.42982   0.44235   0.28089   0.00000  Uiso   1.00
C187   C     0.50040   0.57989   0.16653   0.00000  Uiso   1.00
C188   C     0.40067   0.49980   0.15500   0.00000  Uiso   1.00
C189   C     0.59933   0.50020   0.17833   0.00000  Uiso   1.00
C190   C     0.34602   0.49759   0.14879   0.00000  Uiso   1.00
C191   C     0.65398   0.50241   0.18454   0.00000  Uiso   1.00
C192   C     0.46830   0.35435   0.13221   0.00000  Uiso   1.00
C193   C     0.53170   0.64565   0.20112   0.00000  Uiso   1.00
C194   C     0.46902   0.64480   0.13176   0.00000  Uiso   1.00
F195   F     0.65516   0.48892   0.10612   0.00000  Uiso   1.00
F196   F     0.34484   0.51108   0.22722   0.00000  Uiso   1.00
F197   F     0.43649   0.37469   0.09953   0.00000  Uiso   1.00
F198   F     0.56351   0.62531   0.23380   0.00000  Uiso   1.00
F199   F     0.43787   0.62354   0.09870   0.00000  Uiso   1.00
F200   F     0.56213   0.37646   0.23464   0.00000  Uiso   1.00
F201   F     0.56516   0.55242   0.29258   0.00000  Uiso   1.00
F202   F     0.43484   0.44758   0.04075   0.00000  Uiso   1.00
H203   H     0.56024   0.58981   0.04051   0.00000  Uiso   1.00
H204   H     0.57022   0.55688   0.08904   0.00000  Uiso   1.00
H205   H     0.61053   0.55147   0.04612   0.00000  Uiso   1.00
H206   H     0.43976   0.41019   0.29282   0.00000  Uiso   1.00
H207   H     0.38947   0.44853   0.28721   0.00000  Uiso   1.00
H208   H     0.42978   0.44312   0.24429   0.00000  Uiso   1.00
N209   N     0.49999   0.49999   0.28573   0.00000  Uiso   1.00
N210   N     0.50001   0.50001   0.04760   0.00000  Uiso   1.00
O211   O     0.50000   0.43892   0.20487   0.00000  Uiso   1.00
O212   O     0.50000   0.56108   0.12846   0.00000  Uiso   1.00
O213   O     0.50000   0.43893   0.12843   0.00000  Uiso   1.00
O214   O     0.50000   0.56107   0.20490   0.00000  Uiso   1.00
O215   O     0.42392   0.50000   0.19595   0.00000  Uiso   1.00
O216   O     0.57608   0.50000   0.13739   0.00000  Uiso   1.00
O217   O     0.42392   0.50000   0.11950   0.00000  Uiso   1.00
O218   O     0.57608   0.50000   0.21383   0.00000  Uiso   1.00
Zn219  Zn    0.50000   0.49999   0.21771   0.00000  Uiso   1.00
Zn220  Zn    0.50000   0.50001   0.11563   0.00000  Uiso   1.00
C221   C     0.83294   0.42011   0.16680   0.00000  Uiso   1.00
C222   C     0.86431   0.35520   0.20157   0.00000  Uiso   1.00
C223   C     0.83398   0.62405   0.16626   0.00000  Uiso   1.00
C224   C     0.83269   0.37595   0.16707   0.00000  Uiso   1.00
C225   C     0.86614   0.52671   0.02673   0.00000  Uiso   1.00
C226   C     0.80052   0.47329   0.30661   0.00000  Uiso   1.00
C227   C     0.86585   0.52633   0.31232   0.00000  Uiso   1.00
C228   C     0.80082   0.47367   0.02101   0.00000  Uiso   1.00
C229   C     0.90351   0.55765   0.05244   0.00000  Uiso   1.00
C230   C     0.76316   0.44235   0.28089   0.00000  Uiso   1.00
C231   C     0.83373   0.57989   0.16653   0.00000  Uiso   1.00
C232   C     0.73400   0.49980   0.15500   0.00000  Uiso   1.00
C233   C     0.93266   0.50020   0.17833   0.00000  Uiso   1.00
C234   C     0.67935   0.49759   0.14879   0.00000  Uiso   1.00
C235   C     0.98732   0.50241   0.18454   0.00000  Uiso   1.00
C236   C     0.80163   0.35435   0.13221   0.00000  Uiso   1.00
C237   C     0.86503   0.64565   0.20112   0.00000  Uiso   1.00
C238   C     0.80235   0.64480   0.13176   0.00000  Uiso   1.00
F239   F     0.98849   0.48892   0.10612   0.00000  Uiso   1.00
F240   F     0.67817   0.51108   0.22722   0.00000  Uiso   1.00
F241   F     0.76982   0.37469   0.09953   0.00000  Uiso   1.00
F242   F     0.89685   0.62531   0.23380   0.00000  Uiso   1.00
F243   F     0.77121   0.62354   0.09870   0.00000  Uiso   1.00
F244   F     0.89546   0.37646   0.23464   0.00000  Uiso   1.00
F245   F     0.89850   0.55242   0.29258   0.00000  Uiso   1.00
F246   F     0.76817   0.44758   0.04075   0.00000  Uiso   1.00
H247   H     0.89357   0.58981   0.04051   0.00000  Uiso   1.00
H248   H     0.90355   0.55688   0.08904   0.00000  Uiso   1.00
H249   H     0.94387   0.55147   0.04612   0.00000  Uiso   1.00
H250   H     0.77310   0.41019   0.29282   0.00000  Uiso   1.00
H251   H     0.72280   0.44853   0.28721   0.00000  Uiso   1.00
H252   H     0.76312   0.44312   0.24429   0.00000  Uiso   1.00
N253   N     0.83332   0.49999   0.28573   0.00000  Uiso   1.00
N254   N     0.83335   0.50001   0.04760   0.00000  Uiso   1.00
O255   O     0.83333   0.43892   0.20487   0.00000  Uiso   1.00
O256   O     0.83334   0.56108   0.12846   0.00000  Uiso   1.00
O257   O     0.83333   0.43893   0.12843   0.00000  Uiso   1.00
O258   O     0.83334   0.56107   0.20490   0.00000  Uiso   1.00
O259   O     0.75725   0.50000   0.19595   0.00000  Uiso   1.00
O260   O     0.90942   0.50000   0.13739   0.00000  Uiso   1.00
O261   O     0.75725   0.50000   0.11950   0.00000  Uiso   1.00
O262   O     0.90942   0.50000   0.21383   0.00000  Uiso   1.00
Zn263  Zn    0.83333   0.49999   0.21771   0.00000  Uiso   1.00
Zn264  Zn    0.83333   0.50001   0.11563   0.00000  Uiso   1.00
C265   C     0.16627   0.75344   0.16680   0.00000  Uiso   1.00
C266   C     0.19765   0.68854   0.20157   0.00000  Uiso   1.00
C267   C     0.16731   0.95739   0.16626   0.00000  Uiso   1.00
C268   C     0.16602   0.70928   0.16707   0.00000  Uiso   1.00
C269   C     0.19948   0.86004   0.02673   0.00000  Uiso   1.00
C270   C     0.13386   0.80662   0.30661   0.00000  Uiso   1.00
C271   C     0.19918   0.85966   0.31232   0.00000  Uiso   1.00
C272   C     0.13415   0.80700   0.02101   0.00000  Uiso   1.00
C273   C     0.23684   0.89098   0.05244   0.00000  Uiso   1.00
C274   C     0.09649   0.77569   0.28089   0.00000  Uiso   1.00
C275   C     0.16706   0.91322   0.16653   0.00000  Uiso   1.00
C276   C     0.06734   0.83313   0.15500   0.00000  Uiso   1.00
C277   C     0.26600   0.83354   0.17833   0.00000  Uiso   1.00
C278   C     0.01268   0.83092   0.14879   0.00000  Uiso   1.00
C279   C     0.32065   0.83575   0.18454   0.00000  Uiso   1.00
C280   C     0.13497   0.68768   0.13221   0.00000  Uiso   1.00
C281   C     0.19837   0.97899   0.20112   0.00000  Uiso   1.00
C282   C     0.13569   0.97813   0.13176   0.00000  Uiso   1.00
F283   F     0.32183   0.82225   0.10612   0.00000  Uiso   1.00
F284   F     0.01151   0.84442   0.22722   0.00000  Uiso   1.00
F285   F     0.10315   0.70803   0.09953   0.00000  Uiso   1.00
F286   F     0.23018   0.95864   0.23380   0.00000  Uiso   1.00
F287   F     0.10454   0.95687   0.09870   0.00000  Uiso   1.00
F288   F     0.22879   0.70980   0.23464   0.00000  Uiso   1.00
F289   F     0.23183   0.88575   0.29258   0.00000  Uiso   1.00
F290   F     0.10150   0.78091   0.04075   0.00000  Uiso   1.00
H291   H     0.22690   0.92315   0.04051   0.00000  Uiso   1.00
H292   H     0.23688   0.89021   0.08904   0.00000  Uiso   1.00
H293   H     0.27720   0.88480   0.04612   0.00000  Uiso   1.00
H294   H     0.10643   0.74352   0.29282   0.00000  Uiso   1.00
H295   H     0.05613   0.78186   0.28721   0.00000  Uiso   1.00
H296   H     0.09645   0.77646   0.24429   0.00000  Uiso   1.00
N297   N     0.16665   0.83332   0.28573   0.00000  Uiso   1.00
N298   N     0.16668   0.83334   0.04760   0.00000  Uiso   1.00
O299   O     0.16666   0.77225   0.20487   0.00000  Uiso   1.00
O300   O     0.16667   0.89442   0.12846   0.00000  Uiso   1.00
O301   O     0.16666   0.77226   0.12843   0.00000  Uiso   1.00
O302   O     0.16667   0.89441   0.20490   0.00000  Uiso   1.00
O303   O     0.09058   0.83333   0.19595   0.00000  Uiso   1.00
O304   O     0.24275   0.83334   0.13739   0.00000  Uiso   1.00
O305   O     0.09058   0.83334   0.11950   0.00000  Uiso   1.00
O306   O     0.24275   0.83333   0.21383   0.00000  Uiso   1.00
Zn307  Zn    0.16667   0.83333   0.21771   0.00000  Uiso   1.00
Zn308  Zn    0.16667   0.83334   0.11563   0.00000  Uiso   1.00
C309   C     0.49960   0.75344   0.16680   0.00000  Uiso   1.00
C310   C     0.53098   0.68854   0.20157   0.00000  Uiso   1.00
C311   C     0.50064   0.95739   0.16626   0.00000  Uiso   1.00
C312   C     0.49936   0.70928   0.16707   0.00000  Uiso   1.00
C313   C     0.53281   0.86004   0.02673   0.00000  Uiso   1.00
C314   C     0.46719   0.80662   0.30661   0.00000  Uiso   1.00
C315   C     0.53251   0.85966   0.31232   0.00000  Uiso   1.00
C316   C     0.46749   0.80700   0.02101   0.00000  Uiso   1.00
C317   C     0.57018   0.89098   0.05244   0.00000  Uiso   1.00
C318   C     0.42982   0.77569   0.28089   0.00000  Uiso   1.00
C319   C     0.50040   0.91322   0.16653   0.00000  Uiso   1.00
C320   C     0.40067   0.83313   0.15500   0.00000  Uiso   1.00
C321   C     0.59933   0.83354   0.17833   0.00000  Uiso   1.00
C322   C     0.34602   0.83092   0.14879   0.00000  Uiso   1.00
C323   C     0.65398   0.83575   0.18454   0.00000  Uiso   1.00
C324   C     0.46830   0.68768   0.13221   0.00000  Uiso   1.00
C325   C     0.53170   0.97899   0.20112   0.00000  Uiso   1.00
C326   C     0.46902   0.97813   0.13176   0.00000  Uiso   1.00
F327   F     0.65516   0.82225   0.10612   0.00000  Uiso   1.00
F328   F     0.34484   0.84442   0.22722   0.00000  Uiso   1.00
F329   F     0.43649   0.70803   0.09953   0.00000  Uiso   1.00
F330   F     0.56351   0.95864   0.23380   0.00000  Uiso   1.00
F331   F     0.43787   0.95687   0.09870   0.00000  Uiso   1.00
F332   F     0.56213   0.70980   0.23464   0.00000  Uiso   1.00
F333   F     0.56516   0.88575   0.29258   0.00000  Uiso   1.00
F334   F     0.43484   0.78091   0.04075   0.00000  Uiso   1.00
H335   H     0.56024   0.92315   0.04051   0.00000  Uiso   1.00
H336   H     0.57022   0.89021   0.08904   0.00000  Uiso   1.00
H337   H     0.61053   0.88480   0.04612   0.00000  Uiso   1.00
H338   H     0.43976   0.74352   0.29282   0.00000  Uiso   1.00
H339   H     0.38947   0.78186   0.28721   0.00000  Uiso   1.00
H340   H     0.42978   0.77646   0.24429   0.00000  Uiso   1.00
N341   N     0.49999   0.83332   0.28573   0.00000  Uiso   1.00
N342   N     0.50001   0.83334   0.04760   0.00000  Uiso   1.00
O343   O     0.50000   0.77225   0.20487   0.00000  Uiso   1.00
O344   O     0.50000   0.89442   0.12846   0.00000  Uiso   1.00
O345   O     0.50000   0.77226   0.12843   0.00000  Uiso   1.00
O346   O     0.50000   0.89441   0.20490   0.00000  Uiso   1.00
O347   O     0.42392   0.83333   0.19595   0.00000  Uiso   1.00
O348   O     0.57608   0.83334   0.13739   0.00000  Uiso   1.00
O349   O     0.42392   0.83334   0.11950   0.00000  Uiso   1.00
O350   O     0.57608   0.83333   0.21383   0.00000  Uiso   1.00
Zn351  Zn    0.50000   0.83333   0.21771   0.00000  Uiso   1.00
Zn352  Zn    0.50000   0.83334   0.11563   0.00000  Uiso   1.00
C353   C     0.83294   0.75344   0.16680   0.00000  Uiso   1.00
C354   C     0.86431   0.68854   0.20157   0.00000  Uiso   1.00
C355   C     0.83398   0.95739   0.16626   0.00000  Uiso   1.00
C356   C     0.83269   0.70928   0.16707   0.00000  Uiso   1.00
C357   C     0.86614   0.86004   0.02673   0.00000  Uiso   1.00
C358   C     0.80052   0.80662   0.30661   0.00000  Uiso   1.00
C359   C     0.86585   0.85966   0.31232   0.00000  Uiso   1.00
C360   C     0.80082   0.80700   0.02101   0.00000  Uiso   1.00
C361   C     0.90351   0.89098   0.05244   0.00000  Uiso   1.00
C362   C     0.76316   0.77569   0.28089   0.00000  Uiso   1.00
C363   C     0.83373   0.91322   0.16653   0.00000  Uiso   1.00
C364   C     0.73400   0.83313   0.15500   0.00000  Uiso   1.00
C365   C     0.93266   0.83354   0.17833   0.00000  Uiso   1.00
C366   C     0.67935   0.83092   0.14879   0.00000  Uiso   1.00
C367   C     0.98732   0.83575   0.18454   0.00000  Uiso   1.00
C368   C     0.80163   0.68768   0.13221   0.00000  Uiso   1.00
C369   C     0.86503   0.97899   0.20112   0.00000  Uiso   1.00
C370   C     0.80235   0.97813   0.13176   0.00000  Uiso   1.00
F371   F     0.98849   0.82225   0.10612   0.00000  Uiso   1.00
F372   F     0.67817   0.84442   0.22722   0.00000  Uiso   1.00
F373   F     0.76982   0.70803   0.09953   0.00000  Uiso   1.00
F374   F     0.89685   0.95864   0.23380   0.00000  Uiso   1.00
F375   F     0.77121   0.95687   0.09870   0.00000  Uiso   1.00
F376   F     0.89546   0.70980   0.23464   0.00000  Uiso   1.00
F377   F     0.89850   0.88575   0.29258   0.00000  Uiso   1.00
F378   F     0.76817   0.78091   0.04075   0.00000  Uiso   1.00
H379   H     0.89357   0.92315   0.04051   0.00000  Uiso   1.00
H380   H     0.90355   0.89021   0.08904   0.00000  Uiso   1.00
H381   H     0.94387   0.88480   0.04612   0.00000  Uiso   1.00
H382   H     0.77310   0.74352   0.29282   0.00000  Uiso   1.00
H383   H     0.72280   0.78186   0.28721   0.00000  Uiso   1.00
H384   H     0.76312   0.77646   0.24429   0.00000  Uiso   1.00
N385   N     0.83332   0.83332   0.28573   0.00000  Uiso   1.00
N386   N     0.83335   0.83334   0.04760   0.00000  Uiso   1.00
O387   O     0.83333   0.77225   0.20487   0.00000  Uiso   1.00
O388   O     0.83334   0.89442   0.12846   0.00000  Uiso   1.00
O389   O     0.83333   0.77226   0.12843   0.00000  Uiso   1.00
O390   O     0.83334   0.89441   0.20490   0.00000  Uiso   1.00
O391   O     0.75725   0.83333   0.19595   0.00000  Uiso   1.00
O392   O     0.90942   0.83334   0.13739   0.00000  Uiso   1.00
O393   O     0.75725   0.83334   0.11950   0.00000  Uiso   1.00
O394   O     0.90942   0.83333   0.21383   0.00000  Uiso   1.00
Zn395  Zn    0.83333   0.83333   0.21771   0.00000  Uiso   1.00
Zn396  Zn    0.83333   0.83334   0.11563   0.00000  Uiso   1.00
C397   C     0.16627   0.08678   0.50014   0.00000  Uiso   1.00
C398   C     0.19765   0.02187   0.53491   0.00000  Uiso   1.00
C399   C     0.16731   0.29072   0.49960   0.00000  Uiso   1.00
C400   C     0.16602   0.04261   0.50040   0.00000  Uiso   1.00
C401   C     0.19948   0.19338   0.36006   0.00000  Uiso   1.00
C402   C     0.13386   0.13995   0.63994   0.00000  Uiso   1.00
C403   C     0.19918   0.19300   0.64565   0.00000  Uiso   1.00
C404   C     0.13415   0.14034   0.35435   0.00000  Uiso   1.00
C405   C     0.23684   0.22431   0.38578   0.00000  Uiso   1.00
C406   C     0.09649   0.10902   0.61422   0.00000  Uiso   1.00
C407   C     0.16706   0.24656   0.49986   0.00000  Uiso   1.00
C408   C     0.06734   0.16646   0.48833   0.00000  Uiso   1.00
C409   C     0.26600   0.16687   0.51167   0.00000  Uiso   1.00
C410   C     0.01268   0.16425   0.48212   0.00000  Uiso   1.00
C411   C     0.32065   0.16908   0.51788   0.00000  Uiso   1.00
C412   C     0.13497   0.02101   0.46555   0.00000  Uiso   1.00
C413   C     0.19837   0.31232   0.53445   0.00000  Uiso   1.00
C414   C     0.13569   0.31146   0.46509   0.00000  Uiso   1.00
F415   F     0.32183   0.15558   0.43945   0.00000  Uiso   1.00
F416   F     0.01151   0.17775   0.56055   0.00000  Uiso   1.00
F417   F     0.10315   0.04136   0.43287   0.00000  Uiso   1.00
F418   F     0.23018   0.29197   0.56714   0.00000  Uiso   1.00
F419   F     0.10454   0.29020   0.43203   0.00000  Uiso   1.00
F420   F     0.22879   0.04313   0.56797   0.00000  Uiso   1.00
F421   F     0.23183   0.21909   0.62591   0.00000  Uiso   1.00
F422   F     0.10150   0.11425   0.37409   0.00000  Uiso   1.00
H423   H     0.22690   0.25648   0.37384   0.00000  Uiso   1.00
H424   H     0.23688   0.22354   0.42237   0.00000  Uiso   1.00
H425   H     0.27720   0.21814   0.37946   0.00000  Uiso   1.00
H426   H     0.10643   0.07685   0.62616   0.00000  Uiso   1.00
H427   H     0.05613   0.11520   0.62054   0.00000  Uiso   1.00
H428   H     0.09645   0.10979   0.57763   0.00000  Uiso   1.00
N429   N     0.16665   0.16666   0.61907   0.00000  Uiso   1.00
N430   N     0.16668   0.16668   0.38093   0.00000  Uiso   1.00
O431   O     0.16666   0.10558   0.53821   0.00000  Uiso   1.00
O432   O     0.16667   0.22775   0.46179   0.00000  Uiso   1.00
O433   O     0.16666   0.10559   0.46176   0.00000  Uiso   1.00
O434   O     0.16667   0.22774   0.53824   0.00000  Uiso   1.00
O435   O     0.09058   0.16666   0.52928   0.00000  Uiso   1.00
O436   O     0.24275   0.16667   0.47072   0.00000  Uiso   1.00
O437   O     0.09058   0.16667   0.45284   0.00000  Uiso   1.00
O438   O     0.24275   0.16666   0.54716   0.00000  Uiso   1.00
Zn439  Zn    0.16667   0.16666   0.55104   0.00000  Uiso   1.00
Zn440  Zn    0.16667   0.16667   0.44896   0.00000  Uiso   1.00
C441   C     0.49960   0.08678   0.50014   0.00000  Uiso   1.00
C442   C     0.53098   0.02187   0.53491   0.00000  Uiso   1.00
C443   C     0.50064   0.29072   0.49960   0.00000  Uiso   1.00
C444   C     0.49936   0.04261   0.50040   0.00000  Uiso   1.00
C445   C     0.53281   0.19338   0.36006   0.00000  Uiso   1.00
C446   C     0.46719   0.13995   0.63994   0.00000  Uiso   1.00
C447   C     0.53251   0.19300   0.64565   0.00000  Uiso   1.00
C448   C     0.46749   0.14034   0.35435   0.00000  Uiso   1.00
C449   C     0.57018   0.22431   0.38578   0.00000  Uiso   1.00
C450   C     0.42982   0.10902   0.61422   0.00000  Uiso   1.00
C451   C     0.50040   0.24656   0.49986   0.00000  Uiso   1.00
C452   C     0.40067   0.16646   0.48833   0.00000  Uiso   1.00
C453   C     0.59933   0.16687   0.51167   0.00000  Uiso   1.00
C454   C     0.34602   0.16425   0.48212   0.00000  Uiso   1.00
C455   C     0.65398   0.16908   0.51788   0.00000  Uiso   1.00
C456   C     0.46830   0.02101   0.46555   0.00000  Uiso   1.00
C457   C     0.53170   0.31232   0.53445   0.00000  Uiso   1.00
C458   C     0.46902   0.31146   0.46509   0.00000  Uiso   1.00
F459   F     0.65516   0.15558   0.43945   0.00000  Uiso   1.00
F460   F     0.34484   0.17775   0.56055   0.00000  Uiso   1.00
F461   F     0.43649   0.04136   0.43287   0.00000  Uiso   1.00
F462   F     0.56351   0.29197   0.56714   0.00000  Uiso   1.00
F463   F     0.43787   0.29020   0.43203   0.00000  Uiso   1.00
F464   F     0.56213   0.04313   0.56797   0.00000  Uiso   1.00
F465   F     0.56516   0.21909   0.62591   0.00000  Uiso   1.00
F466   F     0.43484   0.11425   0.37409   0.00000  Uiso   1.00
H467   H     0.56024   0.25648   0.37384   0.00000  Uiso   1.00
H468   H     0.57022   0.22354   0.42237   0.00000  Uiso   1.00
H469   H     0.61053   0.21814   0.37946   0.00000  Uiso   1.00
H470   H     0.43976   0.07685   0.62616   0.00000  Uiso   1.00
H471   H     0.38947   0.11520   0.62054   0.00000  Uiso   1.00
H472   H     0.42978   0.10979   0.57763   0.00000  Uiso   1.00
N473   N     0.49999   0.16666   0.61907   0.00000  Uiso   1.00
N474   N     0.50001   0.16668   0.38093   0.00000  Uiso   1.00
O475   O     0.50000   0.10558   0.53821   0.00000  Uiso   1.00
O476   O     0.50000   0.22775   0.46179   0.00000  Uiso   1.00
O477   O     0.50000   0.10559   0.46176   0.00000  Uiso   1.00
O478   O     0.50000   0.22774   0.53824   0.00000  Uiso   1.00
O479   O     0.42392   0.16666   0.52928   0.00000  Uiso   1.00
O480   O     0.57608   0.16667   0.47072   0.00000  Uiso   1.00
O481   O     0.42392   0.16667   0.45284   0.00000  Uiso   1.00
O482   O     0.57608   0.16666   0.54716   0.00000  Uiso   1.00
Zn483  Zn    0.50000   0.16666   0.55104   0.00000  Uiso   1.00
Zn484  Zn    0.50000   0.16667   0.44896   0.00000  Uiso   1.00
C485   C     0.83294   0.08678   0.50014   0.00000  Uiso   1.00
C486   C     0.86431   0.02187   0.53491   0.00000  Uiso   1.00
C487   C     0.83398   0.29072   0.49960   0.00000  Uiso   1.00
C488   C     0.83269   0.04261   0.50040   0.00000  Uiso   1.00
C489   C     0.86614   0.19338   0.36006   0.00000  Uiso   1.00
C490   C     0.80052   0.13995   0.63994   0.00000  Uiso   1.00
C491   C     0.86585   0.19300   0.64565   0.00000  Uiso   1.00
C492   C     0.80082   0.14034   0.35435   0.00000  Uiso   1.00
C493   C     0.90351   0.22431   0.38578   0.00000  Uiso   1.00
C494   C     0.76316   0.10902   0.61422   0.00000  Uiso   1.00
C495   C     0.83373   0.24656   0.49986   0.00000  Uiso   1.00
C496   C     0.73400   0.16646   0.48833   0.00000  Uiso   1.00
C497   C     0.93266   0.16687   0.51167   0.00000  Uiso   1.00
C498   C     0.67935   0.16425   0.48212   0.00000  Uiso   1.00
C499   C     0.98732   0.16908   0.51788   0.00000  Uiso   1.00
C500   C     0.80163   0.02101   0.46555   0.00000  Uiso   1.00
C501   C     0.86503   0.31232   0.53445   0.00000  Uiso   1.00
C502   C     0.80235   0.31146   0.46509   0.00000  Uiso   1.00
F503   F     0.98849   0.15558   0.43945   0.00000  Uiso   1.00
F504   F     0.67817   0.17775   0.56055   0.00000  Uiso   1.00
F505   F     0.76982   0.04136   0.43287   0.00000  Uiso   1.00
F506   F     0.89685   0.29197   0.56714   0.00000  Uiso   1.00
F507   F     0.77121   0.29020   0.43203   0.00000  Uiso   1.00
F508   F     0.89546   0.04313   0.56797   0.00000  Uiso   1.00
F509   F     0.89850   0.21909   0.62591   0.00000  Uiso   1.00
F510   F     0.76817   0.11425   0.37409   0.00000  Uiso   1.00
H511   H     0.89357   0.25648   0.37384   0.00000  Uiso   1.00
H512   H     0.90355   0.22354   0.42237   0.00000  Uiso   1.00
H513   H     0.94387   0.21814   0.37946   0.00000  Uiso   1.00
H514   H     0.77310   0.07685   0.62616   0.00000  Uiso   1.00
H515   H     0.72280   0.11520   0.62054   0.00000  Uiso   1.00
H516   H     0.76312   0.10979   0.57763   0.00000  Uiso   1.00
N517   N     0.83332   0.16666   0.61907   0.00000  Uiso   1.00
N518   N     0.83335   0.16668   0.38093   0.00000  Uiso   1.00
O519   O     0.83333   0.10558   0.53821   0.00000  Uiso   1.00
O520   O     0.83334   0.22775   0.46179   0.00000  Uiso   1.00
O521   O     0.83333   0.10559   0.46176   0.00000  Uiso   1.00
O522   O     0.83334   0.22774   0.53824   0.00000  Uiso   1.00
O523   O     0.75725   0.16666   0.52928   0.00000  Uiso   1.00
O524   O     0.90942   0.16667   0.47072   0.00000  Uiso   1.00
O525   O     0.75725   0.16667   0.45284   0.00000  Uiso   1.00
O526   O     0.90942   0.16666   0.54716   0.00000  Uiso   1.00
Zn527  Zn    0.83333   0.16666   0.55104   0.00000  Uiso   1.00
Zn528  Zn    0.83333   0.16667   0.44896   0.00000  Uiso   1.00
C529   C     0.16627   0.42011   0.50014   0.00000  Uiso   1.00
C530   C     0.19765   0.35520   0.53491   0.00000  Uiso   1.00
C531   C     0.16731   0.62405   0.49960   0.00000  Uiso   1.00
C532   C     0.16602   0.37595   0.50040   0.00000  Uiso   1.00
C533   C     0.19948   0.52671   0.36006   0.00000  Uiso   1.00
C534   C     0.13386   0.47329   0.63994   0.00000  Uiso   1.00
C535   C     0.19918   0.52633   0.64565   0.00000  Uiso   1.00
C536   C     0.13415   0.47367   0.35435   0.00000  Uiso   1.00
C537   C     0.23684   0.55765   0.38578   0.00000  Uiso   1.00
C538   C     0.09649   0.44235   0.61422   0.00000  Uiso   1.00
C539   C     0.16706   0.57989   0.49986   0.00000  Uiso   1.00
C540   C     0.06734   0.49980   0.48833   0.00000  Uiso   1.00
C541   C     0.26600   0.50020   0.51167   0.00000  Uiso   1.00
C542   C     0.01268   0.49759   0.48212   0.00000  Uiso   1.00
C543   C     0.32065   0.50241   0.51788   0.00000  Uiso   1.00
C544   C     0.13497   0.35435   0.46555   0.00000  Uiso   1.00
C545   C     0.19837   0.64565   0.53445   0.00000  Uiso   1.00
C546   C     0.13569   0.64480   0.46509   0.00000  Uiso   1.00
F547   F     0.32183   0.48892   0.43945   0.00000  Uiso   1.00
F548   F     0.01151   0.51108   0.56055   0.00000  Uiso   1.00
F549   F     0.10315   0.37469   0.43287   0.00000  Uiso   1.00
F550   F     0.23018   0.62531   0.56714   0.00000  Uiso   1.00
F551   F     0.10454   0.62354   0.43203   0.00000  Uiso   1.00
F552   F     0.22879   0.37646   0.56797   0.00000  Uiso   1.00
F553   F     0.23183   0.55242   0.62591   0.00000  Uiso   1.00
F554   F     0.10150   0.44758   0.37409   0.00000  Uiso   1.00
H555   H     0.22690   0.58981   0.37384   0.00000  Uiso   1.00
H556   H     0.23688   0.55688   0.42237   0.00000  Uiso   1.00
H557   H     0.27720   0.55147   0.37946   0.00000  Uiso   1.00
H558   H     0.10643   0.41019   0.62616   0.00000  Uiso   1.00
H559   H     0.05613   0.44853   0.62054   0.00000  Uiso   1.00
H560   H     0.09645   0.44312   0.57763   0.00000  Uiso   1.00
N561   N     0.16665   0.49999   0.61907   0.00000  Uiso   1.00
N562   N     0.16668   0.50001   0.38093   0.00000  Uiso   1.00
O563   O     0.16666   0.43892   0.53821   0.00000  Uiso   1.00
O564   O     0.16667   0.56108   0.46179   0.00000  Uiso   1.00
O565   O     0.16666   0.43893   0.46176   0.00000  Uiso   1.00
O566   O     0.16667   0.56107   0.53824   0.00000  Uiso   1.00
O567   O     0.09058   0.50000   0.52928   0.00000  Uiso   1.00
O568   O     0.24275   0.50000   0.47072   0.00000  Uiso   1.00
O569   O     0.09058   0.50000   0.45284   0.00000  Uiso   1.00
O570   O     0.24275   0.50000   0.54716   0.00000  Uiso   1.00
Zn571  Zn    0.16667   0.49999   0.55104   0.00000  Uiso   1.00
Zn572  Zn    0.16667   0.50001   0.44896   0.00000  Uiso   1.00
C573   C     0.49960   0.42011   0.50014   0.00000  Uiso   1.00
C574   C     0.53098   0.35520   0.53491   0.00000  Uiso   1.00
C575   C     0.50064   0.62405   0.49960   0.00000  Uiso   1.00
C576   C     0.49936   0.37595   0.50040   0.00000  Uiso   1.00
C577   C     0.53281   0.52671   0.36006   0.00000  Uiso   1.00
C578   C     0.46719   0.47329   0.63994   0.00000  Uiso   1.00
C579   C     0.53251   0.52633   0.64565   0.00000  Uiso   1.00
C580   C     0.46749   0.47367   0.35435   0.00000  Uiso   1.00
C581   C     0.57018   0.55765   0.38578   0.00000  Uiso   1.00
C582   C     0.42982   0.44235   0.61422   0.00000  Uiso   1.00
C583   C     0.50040   0.57989   0.49986   0.00000  Uiso   1.00
C584   C     0.40067   0.49980   0.48833   0.00000  Uiso   1.00
C585   C     0.59933   0.50020   0.51167   0.00000  Uiso   1.00
C586   C     0.34602   0.49759   0.48212   0.00000  Uiso   1.00
C587   C     0.65398   0.50241   0.51788   0.00000  Uiso   1.00
C588   C     0.46830   0.35435   0.46555   0.00000  Uiso   1.00
C589   C     0.53170   0.64565   0.53445   0.00000  Uiso   1.00
C590   C     0.46902   0.64480   0.46509   0.00000  Uiso   1.00
F591   F     0.65516   0.48892   0.43945   0.00000  Uiso   1.00
F592   F     0.34484   0.51108   0.56055   0.00000  Uiso   1.00
F593   F     0.43649   0.37469   0.43287   0.00000  Uiso   1.00
F594   F     0.56351   0.62531   0.56714   0.00000  Uiso   1.00
F595   F     0.43787   0.62354   0.43203   0.00000  Uiso   1.00
F596   F     0.56213   0.37646   0.56797   0.00000  Uiso   1.00
F597   F     0.56516   0.55242   0.62591   0.00000  Uiso   1.00
F598   F     0.43484   0.44758   0.37409   0.00000  Uiso   1.00
H599   H     0.56024   0.58981   0.37384   0.00000  Uiso   1.00
H600   H     0.57022   0.55688   0.42237   0.00000  Uiso   1.00
H601   H     0.61053   0.55147   0.37946   0.00000  Uiso   1.00
H602   H     0.43976   0.41019   0.62616   0.00000  Uiso   1.00
H603   H     0.38947   0.44853   0.62054   0.00000  Uiso   1.00
H604   H     0.42978   0.44312   0.57763   0.00000  Uiso   1.00
N605   N     0.49999   0.49999   0.61907   0.00000  Uiso   1.00
N606   N     0.50001   0.50001   0.38093   0.00000  Uiso   1.00
O607   O     0.50000   0.43892   0.53821   0.00000  Uiso   1.00
O608   O     0.50000   0.56108   0.46179   0.00000  Uiso   1.00
O609   O     0.50000   0.43893   0.46176   0.00000  Uiso   1.00
O610   O     0.50000   0.56107   0.53824   0.00000  Uiso   1.00
O611   O     0.42392   0.50000   0.52928   0.00000  Uiso   1.00
O612   O     0.57608   0.50000   0.47072   0.00000  Uiso   1.00
O613   O     0.42392   0.50000   0.45284   0.00000  Uiso   1.00
O614   O     0.57608   0.50000   0.54716   0.00000  Uiso   1.00
Zn615  Zn    0.50000   0.49999   0.55104   0.00000  Uiso   1.00
Zn616  Zn    0.50000   0.50001   0.44896   0.00000  Uiso   1.00
C617   C     0.83294   0.42011   0.50014   0.00000  Uiso   1.00
C618   C     0.86431   0.35520   0.53491   0.00000  Uiso   1.00
C619   C     0.83398   0.62405   0.49960   0.00000  Uiso   1.00
C620   C     0.83269   0.37595   0.50040   0.00000  Uiso   1.00
C621   C     0.86614   0.52671   0.36006   0.00000  Uiso   1.00
C622   C     0.80052   0.47329   0.63994   0.00000  Uiso   1.00
C623   C     0.86585   0.52633   0.64565   0.00000  Uiso   1.00
C624   C     0.80082   0.47367   0.35435   0.00000  Uiso   1.00
C625   C     0.90351   0.55765   0.38578   0.00000  Uiso   1.00
C626   C     0.76316   0.44235   0.61422   0.00000  Uiso   1.00
C627   C     0.83373   0.57989   0.49986   0.00000  Uiso   1.00
C628   C     0.73400   0.49980   0.48833   0.00000  Uiso   1.00
C629   C     0.93266   0.50020   0.51167   0.00000  Uiso   1.00
C630   C     0.67935   0.49759   0.48212   0.00000  Uiso   1.00
C631   C     0.98732   0.50241   0.51788   0.00000  Uiso   1.00
C632   C     0.80163   0.35435   0.46555   0.00000  Uiso   1.00
C633   C     0.86503   0.64565   0.53445   0.00000  Uiso   1.00
C634   C     0.80235   0.64480   0.46509   0.00000  Uiso   1.00
F635   F     0.98849   0.48892   0.43945   0.00000  Uiso   1.00
F636   F     0.67817   0.51108   0.56055   0.00000  Uiso   1.00
F637   F     0.76982   0.37469   0.43287   0.00000  Uiso   1.00
F638   F     0.89685   0.62531   0.56714   0.00000  Uiso   1.00
F639   F     0.77121   0.62354   0.43203   0.00000  Uiso   1.00
F640   F     0.89546   0.37646   0.56797   0.00000  Uiso   1.00
F641   F     0.89850   0.55242   0.62591   0.00000  Uiso   1.00
F642   F     0.76817   0.44758   0.37409   0.00000  Uiso   1.00
H643   H     0.89357   0.58981   0.37384   0.00000  Uiso   1.00
H644   H     0.90355   0.55688   0.42237   0.00000  Uiso   1.00
H645   H     0.94387   0.55147   0.37946   0.00000  Uiso   1.00
H646   H     0.77310   0.41019   0.62616   0.00000  Uiso   1.00
H647   H     0.72280   0.44853   0.62054   0.00000  Uiso   1.00
H648   H     0.76312   0.44312   0.57763   0.00000  Uiso   1.00
N649   N     0.83332   0.49999   0.61907   0.00000  Uiso   1.00
N650   N     0.83335   0.50001   0.38093   0.00000  Uiso   1.00
O651   O     0.83333   0.43892   0.53821   0.00000  Uiso   1.00
O652   O     0.83334   0.56108   0.46179   0.00000  Uiso   1.00
O653   O     0.83333   0.43893   0.46176   0.00000  Uiso   1.00
O654   O     0.83334   0.56107   0.53824   0.00000  Uiso   1.00
O655   O     0.75725   0.50000   0.52928   0.00000  Uiso   1.00
O656   O     0.90942   0.50000   0.47072   0.00000  Uiso   1.00
O657   O     0.75725   0.50000   0.45284   0.00000  Uiso   1.00
O658   O     0.90942   0.50000   0.54716   0.00000  Uiso   1.00
Zn659  Zn    0.83333   0.49999   0.55104   0.00000  Uiso   1.00
Zn660  Zn    0.83333   0.50001   0.44896   0.00000  Uiso   1.00
C661   C     0.16627   0.75344   0.50014   0.00000  Uiso   1.00
C662   C     0.19765   0.68854   0.53491   0.00000  Uiso   1.00
C663   C     0.16731   0.95739   0.49960   0.00000  Uiso   1.00
C664   C     0.16602   0.70928   0.50040   0.00000  Uiso   1.00
C665   C     0.19948   0.86004   0.36006   0.00000  Uiso   1.00
C666   C     0.13386   0.80662   0.63994   0.00000  Uiso   1.00
C667   C     0.19918   0.85966   0.64565   0.00000  Uiso   1.00
C668   C     0.13415   0.80700   0.35435   0.00000  Uiso   1.00
C669   C     0.23684   0.89098   0.38578   0.00000  Uiso   1.00
C670   C     0.09649   0.77569   0.61422   0.00000  Uiso   1.00
C671   C     0.16706   0.91322   0.49986   0.00000  Uiso   1.00
C672   C     0.06734   0.83313   0.48833   0.00000  Uiso   1.00
C673   C     0.26600   0.83354   0.51167   0.00000  Uiso   1.00
C674   C     0.01268   0.83092   0.48212   0.00000  Uiso   1.00
C675   C     0.32065   0.83575   0.51788   0.00000  Uiso   1.00
C676   C     0.13497   0.68768   0.46555   0.00000  Uiso   1.00
C677   C     0.19837   0.97899   0.53445   0.00000  Uiso   1.00
C678   C     0.13569   0.97813   0.46509   0.00000  Uiso   1.00
F679   F     0.32183   0.82225   0.43945   0.00000  Uiso   1.00
F680   F     0.01151   0.84442   0.56055   0.00000  Uiso   1.00
F681   F     0.10315   0.70803   0.43287   0.00000  Uiso   1.00
F682   F     0.23018   0.95864   0.56714   0.00000  Uiso   1.00
F683   F     0.10454   0.95687   0.43203   0.00000  Uiso   1.00
F684   F     0.22879   0.70980   0.56797   0.00000  Uiso   1.00
F685   F     0.23183   0.88575   0.62591   0.00000  Uiso   1.00
F686   F     0.10150   0.78091   0.37409   0.00000  Uiso   1.00
H687   H     0.22690   0.92315   0.37384   0.00000  Uiso   1.00
H688   H     0.23688   0.89021   0.42237   0.00000  Uiso   1.00
H689   H     0.27720   0.88480   0.37946   0.00000  Uiso   1.00
H690   H     0.10643   0.74352   0.62616   0.00000  Uiso   1.00
H691   H     0.05613   0.78186   0.62054   0.00000  Uiso   1.00
H692   H     0.09645   0.77646   0.57763   0.00000  Uiso   1.00
N693   N     0.16665   0.83332   0.61907   0.00000  Uiso   1.00
N694   N     0.16668   0.83334   0.38093   0.00000  Uiso   1.00
O695   O     0.16666   0.77225   0.53821   0.00000  Uiso   1.00
O696   O     0.16667   0.89442   0.46179   0.00000  Uiso   1.00
O697   O     0.16666   0.77226   0.46176   0.00000  Uiso   1.00
O698   O     0.16667   0.89441   0.53824   0.00000  Uiso   1.00
O699   O     0.09058   0.83333   0.52928   0.00000  Uiso   1.00
O700   O     0.24275   0.83334   0.47072   0.00000  Uiso   1.00
O701   O     0.09058   0.83334   0.45284   0.00000  Uiso   1.00
O702   O     0.24275   0.83333   0.54716   0.00000  Uiso   1.00
Zn703  Zn    0.16667   0.83333   0.55104   0.00000  Uiso   1.00
Zn704  Zn    0.16667   0.83334   0.44896   0.00000  Uiso   1.00
C705   C     0.49960   0.75344   0.50014   0.00000  Uiso   1.00
C706   C     0.53098   0.68854   0.53491   0.00000  Uiso   1.00
C707   C     0.50064   0.95739   0.49960   0.00000  Uiso   1.00
C708   C     0.49936   0.70928   0.50040   0.00000  Uiso   1.00
C709   C     0.53281   0.86004   0.36006   0.00000  Uiso   1.00
C710   C     0.46719   0.80662   0.63994   0.00000  Uiso   1.00
C711   C     0.53251   0.85966   0.64565   0.00000  Uiso   1.00
C712   C     0.46749   0.80700   0.35435   0.00000  Uiso   1.00
C713   C     0.57018   0.89098   0.38578   0.00000  Uiso   1.00
C714   C     0.42982   0.77569   0.61422   0.00000  Uiso   1.00
C715   C     0.50040   0.91322   0.49986   0.00000  Uiso   1.00
C716   C     0.40067   0.83313   0.48833   0.00000  Uiso   1.00
C717   C     0.59933   0.83354   0.51167   0.00000  Uiso   1.00
C718   C     0.34602   0.83092   0.48212   0.00000  Uiso   1.00
C719   C     0.65398   0.83575   0.51788   0.00000  Uiso   1.00
C720   C     0.46830   0.68768   0.46555   0.00000  Uiso   1.00
C721   C     0.53170   0.97899   0.53445   0.00000  Uiso   1.00
C722   C     0.46902   0.97813   0.46509   0.00000  Uiso   1.00
F723   F     0.65516   0.82225   0.43945   0.00000  Uiso   1.00
F724   F     0.34484   0.84442   0.56055   0.00000  Uiso   1.00
F725   F     0.43649   0.70803   0.43287   0.00000  Uiso   1.00
F726   F     0.56351   0.95864   0.56714   0.00000  Uiso   1.00
F727   F     0.43787   0.95687   0.43203   0.00000  Uiso   1.00
F728   F     0.56213   0.70980   0.56797   0.00000  Uiso   1.00
F729   F     0.56516   0.88575   0.62591   0.00000  Uiso   1.00
F730   F     0.43484   0.78091   0.37409   0.00000  Uiso   1.00
H731   H     0.56024   0.92315   0.37384   0.00000  Uiso   1.00
H732   H     0.57022   0.89021   0.42237   0.00000  Uiso   1.00
H733   H     0.61053   0.88480   0.37946   0.00000  Uiso   1.00
H734   H     0.43976   0.74352   0.62616   0.00000  Uiso   1.00
H735   H     0.38947   0.78186   0.62054   0.00000  Uiso   1.00
H736   H     0.42978   0.77646   0.57763   0.00000  Uiso   1.00
N737   N     0.49999   0.83332   0.61907   0.00000  Uiso   1.00
N738   N     0.50001   0.83334   0.38093   0.00000  Uiso   1.00
O739   O     0.50000   0.77225   0.53821   0.00000  Uiso   1.00
O740   O     0.50000   0.89442   0.46179   0.00000  Uiso   1.00
O741   O     0.50000   0.77226   0.46176   0.00000  Uiso   1.00
O742   O     0.50000   0.89441   0.53824   0.00000  Uiso   1.00
O743   O     0.42392   0.83333   0.52928   0.00000  Uiso   1.00
O744   O     0.57608   0.83334   0.47072   0.00000  Uiso   1.00
O745   O     0.42392   0.83334   0.45284   0.00000  Uiso   1.00
O746   O     0.57608   0.83333   0.54716   0.00000  Uiso   1.00
Zn747  Zn    0.50000   0.83333   0.55104   0.00000  Uiso   1.00
Zn748  Zn    0.50000   0.83334   0.44896   0.00000  Uiso   1.00
C749   C     0.83294   0.75344   0.50014   0.00000  Uiso   1.00
C750   C     0.86431   0.68854   0.53491   0.00000  Uiso   1.00
C751   C     0.83398   0.95739   0.49960   0.00000  Uiso   1.00
C752   C     0.83269   0.70928   0.50040   0.00000  Uiso   1.00
C753   C     0.86614   0.86004   0.36006   0.00000  Uiso   1.00
C754   C     0.80052   0.80662   0.63994   0.00000  Uiso   1.00
C755   C     0.86585   0.85966   0.64565   0.00000  Uiso   1.00
C756   C     0.80082   0.80700   0.35435   0.00000  Uiso   1.00
C757   C     0.90351   0.89098   0.38578   0.00000  Uiso   1.00
C758   C     0.76316   0.77569   0.61422   0.00000  Uiso   1.00
C759   C     0.83373   0.91322   0.49986   0.00000  Uiso   1.00
C760   C     0.73400   0.83313   0.48833   0.00000  Uiso   1.00
C761   C     0.93266   0.83354   0.51167   0.00000  Uiso   1.00
C762   C     0.67935   0.83092   0.48212   0.00000  Uiso   1.00
C763   C     0.98732   0.83575   0.51788   0.00000  Uiso   1.00
C764   C     0.80163   0.68768   0.46555   0.00000  Uiso   1.00
C765   C     0.86503   0.97899   0.53445   0.00000  Uiso   1.00
C766   C     0.80235   0.97813   0.46509   0.00000  Uiso   1.00
F767   F     0.98849   0.82225   0.43945   0.00000  Uiso   1.00
F768   F     0.67817   0.84442   0.56055   0.00000  Uiso   1.00
F769   F     0.76982   0.70803   0.43287   0.00000  Uiso   1.00
F770   F     0.89685   0.95864   0.56714   0.00000  Uiso   1.00
F771   F     0.77121   0.95687   0.43203   0.00000  Uiso   1.00
F772   F     0.89546   0.70980   0.56797   0.00000  Uiso   1.00
F773   F     0.89850   0.88575   0.62591   0.00000  Uiso   1.00
F774   F     0.76817   0.78091   0.37409   0.00000  Uiso   1.00
H775   H     0.89357   0.92315   0.37384   0.00000  Uiso   1.00
H776   H     0.90355   0.89021   0.42237   0.00000  Uiso   1.00
H777   H     0.94387   0.88480   0.37946   0.00000  Uiso   1.00
H778   H     0.77310   0.74352   0.62616   0.00000  Uiso   1.00
H779   H     0.72280   0.78186   0.62054   0.00000  Uiso   1.00
H780   H     0.76312   0.77646   0.57763   0.00000  Uiso   1.00
N781   N     0.83332   0.83332   0.61907   0.00000  Uiso   1.00
N782   N     0.83335   0.83334   0.38093   0.00000  Uiso   1.00
O783   O     0.83333   0.77225   0.53821   0.00000  Uiso   1.00
O784   O     0.83334   0.89442   0.46179   0.00000  Uiso   1.00
O785   O     0.83333   0.77226   0.46176   0.00000  Uiso   1.00
O786   O     0.83334   0.89441   0.53824   0.00000  Uiso   1.00
O787   O     0.75725   0.83333   0.52928   0.00000  Uiso   1.00
O788   O     0.90942   0.83334   0.47072   0.00000  Uiso   1.00
O789   O     0.75725   0.83334   0.45284   0.00000  Uiso   1.00
O790   O     0.90942   0.83333   0.54716   0.00000  Uiso   1.00
Zn791  Zn    0.83333   0.83333   0.55104   0.00000  Uiso   1.00
Zn792  Zn    0.83333   0.83334   0.44896   0.00000  Uiso   1.00
C793   C     0.16627   0.08678   0.83347   0.00000  Uiso   1.00
C794   C     0.19765   0.02187   0.86824   0.00000  Uiso   1.00
C795   C     0.16731   0.29072   0.83293   0.00000  Uiso   1.00
C796   C     0.16602   0.04261   0.83374   0.00000  Uiso   1.00
C797   C     0.19948   0.19338   0.69339   0.00000  Uiso   1.00
C798   C     0.13386   0.13995   0.97327   0.00000  Uiso   1.00
C799   C     0.19918   0.19300   0.97899   0.00000  Uiso   1.00
C800   C     0.13415   0.14034   0.68768   0.00000  Uiso   1.00
C801   C     0.23684   0.22431   0.71911   0.00000  Uiso   1.00
C802   C     0.09649   0.10902   0.94756   0.00000  Uiso   1.00
C803   C     0.16706   0.24656   0.83320   0.00000  Uiso   1.00
C804   C     0.06734   0.16646   0.82167   0.00000  Uiso   1.00
C805   C     0.26600   0.16687   0.84500   0.00000  Uiso   1.00
C806   C     0.01268   0.16425   0.81546   0.00000  Uiso   1.00
C807   C     0.32065   0.16908   0.85121   0.00000  Uiso   1.00
C808   C     0.13497   0.02101   0.79888   0.00000  Uiso   1.00
C809   C     0.19837   0.31232   0.86779   0.00000  Uiso   1.00
C810   C     0.13569   0.31146   0.79843   0.00000  Uiso   1.00
F811   F     0.32183   0.15558   0.77278   0.00000  Uiso   1.00
F812   F     0.01151   0.17775   0.89388   0.00000  Uiso   1.00
F813   F     0.10315   0.04136   0.76620   0.00000  Uiso   1.00
F814   F     0.23018   0.29197   0.90047   0.00000  Uiso   1.00
F815   F     0.10454   0.29020   0.76536   0.00000  Uiso   1.00
F816   F     0.22879   0.04313   0.90130   0.00000  Uiso   1.00
F817   F     0.23183   0.21909   0.95925   0.00000  Uiso   1.00
F818   F     0.10150   0.11425   0.70742   0.00000  Uiso   1.00
H819   H     0.22690   0.25648   0.70718   0.00000  Uiso   1.00
H820   H     0.23688   0.22354   0.75571   0.00000  Uiso   1.00
H821   H     0.27720   0.21814   0.71279   0.00000  Uiso   1.00
H822   H     0.10643   0.07685   0.95949   0.00000  Uiso   1.00
H823   H     0.05613   0.11520   0.95388   0.00000  Uiso   1.00
H824   H     0.09645   0.10979   0.91096   0.00000  Uiso   1.00
N825   N     0.16665   0.16666   0.95240   0.00000  Uiso   1.00
N826   N     0.16668   0.16668   0.71427   0.00000  Uiso   1.00
O827   O     0.16666   0.10558   0.87154   0.00000  Uiso   1.00
O828   O     0.16667   0.22775   0.79513   0.00000  Uiso   1.00
O829   O     0.16666   0.10559   0.79510   0.00000  Uiso   1.00
O830   O     0.16667   0.22774   0.87157   0.00000  Uiso   1.00
O831   O     0.09058   0.16666   0.86261   0.00000  Uiso   1.00
O832   O     0.24275   0.16667   0.80405   0.00000  Uiso   1.00
O833   O     0.09058   0.16667   0.78617   0.00000  Uiso   1.00
O834   O     0.24275   0.16666   0.88050   0.00000  Uiso   1.00
Zn835  Zn    0.16667   0.16666   0.88437   0.00000  Uiso   1.00
Zn836  Zn    0.16667   0.16667   0.78229   0.00000  Uiso   1.00
C837   C     0.49960   0.08678   0.83347   0.00000  Uiso   1.00
C838   C     0.53098   0.02187   0.86824   0.00000  Uiso   1.00
C839   C     0.50064   0.29072   0.83293   0.00000  Uiso   1.00
C840   C     0.49936   0.04261   0.83374   0.00000  Uiso   1.00
C841   C     0.53281   0.19338   0.69339   0.00000  Uiso   1.00
C842   C     0.46719   0.13995   0.97327   0.00000  Uiso   1.00
C843   C     0.53251   0.19300   0.97899   0.00000  Uiso   1.00
C844   C     0.46749   0.14034   0.68768   0.00000  Uiso   1.00
C845   C     0.57018   0.22431   0.71911   0.00000  Uiso   1.00
C846   C     0.42982   0.10902   0.94756   0.00000  Uiso   1.00
C847   C     0.50040   0.24656   0.83320   0.00000  Uiso   1.00
C848   C     0.40067   0.16646   0.82167   0.00000  Uiso   1.00
C849   C     0.59933   0.16687   0.84500   0.00000  Uiso   1.00
C850   C     0.34602   0.16425   0.81546   0.00000  Uiso   1.00
C851   C     0.65398   0.16908   0.85121   0.00000  Uiso   1.00
C852   C     0.46830   0.02101   0.79888   0.00000  Uiso   1.00
C853   C     0.53170   0.31232   0.86779   0.00000  Uiso   1.00
C854   C     0.46902   0.31146   0.79843   0.00000  Uiso   1.00
F855   F     0.65516   0.15558   0.77278   0.00000  Uiso   1.00
F856   F     0.34484   0.17775   0.89388   0.00000  Uiso   1.00
F857   F     0.43649   0.04136   0.76620   0.00000  Uiso   1.00
F858   F     0.56351   0.29197   0.90047   0.00000  Uiso   1.00
F859   F     0.43787   0.29020   0.76536   0.00000  Uiso   1.00
F860   F     0.56213   0.04313   0.90130   0.00000  Uiso   1.00
F861   F     0.56516   0.21909   0.95925   0.00000  Uiso   1.00
F862   F     0.43484   0.11425   0.70742   0.00000  Uiso   1.00
H863   H     0.56024   0.25648   0.70718   0.00000  Uiso   1.00
H864   H     0.57022   0.22354   0.75571   0.00000  Uiso   1.00
H865   H     0.61053   0.21814   0.71279   0.00000  Uiso   1.00
H866   H     0.43976   0.07685   0.95949   0.00000  Uiso   1.00
H867   H     0.38947   0.11520   0.95388   0.00000  Uiso   1.00
H868   H     0.42978   0.10979   0.91096   0.00000  Uiso   1.00
N869   N     0.49999   0.16666   0.95240   0.00000  Uiso   1.00
N870   N     0.50001   0.16668   0.71427   0.00000  Uiso   1.00
O871   O     0.50000   0.10558   0.87154   0.00000  Uiso   1.00
O872   O     0.50000   0.22775   0.79513   0.00000  Uiso   1.00
O873   O     0.50000   0.10559   0.79510   0.00000  Uiso   1.00
O874   O     0.50000   0.22774   0.87157   0.00000  Uiso   1.00
O875   O     0.42392   0.16666   0.86261   0.00000  Uiso   1.00
O876   O     0.57608   0.16667   0.80405   0.00000  Uiso   1.00
O877   O     0.42392   0.16667   0.78617   0.00000  Uiso   1.00
O878   O     0.57608   0.16666   0.88050   0.00000  Uiso   1.00
Zn879  Zn    0.50000   0.16666   0.88437   0.00000  Uiso   1.00
Zn880  Zn    0.50000   0.16667   0.78229   0.00000  Uiso   1.00
C881   C     0.83294   0.08678   0.83347   0.00000  Uiso   1.00
C882   C     0.86431   0.02187   0.86824   0.00000  Uiso   1.00
C883   C     0.83398   0.29072   0.83293   0.00000  Uiso   1.00
C884   C     0.83269   0.04261   0.83374   0.00000  Uiso   1.00
C885   C     0.86614   0.19338   0.69339   0.00000  Uiso   1.00
C886   C     0.80052   0.13995   0.97327   0.00000  Uiso   1.00
C887   C     0.86585   0.19300   0.97899   0.00000  Uiso   1.00
C888   C     0.80082   0.14034   0.68768   0.00000  Uiso   1.00
C889   C     0.90351   0.22431   0.71911   0.00000  Uiso   1.00
C890   C     0.76316   0.10902   0.94756   0.00000  Uiso   1.00
C891   C     0.83373   0.24656   0.83320   0.00000  Uiso   1.00
C892   C     0.73400   0.16646   0.82167   0.00000  Uiso   1.00
C893   C     0.93266   0.16687   0.84500   0.00000  Uiso   1.00
C894   C     0.67935   0.16425   0.81546   0.00000  Uiso   1.00
C895   C     0.98732   0.16908   0.85121   0.00000  Uiso   1.00
C896   C     0.80163   0.02101   0.79888   0.00000  Uiso   1.00
C897   C     0.86503   0.31232   0.86779   0.00000  Uiso   1.00
C898   C     0.80235   0.31146   0.79843   0.00000  Uiso   1.00
F899   F     0.98849   0.15558   0.77278   0.00000  Uiso   1.00
F900   F     0.67817   0.17775   0.89388   0.00000  Uiso   1.00
F901   F     0.76982   0.04136   0.76620   0.00000  Uiso   1.00
F902   F     0.89685   0.29197   0.90047   0.00000  Uiso   1.00
F903   F     0.77121   0.29020   0.76536   0.00000  Uiso   1.00
F904   F     0.89546   0.04313   0.90130   0.00000  Uiso   1.00
F905   F     0.89850   0.21909   0.95925   0.00000  Uiso   1.00
F906   F     0.76817   0.11425   0.70742   0.00000  Uiso   1.00
H907   H     0.89357   0.25648   0.70718   0.00000  Uiso   1.00
H908   H     0.90355   0.22354   0.75571   0.00000  Uiso   1.00
H909   H     0.94387   0.21814   0.71279   0.00000  Uiso   1.00
H910   H     0.77310   0.07685   0.95949   0.00000  Uiso   1.00
H911   H     0.72280   0.11520   0.95388   0.00000  Uiso   1.00
H912   H     0.76312   0.10979   0.91096   0.00000  Uiso   1.00
N913   N     0.83332   0.16666   0.95240   0.00000  Uiso   1.00
N914   N     0.83335   0.16668   0.71427   0.00000  Uiso   1.00
O915   O     0.83333   0.10558   0.87154   0.00000  Uiso   1.00
O916   O     0.83334   0.22775   0.79513   0.00000  Uiso   1.00
O917   O     0.83333   0.10559   0.79510   0.00000  Uiso   1.00
O918   O     0.83334   0.22774   0.87157   0.00000  Uiso   1.00
O919   O     0.75725   0.16666   0.86261   0.00000  Uiso   1.00
O920   O     0.90942   0.16667   0.80405   0.00000  Uiso   1.00
O921   O     0.75725   0.16667   0.78617   0.00000  Uiso   1.00
O922   O     0.90942   0.16666   0.88050   0.00000  Uiso   1.00
Zn923  Zn    0.83333   0.16666   0.88437   0.00000  Uiso   1.00
Zn924  Zn    0.83333   0.16667   0.78229   0.00000  Uiso   1.00
C925   C     0.16627   0.42011   0.83347   0.00000  Uiso   1.00
C926   C     0.19765   0.35520   0.86824   0.00000  Uiso   1.00
C927   C     0.16731   0.62405   0.83293   0.00000  Uiso   1.00
C928   C     0.16602   0.37595   0.83374   0.00000  Uiso   1.00
C929   C     0.19948   0.52671   0.69339   0.00000  Uiso   1.00
C930   C     0.13386   0.47329   0.97327   0.00000  Uiso   1.00
C931   C     0.19918   0.52633   0.97899   0.00000  Uiso   1.00
C932   C     0.13415   0.47367   0.68768   0.00000  Uiso   1.00
C933   C     0.23684   0.55765   0.71911   0.00000  Uiso   1.00
C934   C     0.09649   0.44235   0.94756   0.00000  Uiso   1.00
C935   C     0.16706   0.57989   0.83320   0.00000  Uiso   1.00
C936   C     0.06734   0.49980   0.82167   0.00000  Uiso   1.00
C937   C     0.26600   0.50020   0.84500   0.00000  Uiso   1.00
C938   C     0.01268   0.49759   0.81546   0.00000  Uiso   1.00
C939   C     0.32065   0.50241   0.85121   0.00000  Uiso   1.00
C940   C     0.13497   0.35435   0.79888   0.00000  Uiso   1.00
C941   C     0.19837   0.64565   0.86779   0.00000  Uiso   1.00
C942   C     0.13569   0.64480   0.79843   0.00000  Uiso   1.00
F943   F     0.32183   0.48892   0.77278   0.00000  Uiso   1.00
F944   F     0.01151   0.51108   0.89388   0.00000  Uiso   1.00
F945   F     0.10315   0.37469   0.76620   0.00000  Uiso   1.00
F946   F     0.23018   0.62531   0.90047   0.00000  Uiso   1.00
F947   F     0.10454   0.62354   0.76536   0.00000  Uiso   1.00
F948   F     0.22879   0.37646   0.90130   0.00000  Uiso   1.00
F949   F     0.23183   0.55242   0.95925   0.00000  Uiso   1.00
F950   F     0.10150   0.44758   0.70742   0.00000  Uiso   1.00
H951   H     0.22690   0.58981   0.70718   0.00000  Uiso   1.00
H952   H     0.23688   0.55688   0.75571   0.00000  Uiso   1.00
H953   H     0.27720   0.55147   0.71279   0.00000  Uiso   1.00
H954   H     0.10643   0.41019   0.95949   0.00000  Uiso   1.00
H955   H     0.05613   0.44853   0.95388   0.00000  Uiso   1.00
H956   H     0.09645   0.44312   0.91096   0.00000  Uiso   1.00
N957   N     0.16665   0.49999   0.95240   0.00000  Uiso   1.00
N958   N     0.16668   0.50001   0.71427   0.00000  Uiso   1.00
O959   O     0.16666   0.43892   0.87154   0.00000  Uiso   1.00
O960   O     0.16667   0.56108   0.79513   0.00000  Uiso   1.00
O961   O     0.16666   0.43893   0.79510   0.00000  Uiso   1.00
O962   O     0.16667   0.56107   0.87157   0.00000  Uiso   1.00
O963   O     0.09058   0.50000   0.86261   0.00000  Uiso   1.00
O964   O     0.24275   0.50000   0.80405   0.00000  Uiso   1.00
O965   O     0.09058   0.50000   0.78617   0.00000  Uiso   1.00
O966   O     0.24275   0.50000   0.88050   0.00000  Uiso   1.00
Zn967  Zn    0.16667   0.49999   0.88437   0.00000  Uiso   1.00
Zn968  Zn    0.16667   0.50001   0.78229   0.00000  Uiso   1.00
C969   C     0.49960   0.42011   0.83347   0.00000  Uiso   1.00
C970   C     0.53098   0.35520   0.86824   0.00000  Uiso   1.00
C971   C     0.50064   0.62405   0.83293   0.00000  Uiso   1.00
C972   C     0.49936   0.37595   0.83374   0.00000  Uiso   1.00
C973   C     0.53281   0.52671   0.69339   0.00000  Uiso   1.00
C974   C     0.46719   0.47329   0.97327   0.00000  Uiso   1.00
C975   C     0.53251   0.52633   0.97899   0.00000  Uiso   1.00
C976   C     0.46749   0.47367   0.68768   0.00000  Uiso   1.00
C977   C     0.57018   0.55765   0.71911   0.00000  Uiso   1.00
C978   C     0.42982   0.44235   0.94756   0.00000  Uiso   1.00
C979   C     0.50040   0.57989   0.83320   0.00000  Uiso   1.00
C980   C     0.40067   0.49980   0.82167   0.00000  Uiso   1.00
C981   C     0.59933   0.50020   0.84500   0.00000  Uiso   1.00
C982   C     0.34602   0.49759   0.81546   0.00000  Uiso   1.00
C983   C     0.65398   0.50241   0.85121   0.00000  Uiso   1.00
C984   C     0.46830   0.35435   0.79888   0.00000  Uiso   1.00
C985   C     0.53170   0.64565   0.86779   0.00000  Uiso   1.00
C986   C     0.46902   0.64480   0.79843   0.00000  Uiso   1.00
F987   F     0.65516   0.48892   0.77278   0.00000  Uiso   1.00
F988   F     0.34484   0.51108   0.89388   0.00000  Uiso   1.00
F989   F     0.43649   0.37469   0.76620   0.00000  Uiso   1.00
F990   F     0.56351   0.62531   0.90047   0.00000  Uiso   1.00
F991   F     0.43787   0.62354   0.76536   0.00000  Uiso   1.00
F992   F     0.56213   0.37646   0.90130   0.00000  Uiso   1.00
F993   F     0.56516   0.55242   0.95925   0.00000  Uiso   1.00
F994   F     0.43484   0.44758   0.70742   0.00000  Uiso   1.00
H995   H     0.56024   0.58981   0.70718   0.00000  Uiso   1.00
H996   H     0.57022   0.55688   0.75571   0.00000  Uiso   1.00
H997   H     0.61053   0.55147   0.71279   0.00000  Uiso   1.00
H998   H     0.43976   0.41019   0.95949   0.00000  Uiso   1.00
H999   H     0.38947   0.44853   0.95388   0.00000  Uiso   1.00
H1000  H     0.42978   0.44312   0.91096   0.00000  Uiso   1.00
N1001  N     0.49999   0.49999   0.95240   0.00000  Uiso   1.00
N1002  N     0.50001   0.50001   0.71427   0.00000  Uiso   1.00
O1003  O     0.50000   0.43892   0.87154   0.00000  Uiso   1.00
O1004  O     0.50000   0.56108   0.79513   0.00000  Uiso   1.00
O1005  O     0.50000   0.43893   0.79510   0.00000  Uiso   1.00
O1006  O     0.50000   0.56107   0.87157   0.00000  Uiso   1.00
O1007  O     0.42392   0.50000   0.86261   0.00000  Uiso   1.00
O1008  O     0.57608   0.50000   0.80405   0.00000  Uiso   1.00
O1009  O     0.42392   0.50000   0.78617   0.00000  Uiso   1.00
O1010  O     0.57608   0.50000   0.88050   0.00000  Uiso   1.00
Zn1011 Zn    0.50000   0.49999   0.88437   0.00000  Uiso   1.00
Zn1012 Zn    0.50000   0.50001   0.78229   0.00000  Uiso   1.00
C1013  C     0.83294   0.42011   0.83347   0.00000  Uiso   1.00
C1014  C     0.86431   0.35520   0.86824   0.00000  Uiso   1.00
C1015  C     0.83398   0.62405   0.83293   0.00000  Uiso   1.00
C1016  C     0.83269   0.37595   0.83374   0.00000  Uiso   1.00
C1017  C     0.86614   0.52671   0.69339   0.00000  Uiso   1.00
C1018  C     0.80052   0.47329   0.97327   0.00000  Uiso   1.00
C1019  C     0.86585   0.52633   0.97899   0.00000  Uiso   1.00
C1020  C     0.80082   0.47367   0.68768   0.00000  Uiso   1.00
C1021  C     0.90351   0.55765   0.71911   0.00000  Uiso   1.00
C1022  C     0.76316   0.44235   0.94756   0.00000  Uiso   1.00
C1023  C     0.83373   0.57989   0.83320   0.00000  Uiso   1.00
C1024  C     0.73400   0.49980   0.82167   0.00000  Uiso   1.00
C1025  C     0.93266   0.50020   0.84500   0.00000  Uiso   1.00
C1026  C     0.67935   0.49759   0.81546   0.00000  Uiso   1.00
C1027  C     0.98732   0.50241   0.85121   0.00000  Uiso   1.00
C1028  C     0.80163   0.35435   0.79888   0.00000  Uiso   1.00
C1029  C     0.86503   0.64565   0.86779   0.00000  Uiso   1.00
C1030  C     0.80235   0.64480   0.79843   0.00000  Uiso   1.00
F1031  F     0.98849   0.48892   0.77278   0.00000  Uiso   1.00
F1032  F     0.67817   0.51108   0.89388   0.00000  Uiso   1.00
F1033  F     0.76982   0.37469   0.76620   0.00000  Uiso   1.00
F1034  F     0.89685   0.62531   0.90047   0.00000  Uiso   1.00
F1035  F     0.77121   0.62354   0.76536   0.00000  Uiso   1.00
F1036  F     0.89546   0.37646   0.90130   0.00000  Uiso   1.00
F1037  F     0.89850   0.55242   0.95925   0.00000  Uiso   1.00
F1038  F     0.76817   0.44758   0.70742   0.00000  Uiso   1.00
H1039  H     0.89357   0.58981   0.70718   0.00000  Uiso   1.00
H1040  H     0.90355   0.55688   0.75571   0.00000  Uiso   1.00
H1041  H     0.94387   0.55147   0.71279   0.00000  Uiso   1.00
H1042  H     0.77310   0.41019   0.95949   0.00000  Uiso   1.00
H1043  H     0.72280   0.44853   0.95388   0.00000  Uiso   1.00
H1044  H     0.76312   0.44312   0.91096   0.00000  Uiso   1.00
N1045  N     0.83332   0.49999   0.95240   0.00000  Uiso   1.00
N1046  N     0.83335   0.50001   0.71427   0.00000  Uiso   1.00
O1047  O     0.83333   0.43892   0.87154   0.00000  Uiso   1.00
O1048  O     0.83334   0.56108   0.79513   0.00000  Uiso   1.00
O1049  O     0.83333   0.43893   0.79510   0.00000  Uiso   1.00
O1050  O     0.83334   0.56107   0.87157   0.00000  Uiso   1.00
O1051  O     0.75725   0.50000   0.86261   0.00000  Uiso   1.00
O1052  O     0.90942   0.50000   0.80405   0.00000  Uiso   1.00
O1053  O     0.75725   0.50000   0.78617   0.00000  Uiso   1.00
O1054  O     0.90942   0.50000   0.88050   0.00000  Uiso   1.00
Zn1055 Zn    0.83333   0.49999   0.88437   0.00000  Uiso   1.00
Zn1056 Zn    0.83333   0.50001   0.78229   0.00000  Uiso   1.00
C1057  C     0.16627   0.75344   0.83347   0.00000  Uiso   1.00
C1058  C     0.19765   0.68854   0.86824   0.00000  Uiso   1.00
C1059  C     0.16731   0.95739   0.83293   0.00000  Uiso   1.00
C1060  C     0.16602   0.70928   0.83374   0.00000  Uiso   1.00
C1061  C     0.19948   0.86004   0.69339   0.00000  Uiso   1.00
C1062  C     0.13386   0.80662   0.97327   0.00000  Uiso   1.00
C1063  C     0.19918   0.85966   0.97899   0.00000  Uiso   1.00
C1064  C     0.13415   0.80700   0.68768   0.00000  Uiso   1.00
C1065  C     0.23684   0.89098   0.71911   0.00000  Uiso   1.00
C1066  C     0.09649   0.77569   0.94756   0.00000  Uiso   1.00
C1067  C     0.16706   0.91322   0.83320   0.00000  Uiso   1.00
C1068  C     0.06734   0.83313   0.82167   0.00000  Uiso   1.00
C1069  C     0.26600   0.83354   0.84500   0.00000  Uiso   1.00
C1070  C     0.01268   0.83092   0.81546   0.00000  Uiso   1.00
C1071  C     0.32065   0.83575   0.85121   0.00000  Uiso   1.00
C1072  C     0.13497   0.68768   0.79888   0.00000  Uiso   1.00
C1073  C     0.19837   0.97899   0.86779   0.00000  Uiso   1.00
C1074  C     0.13569   0.97813   0.79843   0.00000  Uiso   1.00
F1075  F     0.32183   0.82225   0.77278   0.00000  Uiso   1.00
F1076  F     0.01151   0.84442   0.89388   0.00000  Uiso   1.00
F1077  F     0.10315   0.70803   0.76620   0.00000  Uiso   1.00
F1078  F     0.23018   0.95864   0.90047   0.00000  Uiso   1.00
F1079  F     0.10454   0.95687   0.76536   0.00000  Uiso   1.00
F1080  F     0.22879   0.70980   0.90130   0.00000  Uiso   1.00
F1081  F     0.23183   0.88575   0.95925   0.00000  Uiso   1.00
F1082  F     0.10150   0.78091   0.70742   0.00000  Uiso   1.00
H1083  H     0.22690   0.92315   0.70718   0.00000  Uiso   1.00
H1084  H     0.23688   0.89021   0.75571   0.00000  Uiso   1.00
H1085  H     0.27720   0.88480   0.71279   0.00000  Uiso   1.00
H1086  H     0.10643   0.74352   0.95949   0.00000  Uiso   1.00
H1087  H     0.05613   0.78186   0.95388   0.00000  Uiso   1.00
H1088  H     0.09645   0.77646   0.91096   0.00000  Uiso   1.00
N1089  N     0.16665   0.83332   0.95240   0.00000  Uiso   1.00
N1090  N     0.16668   0.83334   0.71427   0.00000  Uiso   1.00
O1091  O     0.16666   0.77225   0.87154   0.00000  Uiso   1.00
O1092  O     0.16667   0.89442   0.79513   0.00000  Uiso   1.00
O1093  O     0.16666   0.77226   0.79510   0.00000  Uiso   1.00
O1094  O     0.16667   0.89441   0.87157   0.00000  Uiso   1.00
O1095  O     0.09058   0.83333   0.86261   0.00000  Uiso   1.00
O1096  O     0.24275   0.83334   0.80405   0.00000  Uiso   1.00
O1097  O     0.09058   0.83334   0.78617   0.00000  Uiso   1.00
O1098  O     0.24275   0.83333   0.88050   0.00000  Uiso   1.00
Zn1099 Zn    0.16667   0.83333   0.88437   0.00000  Uiso   1.00
Zn1100 Zn    0.16667   0.83334   0.78229   0.00000  Uiso   1.00
C1101  C     0.49960   0.75344   0.83347   0.00000  Uiso   1.00
C1102  C     0.53098   0.68854   0.86824   0.00000  Uiso   1.00
C1103  C     0.50064   0.95739   0.83293   0.00000  Uiso   1.00
C1104  C     0.49936   0.70928   0.83374   0.00000  Uiso   1.00
C1105  C     0.53281   0.86004   0.69339   0.00000  Uiso   1.00
C1106  C     0.46719   0.80662   0.97327   0.00000  Uiso   1.00
C1107  C     0.53251   0.85966   0.97899   0.00000  Uiso   1.00
C1108  C     0.46749   0.80700   0.68768   0.00000  Uiso   1.00
C1109  C     0.57018   0.89098   0.71911   0.00000  Uiso   1.00
C1110  C     0.42982   0.77569   0.94756   0.00000  Uiso   1.00
C1111  C     0.50040   0.91322   0.83320   0.00000  Uiso   1.00
C1112  C     0.40067   0.83313   0.82167   0.00000  Uiso   1.00
C1113  C     0.59933   0.83354   0.84500   0.00000  Uiso   1.00
C1114  C     0.34602   0.83092   0.81546   0.00000  Uiso   1.00
C1115  C     0.65398   0.83575   0.85121   0.00000  Uiso   1.00
C1116  C     0.46830   0.68768   0.79888   0.00000  Uiso   1.00
C1117  C     0.53170   0.97899   0.86779   0.00000  Uiso   1.00
C1118  C     0.46902   0.97813   0.79843   0.00000  Uiso   1.00
F1119  F     0.65516   0.82225   0.77278   0.00000  Uiso   1.00
F1120  F     0.34484   0.84442   0.89388   0.00000  Uiso   1.00
F1121  F     0.43649   0.70803   0.76620   0.00000  Uiso   1.00
F1122  F     0.56351   0.95864   0.90047   0.00000  Uiso   1.00
F1123  F     0.43787   0.95687   0.76536   0.00000  Uiso   1.00
F1124  F     0.56213   0.70980   0.90130   0.00000  Uiso   1.00
F1125  F     0.56516   0.88575   0.95925   0.00000  Uiso   1.00
F1126  F     0.43484   0.78091   0.70742   0.00000  Uiso   1.00
H1127  H     0.56024   0.92315   0.70718   0.00000  Uiso   1.00
H1128  H     0.57022   0.89021   0.75571   0.00000  Uiso   1.00
H1129  H     0.61053   0.88480   0.71279   0.00000  Uiso   1.00
H1130  H     0.43976   0.74352   0.95949   0.00000  Uiso   1.00
H1131  H     0.38947   0.78186   0.95388   0.00000  Uiso   1.00
H1132  H     0.42978   0.77646   0.91096   0.00000  Uiso   1.00
N1133  N     0.49999   0.83332   0.95240   0.00000  Uiso   1.00
N1134  N     0.50001   0.83334   0.71427   0.00000  Uiso   1.00
O1135  O     0.50000   0.77225   0.87154   0.00000  Uiso   1.00
O1136  O     0.50000   0.89442   0.79513   0.00000  Uiso   1.00
O1137  O     0.50000   0.77226   0.79510   0.00000  Uiso   1.00
O1138  O     0.50000   0.89441   0.87157   0.00000  Uiso   1.00
O1139  O     0.42392   0.83333   0.86261   0.00000  Uiso   1.00
O1140  O     0.57608   0.83334   0.80405   0.00000  Uiso   1.00
O1141  O     0.42392   0.83334   0.78617   0.00000  Uiso   1.00
O1142  O     0.57608   0.83333   0.88050   0.00000  Uiso   1.00
Zn1143 Zn    0.50000   0.83333   0.88437   0.00000  Uiso   1.00
Zn1144 Zn    0.50000   0.83334   0.78229   0.00000  Uiso   1.00
C1145  C     0.83294   0.75344   0.83347   0.00000  Uiso   1.00
C1146  C     0.86431   0.68854   0.86824   0.00000  Uiso   1.00
C1147  C     0.83398   0.95739   0.83293   0.00000  Uiso   1.00
C1148  C     0.83269   0.70928   0.83374   0.00000  Uiso   1.00
C1149  C     0.86614   0.86004   0.69339   0.00000  Uiso   1.00
C1150  C     0.80052   0.80662   0.97327   0.00000  Uiso   1.00
C1151  C     0.86585   0.85966   0.97899   0.00000  Uiso   1.00
C1152  C     0.80082   0.80700   0.68768   0.00000  Uiso   1.00
C1153  C     0.90351   0.89098   0.71911   0.00000  Uiso   1.00
C1154  C     0.76316   0.77569   0.94756   0.00000  Uiso   1.00
C1155  C     0.83373   0.91322   0.83320   0.00000  Uiso   1.00
C1156  C     0.73400   0.83313   0.82167   0.00000  Uiso   1.00
C1157  C     0.93266   0.83354   0.84500   0.00000  Uiso   1.00
C1158  C     0.67935   0.83092   0.81546   0.00000  Uiso   1.00
C1159  C     0.98732   0.83575   0.85121   0.00000  Uiso   1.00
C1160  C     0.80163   0.68768   0.79888   0.00000  Uiso   1.00
C1161  C     0.86503   0.97899   0.86779   0.00000  Uiso   1.00
C1162  C     0.80235   0.97813   0.79843   0.00000  Uiso   1.00
F1163  F     0.98849   0.82225   0.77278   0.00000  Uiso   1.00
F1164  F     0.67817   0.84442   0.89388   0.00000  Uiso   1.00
F1165  F     0.76982   0.70803   0.76620   0.00000  Uiso   1.00
F1166  F     0.89685   0.95864   0.90047   0.00000  Uiso   1.00
F1167  F     0.77121   0.95687   0.76536   0.00000  Uiso   1.00
F1168  F     0.89546   0.70980   0.90130   0.00000  Uiso   1.00
F1169  F     0.89850   0.88575   0.95925   0.00000  Uiso   1.00
F1170  F     0.76817   0.78091   0.70742   0.00000  Uiso   1.00
H1171  H     0.89357   0.92315   0.70718   0.00000  Uiso   1.00
H1172  H     0.90355   0.89021   0.75571   0.00000  Uiso   1.00
H1173  H     0.94387   0.88480   0.71279   0.00000  Uiso   1.00
H1174  H     0.77310   0.74352   0.95949   0.00000  Uiso   1.00
H1175  H     0.72280   0.78186   0.95388   0.00000  Uiso   1.00
H1176  H     0.76312   0.77646   0.91096   0.00000  Uiso   1.00
N1177  N     0.83332   0.83332   0.95240   0.00000  Uiso   1.00
N1178  N     0.83335   0.83334   0.71427   0.00000  Uiso   1.00
O1179  O     0.83333   0.77225   0.87154   0.00000  Uiso   1.00
O1180  O     0.83334   0.89442   0.79513   0.00000  Uiso   1.00
O1181  O     0.83333   0.77226   0.79510   0.00000  Uiso   1.00
O1182  O     0.83334   0.89441   0.87157   0.00000  Uiso   1.00
O1183  O     0.75725   0.83333   0.86261   0.00000  Uiso   1.00
O1184  O     0.90942   0.83334   0.80405   0.00000  Uiso   1.00
O1185  O     0.75725   0.83334   0.78617   0.00000  Uiso   1.00
O1186  O     0.90942   0.83333   0.88050   0.00000  Uiso   1.00
Zn1187 Zn    0.83333   0.83333   0.88437   0.00000  Uiso   1.00
Zn1188 Zn    0.83333   0.83334   0.78229   0.00000  Uiso   1.00
loop_
_geom_bond_atom_site_label_1
_geom_bond_atom_site_label_2
_geom_bond_distance
_geom_bond_site_symmetry_2
_ccdc_geom_bond_type
C1     O37     1.287   .     A
C1     C4      1.413   .     S
C1     O35     1.288   .     A
C2     C4      1.397   .     A
C2     F24     1.359   .     S
C2     C281    1.373   1_545 S
C3     C17     1.399   .     A
C3     C11     1.413   .     S
C3     C18     1.397   .     A
C4     C16     1.399   .     A
C5     N34     1.388   .     A
C5     C9      1.503   .     S
C5     C799    1.421   1_554 S
C6     C10     1.503   .     S
C6     N33     1.388   .     A
C6     C404    1.421   .     S
C7     F25     1.357   .     S
C7     N33     1.355   .     A
C7     C401    1.421   .     S
C8     N34     1.355   .     A
C8     F26     1.357   .     S
C8     C798    1.421   1_554 S
C9     H29     1.111   .     S
C9     H27     1.111   .     S
C9     H28     1.090   .     S
C10    H30     1.111   .     S
C10    H32     1.090   .     S
C10    H31     1.111   .     S
C11    O38     1.287   .     A
C11    O36     1.288   .     A
C12    O41     1.286   .     A
C12    O39     1.283   .     A
C12    C14     1.402   .     S
C13    O42     1.286   .     A
C13    C15     1.402   .     S
C13    O40     1.283   .     A
C14    C103    1.338   1_455 S
C14    F107    1.365   1_455 S
C15    C58     1.338   .     S
C15    F64     1.365   .     S
C16    F21     1.359   .     S
C16    C282    1.373   1_545 S
C17    F22     1.359   .     S
C17    C134    1.373   .     S
C18    F23     1.359   .     S
C18    C148    1.373   .     S
F19    C58     1.365   .     S
F20    C103    1.365   1_455 S
N33    Zn43    2.026   .     S
N34    Zn44    2.026   .     S
O35    Zn43    1.996   .     S
O36    Zn44    1.996   .     S
O37    Zn44    1.987   .     S
O38    Zn43    1.987   .     S
O39    Zn43    1.988   .     S
O40    Zn44    1.988   .     S
O41    Zn44    1.989   .     S
O42    Zn43    1.989   .     S
C45    O81     1.287   .     A
C45    C48     1.413   .     S
C45    O79     1.288   .     A
C46    C48     1.397   .     A
C46    F68     1.359   .     S
C46    C325    1.373   1_545 S
C47    C61     1.399   .     A
C47    C55     1.413   .     S
C47    C62     1.397   .     A
C48    C60     1.399   .     A
C49    N78     1.388   .     A
C49    C53     1.503   .     S
C49    C843    1.421   1_554 S
C50    C54     1.503   .     S
C50    N77     1.388   .     A
C50    C448    1.421   .     S
C51    F69     1.357   .     S
C51    N77     1.355   .     A
C51    C445    1.421   .     S
C52    N78     1.355   .     A
C52    F70     1.357   .     S
C52    C842    1.421   1_554 S
C53    H73     1.111   .     S
C53    H71     1.111   .     S
C53    H72     1.090   .     S
C54    H74     1.111   .     S
C54    H76     1.090   .     S
C54    H75     1.111   .     S
C55    O82     1.287   .     A
C55    O80     1.288   .     A
C56    O85     1.286   .     A
C56    O83     1.283   .     A
C56    C58     1.402   .     S
C57    O86     1.286   .     A
C57    C59     1.402   .     S
C57    O84     1.283   .     A
C59    C102    1.338   .     S
C59    F108    1.365   .     S
C60    F65     1.359   .     S
C60    C326    1.373   1_545 S
C61    F66     1.359   .     S
C61    C178    1.373   .     S
C62    F67     1.359   .     S
C62    C192    1.373   .     S
F63    C102    1.365   .     S
N77    Zn87    2.026   .     S
N78    Zn88    2.026   .     S
O79    Zn87    1.996   .     S
O80    Zn88    1.996   .     S
O81    Zn88    1.987   .     S
O82    Zn87    1.987   .     S
O83    Zn87    1.988   .     S
O84    Zn88    1.988   .     S
O85    Zn88    1.989   .     S
O86    Zn87    1.989   .     S
C89    O125    1.287   .     A
C89    C92     1.413   .     S
C89    O123    1.288   .     A
C90    C92     1.397   .     A
C90    F112    1.359   .     S
C90    C369    1.373   1_545 S
C91    C105    1.399   .     A
C91    C99     1.413   .     S
C91    C106    1.397   .     A
C92    C104    1.399   .     A
C93    N122    1.388   .     A
C93    C97     1.503   .     S
C93    C887    1.421   1_554 S
C94    C98     1.503   .     S
C94    N121    1.388   .     A
C94    C492    1.421   .     S
C95    F113    1.357   .     S
C95    N121    1.355   .     A
C95    C489    1.421   .     S
C96    N122    1.355   .     A
C96    F114    1.357   .     S
C96    C886    1.421   1_554 S
C97    H117    1.111   .     S
C97    H115    1.111   .     S
C97    H116    1.090   .     S
C98    H118    1.111   .     S
C98    H120    1.090   .     S
C98    H119    1.111   .     S
C99    O126    1.287   .     A
C99    O124    1.288   .     A
C100   O129    1.286   .     A
C100   O127    1.283   .     A
C100   C102    1.402   .     S
C101   O130    1.286   .     A
C101   C103    1.402   .     S
C101   O128    1.283   .     A
C103   C14     1.338   1_655 S
C103   F20     1.365   1_655 S
C104   F109    1.359   .     S
C104   C370    1.373   1_545 S
C105   F110    1.359   .     S
C105   C222    1.373   .     S
C106   F111    1.359   .     S
C106   C236    1.373   .     S
F107   C14     1.365   1_655 S
N121   Zn131   2.026   .     S
N122   Zn132   2.026   .     S
O123   Zn131   1.996   .     S
O124   Zn132   1.996   .     S
O125   Zn132   1.987   .     S
O126   Zn131   1.987   .     S
O127   Zn131   1.988   .     S
O128   Zn132   1.988   .     S
O129   Zn132   1.989   .     S
O130   Zn131   1.989   .     S
C133   O169    1.287   .     A
C133   C136    1.413   .     S
C133   O167    1.288   .     A
C134   C136    1.397   .     A
C134   F156    1.359   .     S
C135   C149    1.399   .     A
C135   C143    1.413   .     S
C135   C150    1.397   .     A
C136   C148    1.399   .     A
C137   N166    1.388   .     A
C137   C141    1.503   .     S
C137   C931    1.421   1_554 S
C138   C142    1.503   .     S
C138   N165    1.388   .     A
C138   C536    1.421   .     S
C139   F157    1.357   .     S
C139   N165    1.355   .     A
C139   C533    1.421   .     S
C140   N166    1.355   .     A
C140   F158    1.357   .     S
C140   C930    1.421   1_554 S
C141   H161    1.111   .     S
C141   H159    1.111   .     S
C141   H160    1.090   .     S
C142   H162    1.111   .     S
C142   H164    1.090   .     S
C142   H163    1.111   .     S
C143   O170    1.287   .     A
C143   O168    1.288   .     A
C144   O173    1.286   .     A
C144   O171    1.283   .     A
C144   C146    1.402   .     S
C145   O174    1.286   .     A
C145   C147    1.402   .     S
C145   O172    1.283   .     A
C146   C235    1.338   1_455 S
C146   F239    1.365   1_455 S
C147   C190    1.338   .     S
C147   F196    1.365   .     S
C148   F153    1.359   .     S
C149   F154    1.359   .     S
C149   C266    1.373   .     S
C150   F155    1.359   .     S
C150   C280    1.373   .     S
F151   C190    1.365   .     S
F152   C235    1.365   1_455 S
N165   Zn175   2.026   .     S
N166   Zn176   2.026   .     S
O167   Zn175   1.996   .     S
O168   Zn176   1.996   .     S
O169   Zn176   1.987   .     S
O170   Zn175   1.987   .     S
O171   Zn175   1.988   .     S
O172   Zn176   1.988   .     S
O173   Zn176   1.989   .     S
O174   Zn175   1.989   .     S
C177   O213    1.287   .     A
C177   C180    1.413   .     S
C177   O211    1.288   .     A
C178   C180    1.397   .     A
C178   F200    1.359   .     S
C179   C193    1.399   .     A
C179   C187    1.413   .     S
C179   C194    1.397   .     A
C180   C192    1.399   .     A
C181   N210    1.388   .     A
C181   C185    1.503   .     S
C181   C975    1.421   1_554 S
C182   C186    1.503   .     S
C182   N209    1.388   .     A
C182   C580    1.421   .     S
C183   F201    1.357   .     S
C183   N209    1.355   .     A
C183   C577    1.421   .     S
C184   N210    1.355   .     A
C184   F202    1.357   .     S
C184   C974    1.421   1_554 S
C185   H205    1.111   .     S
C185   H203    1.111   .     S
C185   H204    1.090   .     S
C186   H206    1.111   .     S
C186   H208    1.090   .     S
C186   H207    1.111   .     S
C187   O214    1.287   .     A
C187   O212    1.288   .     A
C188   O217    1.286   .     A
C188   O215    1.283   .     A
C188   C190    1.402   .     S
C189   O218    1.286   .     A
C189   C191    1.402   .     S
C189   O216    1.283   .     A
C191   C234    1.338   .     S
C191   F240    1.365   .     S
C192   F197    1.359   .     S
C193   F198    1.359   .     S
C193   C310    1.373   .     S
C194   F199    1.359   .     S
C194   C324    1.373   .     S
F195   C234    1.365   .     S
N209   Zn219   2.026   .     S
N210   Zn220   2.026   .     S
O211   Zn219   1.996   .     S
O212   Zn220   1.996   .     S
O213   Zn220   1.987   .     S
O214   Zn219   1.987   .     S
O215   Zn219   1.988   .     S
O216   Zn220   1.988   .     S
O217   Zn220   1.989   .     S
O218   Zn219   1.989   .     S
C221   O257    1.287   .     A
C221   C224    1.413   .     S
C221   O255    1.288   .     A
C222   C224    1.397   .     A
C222   F244    1.359   .     S
C223   C237    1.399   .     A
C223   C231    1.413   .     S
C223   C238    1.397   .     A
C224   C236    1.399   .     A
C225   N254    1.388   .     A
C225   C229    1.503   .     S
C225   C1019   1.421   1_554 S
C226   C230    1.503   .     S
C226   N253    1.388   .     A
C226   C624    1.421   .     S
C227   F245    1.357   .     S
C227   N253    1.355   .     A
C227   C621    1.421   .     S
C228   N254    1.355   .     A
C228   F246    1.357   .     S
C228   C1018   1.421   1_554 S
C229   H249    1.111   .     S
C229   H247    1.111   .     S
C229   H248    1.090   .     S
C230   H250    1.111   .     S
C230   H252    1.090   .     S
C230   H251    1.111   .     S
C231   O258    1.287   .     A
C231   O256    1.288   .     A
C232   O261    1.286   .     A
C232   O259    1.283   .     A
C232   C234    1.402   .     S
C233   O262    1.286   .     A
C233   C235    1.402   .     S
C233   O260    1.283   .     A
C235   C146    1.338   1_655 S
C235   F152    1.365   1_655 S
C236   F241    1.359   .     S
C237   F242    1.359   .     S
C237   C354    1.373   .     S
C238   F243    1.359   .     S
C238   C368    1.373   .     S
F239   C146    1.365   1_655 S
N253   Zn263   2.026   .     S
N254   Zn264   2.026   .     S
O255   Zn263   1.996   .     S
O256   Zn264   1.996   .     S
O257   Zn264   1.987   .     S
O258   Zn263   1.987   .     S
O259   Zn263   1.988   .     S
O260   Zn264   1.988   .     S
O261   Zn264   1.989   .     S
O262   Zn263   1.989   .     S
C265   O301    1.287   .     A
C265   C268    1.413   .     S
C265   O299    1.288   .     A
C266   C268    1.397   .     A
C266   F288    1.359   .     S
C267   C281    1.399   .     A
C267   C275    1.413   .     S
C267   C282    1.397   .     A
C268   C280    1.399   .     A
C269   N298    1.388   .     A
C269   C273    1.503   .     S
C269   C1063   1.421   1_554 S
C270   C274    1.503   .     S
C270   N297    1.388   .     A
C270   C668    1.421   .     S
C271   F289    1.357   .     S
C271   N297    1.355   .     A
C271   C665    1.421   .     S
C272   N298    1.355   .     A
C272   F290    1.357   .     S
C272   C1062   1.421   1_554 S
C273   H293    1.111   .     S
C273   H291    1.111   .     S
C273   H292    1.090   .     S
C274   H294    1.111   .     S
C274   H296    1.090   .     S
C274   H295    1.111   .     S
C275   O302    1.287   .     A
C275   O300    1.288   .     A
C276   O305    1.286   .     A
C276   O303    1.283   .     A
C276   C278    1.402   .     S
C277   O306    1.286   .     A
C277   C279    1.402   .     S
C277   O304    1.283   .     A
C278   C367    1.338   1_455 S
C278   F371    1.365   1_455 S
C279   C322    1.338   .     S
C279   F328    1.365   .     S
C280   F285    1.359   .     S
C281   F286    1.359   .     S
C281   C2      1.373   1_565 S
C282   F287    1.359   .     S
C282   C16     1.373   1_565 S
F283   C322    1.365   .     S
F284   C367    1.365   1_455 S
N297   Zn307   2.026   .     S
N298   Zn308   2.026   .     S
O299   Zn307   1.996   .     S
O300   Zn308   1.996   .     S
O301   Zn308   1.987   .     S
O302   Zn307   1.987   .     S
O303   Zn307   1.988   .     S
O304   Zn308   1.988   .     S
O305   Zn308   1.989   .     S
O306   Zn307   1.989   .     S
C309   O345    1.287   .     A
C309   C312    1.413   .     S
C309   O343    1.288   .     A
C310   C312    1.397   .     A
C310   F332    1.359   .     S
C311   C325    1.399   .     A
C311   C319    1.413   .     S
C311   C326    1.397   .     A
C312   C324    1.399   .     A
C313   N342    1.388   .     A
C313   C317    1.503   .     S
C313   C1107   1.421   1_554 S
C314   C318    1.503   .     S
C314   N341    1.388   .     A
C314   C712    1.421   .     S
C315   F333    1.357   .     S
C315   N341    1.355   .     A
C315   C709    1.421   .     S
C316   N342    1.355   .     A
C316   F334    1.357   .     S
C316   C1106   1.421   1_554 S
C317   H337    1.111   .     S
C317   H335    1.111   .     S
C317   H336    1.090   .     S
C318   H338    1.111   .     S
C318   H340    1.090   .     S
C318   H339    1.111   .     S
C319   O346    1.287   .     A
C319   O344    1.288   .     A
C320   O349    1.286   .     A
C320   O347    1.283   .     A
C320   C322    1.402   .     S
C321   O350    1.286   .     A
C321   C323    1.402   .     S
C321   O348    1.283   .     A
C323   C366    1.338   .     S
C323   F372    1.365   .     S
C324   F329    1.359   .     S
C325   F330    1.359   .     S
C325   C46     1.373   1_565 S
C326   F331    1.359   .     S
C326   C60     1.373   1_565 S
F327   C366    1.365   .     S
N341   Zn351   2.026   .     S
N342   Zn352   2.026   .     S
O343   Zn351   1.996   .     S
O344   Zn352   1.996   .     S
O345   Zn352   1.987   .     S
O346   Zn351   1.987   .     S
O347   Zn351   1.988   .     S
O348   Zn352   1.988   .     S
O349   Zn352   1.989   .     S
O350   Zn351   1.989   .     S
C353   O389    1.287   .     A
C353   C356    1.413   .     S
C353   O387    1.288   .     A
C354   C356    1.397   .     A
C354   F376    1.359   .     S
C355   C369    1.399   .     A
C355   C363    1.413   .     S
C355   C370    1.397   .     A
C356   C368    1.399   .     A
C357   N386    1.388   .     A
C357   C361    1.503   .     S
C357   C1151   1.421   1_554 S
C358   C362    1.503   .     S
C358   N385    1.388   .     A
C358   C756    1.421   .     S
C359   F377    1.357   .     S
C359   N385    1.355   .     A
C359   C753    1.421   .     S
C360   N386    1.355   .     A
C360   F378    1.357   .     S
C360   C1150   1.421   1_554 S
C361   H381    1.111   .     S
C361   H379    1.111   .     S
C361   H380    1.090   .     S
C362   H382    1.111   .     S
C362   H384    1.090   .     S
C362   H383    1.111   .     S
C363   O390    1.287   .     A
C363   O388    1.288   .     A
C364   O393    1.286   .     A
C364   O391    1.283   .     A
C364   C366    1.402   .     S
C365   O394    1.286   .     A
C365   C367    1.402   .     S
C365   O392    1.283   .     A
C367   C278    1.338   1_655 S
C367   F284    1.365   1_655 S
C368   F373    1.359   .     S
C369   F374    1.359   .     S
C369   C90     1.373   1_565 S
C370   F375    1.359   .     S
C370   C104    1.373   1_565 S
F371   C278    1.365   1_655 S
N385   Zn395   2.026   .     S
N386   Zn396   2.026   .     S
O387   Zn395   1.996   .     S
O388   Zn396   1.996   .     S
O389   Zn396   1.987   .     S
O390   Zn395   1.987   .     S
O391   Zn395   1.988   .     S
O392   Zn396   1.988   .     S
O393   Zn396   1.989   .     S
O394   Zn395   1.989   .     S
C397   O433    1.287   .     A
C397   C400    1.413   .     S
C397   O431    1.288   .     A
C398   C400    1.397   .     A
C398   F420    1.359   .     S
C398   C677    1.373   1_545 S
C399   C413    1.399   .     A
C399   C407    1.413   .     S
C399   C414    1.397   .     A
C400   C412    1.399   .     A
C401   N430    1.388   .     A
C401   C405    1.503   .     S
C402   C406    1.503   .     S
C402   N429    1.388   .     A
C402   C800    1.421   .     S
C403   F421    1.357   .     S
C403   N429    1.355   .     A
C403   C797    1.421   .     S
C404   N430    1.355   .     A
C404   F422    1.357   .     S
C405   H425    1.111   .     S
C405   H423    1.111   .     S
C405   H424    1.090   .     S
C406   H426    1.111   .     S
C406   H428    1.090   .     S
C406   H427    1.111   .     S
C407   O434    1.287   .     A
C407   O432    1.288   .     A
C408   O437    1.286   .     A
C408   O435    1.283   .     A
C408   C410    1.402   .     S
C409   O438    1.286   .     A
C409   C411    1.402   .     S
C409   O436    1.283   .     A
C410   C499    1.338   1_455 S
C410   F503    1.365   1_455 S
C411   C454    1.338   .     S
C411   F460    1.365   .     S
C412   F417    1.359   .     S
C412   C678    1.373   1_545 S
C413   F418    1.359   .     S
C413   C530    1.373   .     S
C414   F419    1.359   .     S
C414   C544    1.373   .     S
F415   C454    1.365   .     S
F416   C499    1.365   1_455 S
N429   Zn439   2.026   .     S
N430   Zn440   2.026   .     S
O431   Zn439   1.996   .     S
O432   Zn440   1.996   .     S
O433   Zn440   1.987   .     S
O434   Zn439   1.987   .     S
O435   Zn439   1.988   .     S
O436   Zn440   1.988   .     S
O437   Zn440   1.989   .     S
O438   Zn439   1.989   .     S
C441   O477    1.287   .     A
C441   C444    1.413   .     S
C441   O475    1.288   .     A
C442   C444    1.397   .     A
C442   F464    1.359   .     S
C442   C721    1.373   1_545 S
C443   C457    1.399   .     A
C443   C451    1.413   .     S
C443   C458    1.397   .     A
C444   C456    1.399   .     A
C445   N474    1.388   .     A
C445   C449    1.503   .     S
C446   C450    1.503   .     S
C446   N473    1.388   .     A
C446   C844    1.421   .     S
C447   F465    1.357   .     S
C447   N473    1.355   .     A
C447   C841    1.421   .     S
C448   N474    1.355   .     A
C448   F466    1.357   .     S
C449   H469    1.111   .     S
C449   H467    1.111   .     S
C449   H468    1.090   .     S
C450   H470    1.111   .     S
C450   H472    1.090   .     S
C450   H471    1.111   .     S
C451   O478    1.287   .     A
C451   O476    1.288   .     A
C452   O481    1.286   .     A
C452   O479    1.283   .     A
C452   C454    1.402   .     S
C453   O482    1.286   .     A
C453   C455    1.402   .     S
C453   O480    1.283   .     A
C455   C498    1.338   .     S
C455   F504    1.365   .     S
C456   F461    1.359   .     S
C456   C722    1.373   1_545 S
C457   F462    1.359   .     S
C457   C574    1.373   .     S
C458   F463    1.359   .     S
C458   C588    1.373   .     S
F459   C498    1.365   .     S
N473   Zn483   2.026   .     S
N474   Zn484   2.026   .     S
O475   Zn483   1.996   .     S
O476   Zn484   1.996   .     S
O477   Zn484   1.987   .     S
O478   Zn483   1.987   .     S
O479   Zn483   1.988   .     S
O480   Zn484   1.988   .     S
O481   Zn484   1.989   .     S
O482   Zn483   1.989   .     S
C485   O521    1.287   .     A
C485   C488    1.413   .     S
C485   O519    1.288   .     A
C486   C488    1.397   .     A
C486   F508    1.359   .     S
C486   C765    1.373   1_545 S
C487   C501    1.399   .     A
C487   C495    1.413   .     S
C487   C502    1.397   .     A
C488   C500    1.399   .     A
C489   N518    1.388   .     A
C489   C493    1.503   .     S
C490   C494    1.503   .     S
C490   N517    1.388   .     A
C490   C888    1.421   .     S
C491   F509    1.357   .     S
C491   N517    1.355   .     A
C491   C885    1.421   .     S
C492   N518    1.355   .     A
C492   F510    1.357   .     S
C493   H513    1.111   .     S
C493   H511    1.111   .     S
C493   H512    1.090   .     S
C494   H514    1.111   .     S
C494   H516    1.090   .     S
C494   H515    1.111   .     S
C495   O522    1.287   .     A
C495   O520    1.288   .     A
C496   O525    1.286   .     A
C496   O523    1.283   .     A
C496   C498    1.402   .     S
C497   O526    1.286   .     A
C497   C499    1.402   .     S
C497   O524    1.283   .     A
C499   C410    1.338   1_655 S
C499   F416    1.365   1_655 S
C500   F505    1.359   .     S
C500   C766    1.373   1_545 S
C501   F506    1.359   .     S
C501   C618    1.373   .     S
C502   F507    1.359   .     S
C502   C632    1.373   .     S
F503   C410    1.365   1_655 S
N517   Zn527   2.026   .     S
N518   Zn528   2.026   .     S
O519   Zn527   1.996   .     S
O520   Zn528   1.996   .     S
O521   Zn528   1.987   .     S
O522   Zn527   1.987   .     S
O523   Zn527   1.988   .     S
O524   Zn528   1.988   .     S
O525   Zn528   1.989   .     S
O526   Zn527   1.989   .     S
C529   O565    1.287   .     A
C529   C532    1.413   .     S
C529   O563    1.288   .     A
C530   C532    1.397   .     A
C530   F552    1.359   .     S
C531   C545    1.399   .     A
C531   C539    1.413   .     S
C531   C546    1.397   .     A
C532   C544    1.399   .     A
C533   N562    1.388   .     A
C533   C537    1.503   .     S
C534   C538    1.503   .     S
C534   N561    1.388   .     A
C534   C932    1.421   .     S
C535   F553    1.357   .     S
C535   N561    1.355   .     A
C535   C929    1.421   .     S
C536   N562    1.355   .     A
C536   F554    1.357   .     S
C537   H557    1.111   .     S
C537   H555    1.111   .     S
C537   H556    1.090   .     S
C538   H558    1.111   .     S
C538   H560    1.090   .     S
C538   H559    1.111   .     S
C539   O566    1.287   .     A
C539   O564    1.288   .     A
C540   O569    1.286   .     A
C540   O567    1.283   .     A
C540   C542    1.402   .     S
C541   O570    1.286   .     A
C541   C543    1.402   .     S
C541   O568    1.283   .     A
C542   C631    1.338   1_455 S
C542   F635    1.365   1_455 S
C543   C586    1.338   .     S
C543   F592    1.365   .     S
C544   F549    1.359   .     S
C545   F550    1.359   .     S
C545   C662    1.373   .     S
C546   F551    1.359   .     S
C546   C676    1.373   .     S
F547   C586    1.365   .     S
F548   C631    1.365   1_455 S
N561   Zn571   2.026   .     S
N562   Zn572   2.026   .     S
O563   Zn571   1.996   .     S
O564   Zn572   1.996   .     S
O565   Zn572   1.987   .     S
O566   Zn571   1.987   .     S
O567   Zn571   1.988   .     S
O568   Zn572   1.988   .     S
O569   Zn572   1.989   .     S
O570   Zn571   1.989   .     S
C573   O609    1.287   .     A
C573   C576    1.413   .     S
C573   O607    1.288   .     A
C574   C576    1.397   .     A
C574   F596    1.359   .     S
C575   C589    1.399   .     A
C575   C583    1.413   .     S
C575   C590    1.397   .     A
C576   C588    1.399   .     A
C577   N606    1.388   .     A
C577   C581    1.503   .     S
C578   C582    1.503   .     S
C578   N605    1.388   .     A
C578   C976    1.421   .     S
C579   F597    1.357   .     S
C579   N605    1.355   .     A
C579   C973    1.421   .     S
C580   N606    1.355   .     A
C580   F598    1.357   .     S
C581   H601    1.111   .     S
C581   H599    1.111   .     S
C581   H600    1.090   .     S
C582   H602    1.111   .     S
C582   H604    1.090   .     S
C582   H603    1.111   .     S
C583   O610    1.287   .     A
C583   O608    1.288   .     A
C584   O613    1.286   .     A
C584   O611    1.283   .     A
C584   C586    1.402   .     S
C585   O614    1.286   .     A
C585   C587    1.402   .     S
C585   O612    1.283   .     A
C587   C630    1.338   .     S
C587   F636    1.365   .     S
C588   F593    1.359   .     S
C589   F594    1.359   .     S
C589   C706    1.373   .     S
C590   F595    1.359   .     S
C590   C720    1.373   .     S
F591   C630    1.365   .     S
N605   Zn615   2.026   .     S
N606   Zn616   2.026   .     S
O607   Zn615   1.996   .     S
O608   Zn616   1.996   .     S
O609   Zn616   1.987   .     S
O610   Zn615   1.987   .     S
O611   Zn615   1.988   .     S
O612   Zn616   1.988   .     S
O613   Zn616   1.989   .     S
O614   Zn615   1.989   .     S
C617   O653    1.287   .     A
C617   C620    1.413   .     S
C617   O651    1.288   .     A
C618   C620    1.397   .     A
C618   F640    1.359   .     S
C619   C633    1.399   .     A
C619   C627    1.413   .     S
C619   C634    1.397   .     A
C620   C632    1.399   .     A
C621   N650    1.388   .     A
C621   C625    1.503   .     S
C622   C626    1.503   .     S
C622   N649    1.388   .     A
C622   C1020   1.421   .     S
C623   F641    1.357   .     S
C623   N649    1.355   .     A
C623   C1017   1.421   .     S
C624   N650    1.355   .     A
C624   F642    1.357   .     S
C625   H645    1.111   .     S
C625   H643    1.111   .     S
C625   H644    1.090   .     S
C626   H646    1.111   .     S
C626   H648    1.090   .     S
C626   H647    1.111   .     S
C627   O654    1.287   .     A
C627   O652    1.288   .     A
C628   O657    1.286   .     A
C628   O655    1.283   .     A
C628   C630    1.402   .     S
C629   O658    1.286   .     A
C629   C631    1.402   .     S
C629   O656    1.283   .     A
C631   C542    1.338   1_655 S
C631   F548    1.365   1_655 S
C632   F637    1.359   .     S
C633   F638    1.359   .     S
C633   C750    1.373   .     S
C634   F639    1.359   .     S
C634   C764    1.373   .     S
F635   C542    1.365   1_655 S
N649   Zn659   2.026   .     S
N650   Zn660   2.026   .     S
O651   Zn659   1.996   .     S
O652   Zn660   1.996   .     S
O653   Zn660   1.987   .     S
O654   Zn659   1.987   .     S
O655   Zn659   1.988   .     S
O656   Zn660   1.988   .     S
O657   Zn660   1.989   .     S
O658   Zn659   1.989   .     S
C661   O697    1.287   .     A
C661   C664    1.413   .     S
C661   O695    1.288   .     A
C662   C664    1.397   .     A
C662   F684    1.359   .     S
C663   C677    1.399   .     A
C663   C671    1.413   .     S
C663   C678    1.397   .     A
C664   C676    1.399   .     A
C665   N694    1.388   .     A
C665   C669    1.503   .     S
C666   C670    1.503   .     S
C666   N693    1.388   .     A
C666   C1064   1.421   .     S
C667   F685    1.357   .     S
C667   N693    1.355   .     A
C667   C1061   1.421   .     S
C668   N694    1.355   .     A
C668   F686    1.357   .     S
C669   H689    1.111   .     S
C669   H687    1.111   .     S
C669   H688    1.090   .     S
C670   H690    1.111   .     S
C670   H692    1.090   .     S
C670   H691    1.111   .     S
C671   O698    1.287   .     A
C671   O696    1.288   .     A
C672   O701    1.286   .     A
C672   O699    1.283   .     A
C672   C674    1.402   .     S
C673   O702    1.286   .     A
C673   C675    1.402   .     S
C673   O700    1.283   .     A
C674   C763    1.338   1_455 S
C674   F767    1.365   1_455 S
C675   C718    1.338   .     S
C675   F724    1.365   .     S
C676   F681    1.359   .     S
C677   F682    1.359   .     S
C677   C398    1.373   1_565 S
C678   F683    1.359   .     S
C678   C412    1.373   1_565 S
F679   C718    1.365   .     S
F680   C763    1.365   1_455 S
N693   Zn703   2.026   .     S
N694   Zn704   2.026   .     S
O695   Zn703   1.996   .     S
O696   Zn704   1.996   .     S
O697   Zn704   1.987   .     S
O698   Zn703   1.987   .     S
O699   Zn703   1.988   .     S
O700   Zn704   1.988   .     S
O701   Zn704   1.989   .     S
O702   Zn703   1.989   .     S
C705   O741    1.287   .     A
C705   C708    1.413   .     S
C705   O739    1.288   .     A
C706   C708    1.397   .     A
C706   F728    1.359   .     S
C707   C721    1.399   .     A
C707   C715    1.413   .     S
C707   C722    1.397   .     A
C708   C720    1.399   .     A
C709   N738    1.388   .     A
C709   C713    1.503   .     S
C710   C714    1.503   .     S
C710   N737    1.388   .     A
C710   C1108   1.421   .     S
C711   F729    1.357   .     S
C711   N737    1.355   .     A
C711   C1105   1.421   .     S
C712   N738    1.355   .     A
C712   F730    1.357   .     S
C713   H733    1.111   .     S
C713   H731    1.111   .     S
C713   H732    1.090   .     S
C714   H734    1.111   .     S
C714   H736    1.090   .     S
C714   H735    1.111   .     S
C715   O742    1.287   .     A
C715   O740    1.288   .     A
C716   O745    1.286   .     A
C716   O743    1.283   .     A
C716   C718    1.402   .     S
C717   O746    1.286   .     A
C717   C719    1.402   .     S
C717   O744    1.283   .     A
C719   C762    1.338   .     S
C719   F768    1.365   .     S
C720   F725    1.359   .     S
C721   F726    1.359   .     S
C721   C442    1.373   1_565 S
C722   F727    1.359   .     S
C722   C456    1.373   1_565 S
F723   C762    1.365   .     S
N737   Zn747   2.026   .     S
N738   Zn748   2.026   .     S
O739   Zn747   1.996   .     S
O740   Zn748   1.996   .     S
O741   Zn748   1.987   .     S
O742   Zn747   1.987   .     S
O743   Zn747   1.988   .     S
O744   Zn748   1.988   .     S
O745   Zn748   1.989   .     S
O746   Zn747   1.989   .     S
C749   O785    1.287   .     A
C749   C752    1.413   .     S
C749   O783    1.288   .     A
C750   C752    1.397   .     A
C750   F772    1.359   .     S
C751   C765    1.399   .     A
C751   C759    1.413   .     S
C751   C766    1.397   .     A
C752   C764    1.399   .     A
C753   N782    1.388   .     A
C753   C757    1.503   .     S
C754   C758    1.503   .     S
C754   N781    1.388   .     A
C754   C1152   1.421   .     S
C755   F773    1.357   .     S
C755   N781    1.355   .     A
C755   C1149   1.421   .     S
C756   N782    1.355   .     A
C756   F774    1.357   .     S
C757   H777    1.111   .     S
C757   H775    1.111   .     S
C757   H776    1.090   .     S
C758   H778    1.111   .     S
C758   H780    1.090   .     S
C758   H779    1.111   .     S
C759   O786    1.287   .     A
C759   O784    1.288   .     A
C760   O789    1.286   .     A
C760   O787    1.283   .     A
C760   C762    1.402   .     S
C761   O790    1.286   .     A
C761   C763    1.402   .     S
C761   O788    1.283   .     A
C763   C674    1.338   1_655 S
C763   F680    1.365   1_655 S
C764   F769    1.359   .     S
C765   F770    1.359   .     S
C765   C486    1.373   1_565 S
C766   F771    1.359   .     S
C766   C500    1.373   1_565 S
F767   C674    1.365   1_655 S
N781   Zn791   2.026   .     S
N782   Zn792   2.026   .     S
O783   Zn791   1.996   .     S
O784   Zn792   1.996   .     S
O785   Zn792   1.987   .     S
O786   Zn791   1.987   .     S
O787   Zn791   1.988   .     S
O788   Zn792   1.988   .     S
O789   Zn792   1.989   .     S
O790   Zn791   1.989   .     S
C793   O829    1.287   .     A
C793   C796    1.413   .     S
C793   O827    1.288   .     A
C794   C796    1.397   .     A
C794   F816    1.359   .     S
C794   C1073   1.373   1_545 S
C795   C809    1.399   .     A
C795   C803    1.413   .     S
C795   C810    1.397   .     A
C796   C808    1.399   .     A
C797   N826    1.388   .     A
C797   C801    1.503   .     S
C798   C802    1.503   .     S
C798   N825    1.388   .     A
C798   C8      1.421   1_556 S
C799   F817    1.357   .     S
C799   N825    1.355   .     A
C799   C5      1.421   1_556 S
C800   N826    1.355   .     A
C800   F818    1.357   .     S
C801   H821    1.111   .     S
C801   H819    1.111   .     S
C801   H820    1.090   .     S
C802   H822    1.111   .     S
C802   H824    1.090   .     S
C802   H823    1.111   .     S
C803   O830    1.287   .     A
C803   O828    1.288   .     A
C804   O833    1.286   .     A
C804   O831    1.283   .     A
C804   C806    1.402   .     S
C805   O834    1.286   .     A
C805   C807    1.402   .     S
C805   O832    1.283   .     A
C806   C895    1.338   1_455 S
C806   F899    1.365   1_455 S
C807   C850    1.338   .     S
C807   F856    1.365   .     S
C808   F813    1.359   .     S
C808   C1074   1.373   1_545 S
C809   F814    1.359   .     S
C809   C926    1.373   .     S
C810   F815    1.359   .     S
C810   C940    1.373   .     S
F811   C850    1.365   .     S
F812   C895    1.365   1_455 S
N825   Zn835   2.026   .     S
N826   Zn836   2.026   .     S
O827   Zn835   1.996   .     S
O828   Zn836   1.996   .     S
O829   Zn836   1.987   .     S
O830   Zn835   1.987   .     S
O831   Zn835   1.988   .     S
O832   Zn836   1.988   .     S
O833   Zn836   1.989   .     S
O834   Zn835   1.989   .     S
C837   O873    1.287   .     A
C837   C840    1.413   .     S
C837   O871    1.288   .     A
C838   C840    1.397   .     A
C838   F860    1.359   .     S
C838   C1117   1.373   1_545 S
C839   C853    1.399   .     A
C839   C847    1.413   .     S
C839   C854    1.397   .     A
C840   C852    1.399   .     A
C841   N870    1.388   .     A
C841   C845    1.503   .     S
C842   C846    1.503   .     S
C842   N869    1.388   .     A
C842   C52     1.421   1_556 S
C843   F861    1.357   .     S
C843   N869    1.355   .     A
C843   C49     1.421   1_556 S
C844   N870    1.355   .     A
C844   F862    1.357   .     S
C845   H865    1.111   .     S
C845   H863    1.111   .     S
C845   H864    1.090   .     S
C846   H866    1.111   .     S
C846   H868    1.090   .     S
C846   H867    1.111   .     S
C847   O874    1.287   .     A
C847   O872    1.288   .     A
C848   O877    1.286   .     A
C848   O875    1.283   .     A
C848   C850    1.402   .     S
C849   O878    1.286   .     A
C849   C851    1.402   .     S
C849   O876    1.283   .     A
C851   C894    1.338   .     S
C851   F900    1.365   .     S
C852   F857    1.359   .     S
C852   C1118   1.373   1_545 S
C853   F858    1.359   .     S
C853   C970    1.373   .     S
C854   F859    1.359   .     S
C854   C984    1.373   .     S
F855   C894    1.365   .     S
N869   Zn879   2.026   .     S
N870   Zn880   2.026   .     S
O871   Zn879   1.996   .     S
O872   Zn880   1.996   .     S
O873   Zn880   1.987   .     S
O874   Zn879   1.987   .     S
O875   Zn879   1.988   .     S
O876   Zn880   1.988   .     S
O877   Zn880   1.989   .     S
O878   Zn879   1.989   .     S
C881   O917    1.287   .     A
C881   C884    1.413   .     S
C881   O915    1.288   .     A
C882   C884    1.397   .     A
C882   F904    1.359   .     S
C882   C1161   1.373   1_545 S
C883   C897    1.399   .     A
C883   C891    1.413   .     S
C883   C898    1.397   .     A
C884   C896    1.399   .     A
C885   N914    1.388   .     A
C885   C889    1.503   .     S
C886   C890    1.503   .     S
C886   N913    1.388   .     A
C886   C96     1.421   1_556 S
C887   F905    1.357   .     S
C887   N913    1.355   .     A
C887   C93     1.421   1_556 S
C888   N914    1.355   .     A
C888   F906    1.357   .     S
C889   H909    1.111   .     S
C889   H907    1.111   .     S
C889   H908    1.090   .     S
C890   H910    1.111   .     S
C890   H912    1.090   .     S
C890   H911    1.111   .     S
C891   O918    1.287   .     A
C891   O916    1.288   .     A
C892   O921    1.286   .     A
C892   O919    1.283   .     A
C892   C894    1.402   .     S
C893   O922    1.286   .     A
C893   C895    1.402   .     S
C893   O920    1.283   .     A
C895   C806    1.338   1_655 S
C895   F812    1.365   1_655 S
C896   F901    1.359   .     S
C896   C1162   1.373   1_545 S
C897   F902    1.359   .     S
C897   C1014   1.373   .     S
C898   F903    1.359   .     S
C898   C1028   1.373   .     S
F899   C806    1.365   1_655 S
N913   Zn923   2.026   .     S
N914   Zn924   2.026   .     S
O915   Zn923   1.996   .     S
O916   Zn924   1.996   .     S
O917   Zn924   1.987   .     S
O918   Zn923   1.987   .     S
O919   Zn923   1.988   .     S
O920   Zn924   1.988   .     S
O921   Zn924   1.989   .     S
O922   Zn923   1.989   .     S
C925   O961    1.287   .     A
C925   C928    1.413   .     S
C925   O959    1.288   .     A
C926   C928    1.397   .     A
C926   F948    1.359   .     S
C927   C941    1.399   .     A
C927   C935    1.413   .     S
C927   C942    1.397   .     A
C928   C940    1.399   .     A
C929   N958    1.388   .     A
C929   C933    1.503   .     S
C930   C934    1.503   .     S
C930   N957    1.388   .     A
C930   C140    1.421   1_556 S
C931   F949    1.357   .     S
C931   N957    1.355   .     A
C931   C137    1.421   1_556 S
C932   N958    1.355   .     A
C932   F950    1.357   .     S
C933   H953    1.111   .     S
C933   H951    1.111   .     S
C933   H952    1.090   .     S
C934   H954    1.111   .     S
C934   H956    1.090   .     S
C934   H955    1.111   .     S
C935   O962    1.287   .     A
C935   O960    1.288   .     A
C936   O965    1.286   .     A
C936   O963    1.283   .     A
C936   C938    1.402   .     S
C937   O966    1.286   .     A
C937   C939    1.402   .     S
C937   O964    1.283   .     A
C938   C1027   1.338   1_455 S
C938   F1031   1.365   1_455 S
C939   C982    1.338   .     S
C939   F988    1.365   .     S
C940   F945    1.359   .     S
C941   F946    1.359   .     S
C941   C1058   1.373   .     S
C942   F947    1.359   .     S
C942   C1072   1.373   .     S
F943   C982    1.365   .     S
F944   C1027   1.365   1_455 S
N957   Zn967   2.026   .     S
N958   Zn968   2.026   .     S
O959   Zn967   1.996   .     S
O960   Zn968   1.996   .     S
O961   Zn968   1.987   .     S
O962   Zn967   1.987   .     S
O963   Zn967   1.988   .     S
O964   Zn968   1.988   .     S
O965   Zn968   1.989   .     S
O966   Zn967   1.989   .     S
C969   O1005   1.287   .     A
C969   C972    1.413   .     S
C969   O1003   1.288   .     A
C970   C972    1.397   .     A
C970   F992    1.359   .     S
C971   C985    1.399   .     A
C971   C979    1.413   .     S
C971   C986    1.397   .     A
C972   C984    1.399   .     A
C973   N1002   1.388   .     A
C973   C977    1.503   .     S
C974   C978    1.503   .     S
C974   N1001   1.388   .     A
C974   C184    1.421   1_556 S
C975   F993    1.357   .     S
C975   N1001   1.355   .     A
C975   C181    1.421   1_556 S
C976   N1002   1.355   .     A
C976   F994    1.357   .     S
C977   H997    1.111   .     S
C977   H995    1.111   .     S
C977   H996    1.090   .     S
C978   H998    1.111   .     S
C978   H1000   1.090   .     S
C978   H999    1.111   .     S
C979   O1006   1.287   .     A
C979   O1004   1.288   .     A
C980   O1009   1.286   .     A
C980   O1007   1.283   .     A
C980   C982    1.402   .     S
C981   O1010   1.286   .     A
C981   C983    1.402   .     S
C981   O1008   1.283   .     A
C983   C1026   1.338   .     S
C983   F1032   1.365   .     S
C984   F989    1.359   .     S
C985   F990    1.359   .     S
C985   C1102   1.373   .     S
C986   F991    1.359   .     S
C986   C1116   1.373   .     S
F987   C1026   1.365   .     S
N1001  Zn1011  2.026   .     S
N1002  Zn1012  2.026   .     S
O1003  Zn1011  1.996   .     S
O1004  Zn1012  1.996   .     S
O1005  Zn1012  1.987   .     S
O1006  Zn1011  1.987   .     S
O1007  Zn1011  1.988   .     S
O1008  Zn1012  1.988   .     S
O1009  Zn1012  1.989   .     S
O1010  Zn1011  1.989   .     S
C1013  O1049   1.287   .     A
C1013  C1016   1.413   .     S
C1013  O1047   1.288   .     A
C1014  C1016   1.397   .     A
C1014  F1036   1.359   .     S
C1015  C1029   1.399   .     A
C1015  C1023   1.413   .     S
C1015  C1030   1.397   .     A
C1016  C1028   1.399   .     A
C1017  N1046   1.388   .     A
C1017  C1021   1.503   .     S
C1018  C1022   1.503   .     S
C1018  N1045   1.388   .     A
C1018  C228    1.421   1_556 S
C1019  F1037   1.357   .     S
C1019  N1045   1.355   .     A
C1019  C225    1.421   1_556 S
C1020  N1046   1.355   .     A
C1020  F1038   1.357   .     S
C1021  H1041   1.111   .     S
C1021  H1039   1.111   .     S
C1021  H1040   1.090   .     S
C1022  H1042   1.111   .     S
C1022  H1044   1.090   .     S
C1022  H1043   1.111   .     S
C1023  O1050   1.287   .     A
C1023  O1048   1.288   .     A
C1024  O1053   1.286   .     A
C1024  O1051   1.283   .     A
C1024  C1026   1.402   .     S
C1025  O1054   1.286   .     A
C1025  C1027   1.402   .     S
C1025  O1052   1.283   .     A
C1027  C938    1.338   1_655 S
C1027  F944    1.365   1_655 S
C1028  F1033   1.359   .     S
C1029  F1034   1.359   .     S
C1029  C1146   1.373   .     S
C1030  F1035   1.359   .     S
C1030  C1160   1.373   .     S
F1031  C938    1.365   1_655 S
N1045  Zn1055  2.026   .     S
N1046  Zn1056  2.026   .     S
O1047  Zn1055  1.996   .     S
O1048  Zn1056  1.996   .     S
O1049  Zn1056  1.987   .     S
O1050  Zn1055  1.987   .     S
O1051  Zn1055  1.988   .     S
O1052  Zn1056  1.988   .     S
O1053  Zn1056  1.989   .     S
O1054  Zn1055  1.989   .     S
C1057  O1093   1.287   .     A
C1057  C1060   1.413   .     S
C1057  O1091   1.288   .     A
C1058  C1060   1.397   .     A
C1058  F1080   1.359   .     S
C1059  C1073   1.399   .     A
C1059  C1067   1.413   .     S
C1059  C1074   1.397   .     A
C1060  C1072   1.399   .     A
C1061  N1090   1.388   .     A
C1061  C1065   1.503   .     S
C1062  C1066   1.503   .     S
C1062  N1089   1.388   .     A
C1062  C272    1.421   1_556 S
C1063  F1081   1.357   .     S
C1063  N1089   1.355   .     A
C1063  C269    1.421   1_556 S
C1064  N1090   1.355   .     A
C1064  F1082   1.357   .     S
C1065  H1085   1.111   .     S
C1065  H1083   1.111   .     S
C1065  H1084   1.090   .     S
C1066  H1086   1.111   .     S
C1066  H1088   1.090   .     S
C1066  H1087   1.111   .     S
C1067  O1094   1.287   .     A
C1067  O1092   1.288   .     A
C1068  O1097   1.286   .     A
C1068  O1095   1.283   .     A
C1068  C1070   1.402   .     S
C1069  O1098   1.286   .     A
C1069  C1071   1.402   .     S
C1069  O1096   1.283   .     A
C1070  C1159   1.338   1_455 S
C1070  F1163   1.365   1_455 S
C1071  C1114   1.338   .     S
C1071  F1120   1.365   .     S
C1072  F1077   1.359   .     S
C1073  F1078   1.359   .     S
C1073  C794    1.373   1_565 S
C1074  F1079   1.359   .     S
C1074  C808    1.373   1_565 S
F1075  C1114   1.365   .     S
F1076  C1159   1.365   1_455 S
N1089  Zn1099  2.026   .     S
N1090  Zn1100  2.026   .     S
O1091  Zn1099  1.996   .     S
O1092  Zn1100  1.996   .     S
O1093  Zn1100  1.987   .     S
O1094  Zn1099  1.987   .     S
O1095  Zn1099  1.988   .     S
O1096  Zn1100  1.988   .     S
O1097  Zn1100  1.989   .     S
O1098  Zn1099  1.989   .     S
C1101  O1137   1.287   .     A
C1101  C1104   1.413   .     S
C1101  O1135   1.288   .     A
C1102  C1104   1.397   .     A
C1102  F1124   1.359   .     S
C1103  C1117   1.399   .     A
C1103  C1111   1.413   .     S
C1103  C1118   1.397   .     A
C1104  C1116   1.399   .     A
C1105  N1134   1.388   .     A
C1105  C1109   1.503   .     S
C1106  C1110   1.503   .     S
C1106  N1133   1.388   .     A
C1106  C316    1.421   1_556 S
C1107  F1125   1.357   .     S
C1107  N1133   1.355   .     A
C1107  C313    1.421   1_556 S
C1108  N1134   1.355   .     A
C1108  F1126   1.357   .     S
C1109  H1129   1.111   .     S
C1109  H1127   1.111   .     S
C1109  H1128   1.090   .     S
C1110  H1130   1.111   .     S
C1110  H1132   1.090   .     S
C1110  H1131   1.111   .     S
C1111  O1138   1.287   .     A
C1111  O1136   1.288   .     A
C1112  O1141   1.286   .     A
C1112  O1139   1.283   .     A
C1112  C1114   1.402   .     S
C1113  O1142   1.286   .     A
C1113  C1115   1.402   .     S
C1113  O1140   1.283   .     A
C1115  C1158   1.338   .     S
C1115  F1164   1.365   .     S
C1116  F1121   1.359   .     S
C1117  F1122   1.359   .     S
C1117  C838    1.373   1_565 S
C1118  F1123   1.359   .     S
C1118  C852    1.373   1_565 S
F1119  C1158   1.365   .     S
N1133  Zn1143  2.026   .     S
N1134  Zn1144  2.026   .     S
O1135  Zn1143  1.996   .     S
O1136  Zn1144  1.996   .     S
O1137  Zn1144  1.987   .     S
O1138  Zn1143  1.987   .     S
O1139  Zn1143  1.988   .     S
O1140  Zn1144  1.988   .     S
O1141  Zn1144  1.989   .     S
O1142  Zn1143  1.989   .     S
C1145  O1181   1.287   .     A
C1145  C1148   1.413   .     S
C1145  O1179   1.288   .     A
C1146  C1148   1.397   .     A
C1146  F1168   1.359   .     S
C1147  C1161   1.399   .     A
C1147  C1155   1.413   .     S
C1147  C1162   1.397   .     A
C1148  C1160   1.399   .     A
C1149  N1178   1.388   .     A
C1149  C1153   1.503   .     S
C1150  C1154   1.503   .     S
C1150  N1177   1.388   .     A
C1150  C360    1.421   1_556 S
C1151  F1169   1.357   .     S
C1151  N1177   1.355   .     A
C1151  C357    1.421   1_556 S
C1152  N1178   1.355   .     A
C1152  F1170   1.357   .     S
C1153  H1173   1.111   .     S
C1153  H1171   1.111   .     S
C1153  H1172   1.090   .     S
C1154  H1174   1.111   .     S
C1154  H1176   1.090   .     S
C1154  H1175   1.111   .     S
C1155  O1182   1.287   .     A
C1155  O1180   1.288   .     A
C1156  O1185   1.286   .     A
C1156  O1183   1.283   .     A
C1156  C1158   1.402   .     S
C1157  O1186   1.286   .     A
C1157  C1159   1.402   .     S
C1157  O1184   1.283   .     A
C1159  C1070   1.338   1_655 S
C1159  F1076   1.365   1_655 S
C1160  F1165   1.359   .     S
C1161  F1166   1.359   .     S
C1161  C882    1.373   1_565 S
C1162  F1167   1.359   .     S
C1162  C896    1.373   1_565 S
F1163  C1070   1.365   1_655 S
N1177  Zn1187  2.026   .     S
N1178  Zn1188  2.026   .     S
O1179  Zn1187  1.996   .     S
O1180  Zn1188  1.996   .     S
O1181  Zn1188  1.987   .     S
O1182  Zn1187  1.987   .     S
O1183  Zn1187  1.988   .     S
O1184  Zn1188  1.988   .     S
O1185  Zn1188  1.989   .     S
O1186  Zn1187  1.989   .     S
