data_str_m2_o1_o2_pcu_sym.14
_audit_creation_date              2020-01-03
_audit_creation_method            'Materials Studio'
_symmetry_space_group_name_H-M    'P1'
_symmetry_Int_Tables_number       1
_symmetry_cell_setting            triclinic
loop_
_symmetry_equiv_pos_as_xyz
  x,y,z
_cell_length_a                    32.8110
_cell_length_b                    28.6679
_cell_length_c                    30.6079
_cell_angle_alpha                 91.0352
_cell_angle_beta                  94.4765
_cell_angle_gamma                 91.3077
loop_
_atom_site_label
_atom_site_type_symbol
_atom_site_fract_x
_atom_site_fract_y
_atom_site_fract_z
_atom_site_U_iso_or_equiv
_atom_site_adp_type
_atom_site_occupancy
C1     C     0.08760   0.16624   0.25290   0.00000  Uiso   1.00
C2     C     0.31373   0.20963   0.25176   0.00000  Uiso   1.00
C3     C     0.31074   0.12528   0.23939   0.00000  Uiso   1.00
C4     C     0.02260   0.20806   0.26061   0.00000  Uiso   1.00
C5     C     0.15811   0.20869   0.04758   0.00000  Uiso   1.00
C6     C     0.17522   0.12464   0.45241   0.00000  Uiso   1.00
C7     C     0.18074   0.20775   0.45444   0.00000  Uiso   1.00
C8     C     0.15261   0.12557   0.04556   0.00000  Uiso   1.00
C9     C     0.16549   0.20907   0.09309   0.00000  Uiso   1.00
C10    C     0.16783   0.12426   0.40690   0.00000  Uiso   1.00
C11    C     0.17373   0.20918   0.40889   0.00000  Uiso   1.00
C12    C     0.24574   0.16709   0.24710   0.00000  Uiso   1.00
C13    C     0.15961   0.12415   0.09111   0.00000  Uiso   1.00
C14    C     0.16606   0.16631   0.11605   0.00000  Uiso   1.00
C15    C     0.16727   0.16702   0.38394   0.00000  Uiso   1.00
C16    C     0.16136   0.16686   0.02355   0.00000  Uiso   1.00
C17    C     0.17197   0.16646   0.47645   0.00000  Uiso   1.00
C18    C     0.29042   0.16773   0.24457   0.00000  Uiso   1.00
C19    C     0.04292   0.16560   0.25543   0.00000  Uiso   1.00
C20    C     0.16744   0.16642   0.16483   0.00000  Uiso   1.00
C21    C     0.16590   0.16691   0.33517   0.00000  Uiso   1.00
C22    C     0.13833   0.02281   0.22339   0.00000  Uiso   1.00
C23    C     0.19500   0.31052   0.27661   0.00000  Uiso   1.00
C24    C     0.19502   0.02679   0.27597   0.00000  Uiso   1.00
C25    C     0.13831   0.30654   0.22403   0.00000  Uiso   1.00
C26    C     0.01960   0.12370   0.24824   0.00000  Uiso   1.00
Cl27   Cl    0.13181   0.25654   0.02383   0.00000  Uiso   1.00
Cl28   Cl    0.29253   0.26551   0.24472   0.00000  Uiso   1.00
Cl29   Cl    0.28519   0.07415   0.21643   0.00000  Uiso   1.00
Cl30   Cl    0.04814   0.25918   0.28357   0.00000  Uiso   1.00
Cl31   Cl    0.20152   0.07678   0.47616   0.00000  Uiso   1.00
Cl32   Cl    0.21288   0.25217   0.48065   0.00000  Uiso   1.00
Cl33   Cl    0.12046   0.08114   0.01936   0.00000  Uiso   1.00
Cl34   Cl    0.17749   0.26434   0.11820   0.00000  Uiso   1.00
Cl35   Cl    0.15582   0.06900   0.38179   0.00000  Uiso   1.00
Cl36   Cl    0.17031   0.26524   0.38611   0.00000  Uiso   1.00
Cl37   Cl    0.16306   0.06809   0.11389   0.00000  Uiso   1.00
Cl38   Cl    0.04080   0.06782   0.25527   0.00000  Uiso   1.00
Cu39   Cu    0.16667   0.21355   0.25000   0.00000  Uiso   1.00
Cu40   Cu    0.16667   0.11978   0.25000   0.00000  Uiso   1.00
H41    H     0.11247   0.07882   0.19157   0.00000  Uiso   1.00
H42    H     0.10654   0.02952   0.16416   0.00000  Uiso   1.00
H43    H     0.22086   0.25451   0.30843   0.00000  Uiso   1.00
H44    H     0.22682   0.30382   0.33583   0.00000  Uiso   1.00
H45    H     0.22171   0.04780   0.33545   0.00000  Uiso   1.00
H46    H     0.25419   0.04292   0.29555   0.00000  Uiso   1.00
H47    H     0.11161   0.28554   0.16455   0.00000  Uiso   1.00
H48    H     0.07915   0.29041   0.20446   0.00000  Uiso   1.00
N49    N     0.16667   0.28402   0.25000   0.00000  Uiso   1.00
N50    N     0.16667   0.04931   0.25000   0.00000  Uiso   1.00
N51    N     0.10669   0.04385   0.19573   0.00000  Uiso   1.00
N52    N     0.22665   0.28949   0.30426   0.00000  Uiso   1.00
N53    N     0.22517   0.05385   0.30244   0.00000  Uiso   1.00
N54    N     0.10816   0.27948   0.19756   0.00000  Uiso   1.00
O55    O     0.10655   0.20625   0.24999   0.00000  Uiso   1.00
O56    O     0.22679   0.12709   0.25000   0.00000  Uiso   1.00
O57    O     0.22679   0.20625   0.25000   0.00000  Uiso   1.00
O58    O     0.10655   0.12709   0.24999   0.00000  Uiso   1.00
O59    O     0.16666   0.20626   0.18573   0.00000  Uiso   1.00
O60    O     0.16667   0.12707   0.31427   0.00000  Uiso   1.00
O61    O     0.16667   0.20626   0.31427   0.00000  Uiso   1.00
O62    O     0.16666   0.12707   0.18573   0.00000  Uiso   1.00
C63    C     0.42093   0.16624   0.25290   0.00000  Uiso   1.00
C64    C     0.64707   0.20963   0.25176   0.00000  Uiso   1.00
C65    C     0.64407   0.12528   0.23939   0.00000  Uiso   1.00
C66    C     0.35593   0.20806   0.26061   0.00000  Uiso   1.00
C67    C     0.49144   0.20869   0.04758   0.00000  Uiso   1.00
C68    C     0.50855   0.12464   0.45241   0.00000  Uiso   1.00
C69    C     0.51407   0.20775   0.45444   0.00000  Uiso   1.00
C70    C     0.48594   0.12557   0.04556   0.00000  Uiso   1.00
C71    C     0.49883   0.20907   0.09309   0.00000  Uiso   1.00
C72    C     0.50117   0.12426   0.40690   0.00000  Uiso   1.00
C73    C     0.50707   0.20918   0.40889   0.00000  Uiso   1.00
C74    C     0.57907   0.16709   0.24710   0.00000  Uiso   1.00
C75    C     0.49295   0.12415   0.09111   0.00000  Uiso   1.00
C76    C     0.49940   0.16631   0.11605   0.00000  Uiso   1.00
C77    C     0.50060   0.16702   0.38394   0.00000  Uiso   1.00
C78    C     0.49470   0.16686   0.02355   0.00000  Uiso   1.00
C79    C     0.50530   0.16646   0.47645   0.00000  Uiso   1.00
C80    C     0.62375   0.16773   0.24457   0.00000  Uiso   1.00
C81    C     0.37625   0.16560   0.25543   0.00000  Uiso   1.00
C82    C     0.50077   0.16642   0.16483   0.00000  Uiso   1.00
C83    C     0.49923   0.16691   0.33517   0.00000  Uiso   1.00
C84    C     0.47167   0.02281   0.22339   0.00000  Uiso   1.00
C85    C     0.52834   0.31052   0.27661   0.00000  Uiso   1.00
C86    C     0.52835   0.02679   0.27597   0.00000  Uiso   1.00
C87    C     0.47165   0.30654   0.22403   0.00000  Uiso   1.00
C88    C     0.35293   0.12370   0.24824   0.00000  Uiso   1.00
Cl89   Cl    0.46514   0.25654   0.02383   0.00000  Uiso   1.00
Cl90   Cl    0.62587   0.26551   0.24472   0.00000  Uiso   1.00
Cl91   Cl    0.61853   0.07415   0.21643   0.00000  Uiso   1.00
Cl92   Cl    0.38147   0.25918   0.28357   0.00000  Uiso   1.00
Cl93   Cl    0.53485   0.07678   0.47616   0.00000  Uiso   1.00
Cl94   Cl    0.54621   0.25217   0.48065   0.00000  Uiso   1.00
Cl95   Cl    0.45380   0.08114   0.01936   0.00000  Uiso   1.00
Cl96   Cl    0.51083   0.26434   0.11820   0.00000  Uiso   1.00
Cl97   Cl    0.48915   0.06900   0.38179   0.00000  Uiso   1.00
Cl98   Cl    0.50364   0.26524   0.38611   0.00000  Uiso   1.00
Cl99   Cl    0.49639   0.06809   0.11389   0.00000  Uiso   1.00
Cl100  Cl    0.37413   0.06782   0.25527   0.00000  Uiso   1.00
Cu101  Cu    0.50000   0.21355   0.25000   0.00000  Uiso   1.00
Cu102  Cu    0.50000   0.11978   0.25000   0.00000  Uiso   1.00
H103   H     0.44580   0.07882   0.19157   0.00000  Uiso   1.00
H104   H     0.43987   0.02952   0.16416   0.00000  Uiso   1.00
H105   H     0.55419   0.25451   0.30843   0.00000  Uiso   1.00
H106   H     0.56015   0.30382   0.33583   0.00000  Uiso   1.00
H107   H     0.55504   0.04780   0.33545   0.00000  Uiso   1.00
H108   H     0.58752   0.04292   0.29555   0.00000  Uiso   1.00
H109   H     0.44495   0.28554   0.16455   0.00000  Uiso   1.00
H110   H     0.41248   0.29041   0.20446   0.00000  Uiso   1.00
N111   N     0.50000   0.28402   0.25000   0.00000  Uiso   1.00
N112   N     0.50000   0.04931   0.25000   0.00000  Uiso   1.00
N113   N     0.44003   0.04385   0.19573   0.00000  Uiso   1.00
N114   N     0.55998   0.28949   0.30426   0.00000  Uiso   1.00
N115   N     0.55850   0.05385   0.30244   0.00000  Uiso   1.00
N116   N     0.44150   0.27948   0.19756   0.00000  Uiso   1.00
O117   O     0.43988   0.20625   0.24999   0.00000  Uiso   1.00
O118   O     0.56012   0.12709   0.25000   0.00000  Uiso   1.00
O119   O     0.56012   0.20625   0.25000   0.00000  Uiso   1.00
O120   O     0.43988   0.12709   0.24999   0.00000  Uiso   1.00
O121   O     0.50000   0.20626   0.18573   0.00000  Uiso   1.00
O122   O     0.50000   0.12707   0.31427   0.00000  Uiso   1.00
O123   O     0.50000   0.20626   0.31427   0.00000  Uiso   1.00
O124   O     0.50000   0.12707   0.18573   0.00000  Uiso   1.00
C125   C     0.75426   0.16624   0.25290   0.00000  Uiso   1.00
C126   C     0.98040   0.20963   0.25176   0.00000  Uiso   1.00
C127   C     0.97740   0.12528   0.23939   0.00000  Uiso   1.00
C128   C     0.68926   0.20806   0.26061   0.00000  Uiso   1.00
C129   C     0.82478   0.20869   0.04758   0.00000  Uiso   1.00
C130   C     0.84188   0.12464   0.45241   0.00000  Uiso   1.00
C131   C     0.84740   0.20775   0.45444   0.00000  Uiso   1.00
C132   C     0.81927   0.12557   0.04556   0.00000  Uiso   1.00
C133   C     0.83216   0.20907   0.09309   0.00000  Uiso   1.00
C134   C     0.83450   0.12426   0.40690   0.00000  Uiso   1.00
C135   C     0.84040   0.20918   0.40889   0.00000  Uiso   1.00
C136   C     0.91240   0.16709   0.24710   0.00000  Uiso   1.00
C137   C     0.82628   0.12415   0.09111   0.00000  Uiso   1.00
C138   C     0.83273   0.16631   0.11605   0.00000  Uiso   1.00
C139   C     0.83394   0.16702   0.38394   0.00000  Uiso   1.00
C140   C     0.82803   0.16686   0.02355   0.00000  Uiso   1.00
C141   C     0.83864   0.16646   0.47645   0.00000  Uiso   1.00
C142   C     0.95708   0.16773   0.24457   0.00000  Uiso   1.00
C143   C     0.70959   0.16560   0.25543   0.00000  Uiso   1.00
C144   C     0.83410   0.16642   0.16483   0.00000  Uiso   1.00
C145   C     0.83257   0.16691   0.33517   0.00000  Uiso   1.00
C146   C     0.80500   0.02281   0.22339   0.00000  Uiso   1.00
C147   C     0.86167   0.31052   0.27661   0.00000  Uiso   1.00
C148   C     0.86169   0.02679   0.27597   0.00000  Uiso   1.00
C149   C     0.80498   0.30654   0.22403   0.00000  Uiso   1.00
C150   C     0.68627   0.12370   0.24824   0.00000  Uiso   1.00
Cl151  Cl    0.79847   0.25654   0.02383   0.00000  Uiso   1.00
Cl152  Cl    0.95920   0.26551   0.24472   0.00000  Uiso   1.00
Cl153  Cl    0.95186   0.07415   0.21643   0.00000  Uiso   1.00
Cl154  Cl    0.71481   0.25918   0.28357   0.00000  Uiso   1.00
Cl155  Cl    0.86819   0.07678   0.47616   0.00000  Uiso   1.00
Cl156  Cl    0.87955   0.25217   0.48065   0.00000  Uiso   1.00
Cl157  Cl    0.78713   0.08114   0.01936   0.00000  Uiso   1.00
Cl158  Cl    0.84416   0.26434   0.11820   0.00000  Uiso   1.00
Cl159  Cl    0.82249   0.06900   0.38179   0.00000  Uiso   1.00
Cl160  Cl    0.83698   0.26524   0.38611   0.00000  Uiso   1.00
Cl161  Cl    0.82973   0.06809   0.11389   0.00000  Uiso   1.00
Cl162  Cl    0.70747   0.06782   0.25527   0.00000  Uiso   1.00
Cu163  Cu    0.83333   0.21355   0.25000   0.00000  Uiso   1.00
Cu164  Cu    0.83333   0.11978   0.25000   0.00000  Uiso   1.00
H165   H     0.77914   0.07882   0.19157   0.00000  Uiso   1.00
H166   H     0.77321   0.02952   0.16416   0.00000  Uiso   1.00
H167   H     0.88753   0.25451   0.30843   0.00000  Uiso   1.00
H168   H     0.89348   0.30382   0.33583   0.00000  Uiso   1.00
H169   H     0.88838   0.04780   0.33545   0.00000  Uiso   1.00
H170   H     0.92085   0.04292   0.29555   0.00000  Uiso   1.00
H171   H     0.77828   0.28554   0.16455   0.00000  Uiso   1.00
H172   H     0.74581   0.29041   0.20446   0.00000  Uiso   1.00
N173   N     0.83333   0.28402   0.25000   0.00000  Uiso   1.00
N174   N     0.83333   0.04931   0.25000   0.00000  Uiso   1.00
N175   N     0.77336   0.04385   0.19573   0.00000  Uiso   1.00
N176   N     0.89331   0.28949   0.30426   0.00000  Uiso   1.00
N177   N     0.89184   0.05385   0.30244   0.00000  Uiso   1.00
N178   N     0.77483   0.27948   0.19756   0.00000  Uiso   1.00
O179   O     0.77321   0.20625   0.24999   0.00000  Uiso   1.00
O180   O     0.89345   0.12709   0.25000   0.00000  Uiso   1.00
O181   O     0.89345   0.20625   0.25000   0.00000  Uiso   1.00
O182   O     0.77321   0.12709   0.24999   0.00000  Uiso   1.00
O183   O     0.83333   0.20626   0.18573   0.00000  Uiso   1.00
O184   O     0.83334   0.12707   0.31427   0.00000  Uiso   1.00
O185   O     0.83334   0.20626   0.31427   0.00000  Uiso   1.00
O186   O     0.83333   0.12707   0.18573   0.00000  Uiso   1.00
C187   C     0.08760   0.49957   0.25290   0.00000  Uiso   1.00
C188   C     0.31373   0.54297   0.25176   0.00000  Uiso   1.00
C189   C     0.31074   0.45861   0.23939   0.00000  Uiso   1.00
C190   C     0.02260   0.54139   0.26061   0.00000  Uiso   1.00
C191   C     0.15811   0.54202   0.04758   0.00000  Uiso   1.00
C192   C     0.17522   0.45797   0.45241   0.00000  Uiso   1.00
C193   C     0.18074   0.54109   0.45444   0.00000  Uiso   1.00
C194   C     0.15261   0.45890   0.04556   0.00000  Uiso   1.00
C195   C     0.16549   0.54240   0.09309   0.00000  Uiso   1.00
C196   C     0.16783   0.45759   0.40690   0.00000  Uiso   1.00
C197   C     0.17373   0.54251   0.40889   0.00000  Uiso   1.00
C198   C     0.24574   0.50043   0.24710   0.00000  Uiso   1.00
C199   C     0.15961   0.45749   0.09111   0.00000  Uiso   1.00
C200   C     0.16606   0.49964   0.11605   0.00000  Uiso   1.00
C201   C     0.16727   0.50035   0.38394   0.00000  Uiso   1.00
C202   C     0.16136   0.50020   0.02355   0.00000  Uiso   1.00
C203   C     0.17197   0.49979   0.47645   0.00000  Uiso   1.00
C204   C     0.29042   0.50106   0.24457   0.00000  Uiso   1.00
C205   C     0.04292   0.49894   0.25543   0.00000  Uiso   1.00
C206   C     0.16744   0.49975   0.16483   0.00000  Uiso   1.00
C207   C     0.16590   0.50025   0.33517   0.00000  Uiso   1.00
C208   C     0.13833   0.35615   0.22339   0.00000  Uiso   1.00
C209   C     0.19500   0.64385   0.27661   0.00000  Uiso   1.00
C210   C     0.19502   0.36012   0.27597   0.00000  Uiso   1.00
C211   C     0.13831   0.63988   0.22403   0.00000  Uiso   1.00
C212   C     0.01960   0.45703   0.24824   0.00000  Uiso   1.00
Cl213  Cl    0.13181   0.58987   0.02383   0.00000  Uiso   1.00
Cl214  Cl    0.29253   0.59885   0.24472   0.00000  Uiso   1.00
Cl215  Cl    0.28519   0.40748   0.21643   0.00000  Uiso   1.00
Cl216  Cl    0.04814   0.59252   0.28357   0.00000  Uiso   1.00
Cl217  Cl    0.20152   0.41012   0.47616   0.00000  Uiso   1.00
Cl218  Cl    0.21288   0.58551   0.48065   0.00000  Uiso   1.00
Cl219  Cl    0.12046   0.41448   0.01936   0.00000  Uiso   1.00
Cl220  Cl    0.17749   0.59767   0.11820   0.00000  Uiso   1.00
Cl221  Cl    0.15582   0.40233   0.38179   0.00000  Uiso   1.00
Cl222  Cl    0.17031   0.59857   0.38611   0.00000  Uiso   1.00
Cl223  Cl    0.16306   0.40143   0.11389   0.00000  Uiso   1.00
Cl224  Cl    0.04080   0.40115   0.25527   0.00000  Uiso   1.00
Cu225  Cu    0.16667   0.54689   0.25000   0.00000  Uiso   1.00
Cu226  Cu    0.16667   0.45311   0.25000   0.00000  Uiso   1.00
H227   H     0.11247   0.41216   0.19157   0.00000  Uiso   1.00
H228   H     0.10654   0.36285   0.16416   0.00000  Uiso   1.00
H229   H     0.22086   0.58785   0.30843   0.00000  Uiso   1.00
H230   H     0.22682   0.63716   0.33583   0.00000  Uiso   1.00
H231   H     0.22171   0.38114   0.33545   0.00000  Uiso   1.00
H232   H     0.25419   0.37626   0.29555   0.00000  Uiso   1.00
H233   H     0.11161   0.61887   0.16455   0.00000  Uiso   1.00
H234   H     0.07915   0.62374   0.20446   0.00000  Uiso   1.00
N235   N     0.16667   0.61736   0.25000   0.00000  Uiso   1.00
N236   N     0.16667   0.38264   0.25000   0.00000  Uiso   1.00
N237   N     0.10669   0.37718   0.19573   0.00000  Uiso   1.00
N238   N     0.22665   0.62282   0.30426   0.00000  Uiso   1.00
N239   N     0.22517   0.38719   0.30244   0.00000  Uiso   1.00
N240   N     0.10816   0.61281   0.19756   0.00000  Uiso   1.00
O241   O     0.10655   0.53958   0.24999   0.00000  Uiso   1.00
O242   O     0.22679   0.46042   0.25000   0.00000  Uiso   1.00
O243   O     0.22679   0.53958   0.25000   0.00000  Uiso   1.00
O244   O     0.10655   0.46042   0.24999   0.00000  Uiso   1.00
O245   O     0.16666   0.53959   0.18573   0.00000  Uiso   1.00
O246   O     0.16667   0.46041   0.31427   0.00000  Uiso   1.00
O247   O     0.16667   0.53959   0.31427   0.00000  Uiso   1.00
O248   O     0.16666   0.46041   0.18573   0.00000  Uiso   1.00
C249   C     0.42093   0.49957   0.25290   0.00000  Uiso   1.00
C250   C     0.64707   0.54297   0.25176   0.00000  Uiso   1.00
C251   C     0.64407   0.45861   0.23939   0.00000  Uiso   1.00
C252   C     0.35593   0.54139   0.26061   0.00000  Uiso   1.00
C253   C     0.49144   0.54202   0.04758   0.00000  Uiso   1.00
C254   C     0.50855   0.45797   0.45241   0.00000  Uiso   1.00
C255   C     0.51407   0.54109   0.45444   0.00000  Uiso   1.00
C256   C     0.48594   0.45890   0.04556   0.00000  Uiso   1.00
C257   C     0.49883   0.54240   0.09309   0.00000  Uiso   1.00
C258   C     0.50117   0.45759   0.40690   0.00000  Uiso   1.00
C259   C     0.50707   0.54251   0.40889   0.00000  Uiso   1.00
C260   C     0.57907   0.50043   0.24710   0.00000  Uiso   1.00
C261   C     0.49295   0.45749   0.09111   0.00000  Uiso   1.00
C262   C     0.49940   0.49964   0.11605   0.00000  Uiso   1.00
C263   C     0.50060   0.50035   0.38394   0.00000  Uiso   1.00
C264   C     0.49470   0.50020   0.02355   0.00000  Uiso   1.00
C265   C     0.50530   0.49979   0.47645   0.00000  Uiso   1.00
C266   C     0.62375   0.50106   0.24457   0.00000  Uiso   1.00
C267   C     0.37625   0.49894   0.25543   0.00000  Uiso   1.00
C268   C     0.50077   0.49975   0.16483   0.00000  Uiso   1.00
C269   C     0.49923   0.50025   0.33517   0.00000  Uiso   1.00
C270   C     0.47167   0.35615   0.22339   0.00000  Uiso   1.00
C271   C     0.52834   0.64385   0.27661   0.00000  Uiso   1.00
C272   C     0.52835   0.36012   0.27597   0.00000  Uiso   1.00
C273   C     0.47165   0.63988   0.22403   0.00000  Uiso   1.00
C274   C     0.35293   0.45703   0.24824   0.00000  Uiso   1.00
Cl275  Cl    0.46514   0.58987   0.02383   0.00000  Uiso   1.00
Cl276  Cl    0.62587   0.59885   0.24472   0.00000  Uiso   1.00
Cl277  Cl    0.61853   0.40748   0.21643   0.00000  Uiso   1.00
Cl278  Cl    0.38147   0.59252   0.28357   0.00000  Uiso   1.00
Cl279  Cl    0.53485   0.41012   0.47616   0.00000  Uiso   1.00
Cl280  Cl    0.54621   0.58551   0.48065   0.00000  Uiso   1.00
Cl281  Cl    0.45380   0.41448   0.01936   0.00000  Uiso   1.00
Cl282  Cl    0.51083   0.59767   0.11820   0.00000  Uiso   1.00
Cl283  Cl    0.48915   0.40233   0.38179   0.00000  Uiso   1.00
Cl284  Cl    0.50364   0.59857   0.38611   0.00000  Uiso   1.00
Cl285  Cl    0.49639   0.40143   0.11389   0.00000  Uiso   1.00
Cl286  Cl    0.37413   0.40115   0.25527   0.00000  Uiso   1.00
Cu287  Cu    0.50000   0.54689   0.25000   0.00000  Uiso   1.00
Cu288  Cu    0.50000   0.45311   0.25000   0.00000  Uiso   1.00
H289   H     0.44580   0.41216   0.19157   0.00000  Uiso   1.00
H290   H     0.43987   0.36285   0.16416   0.00000  Uiso   1.00
H291   H     0.55419   0.58785   0.30843   0.00000  Uiso   1.00
H292   H     0.56015   0.63716   0.33583   0.00000  Uiso   1.00
H293   H     0.55504   0.38114   0.33545   0.00000  Uiso   1.00
H294   H     0.58752   0.37626   0.29555   0.00000  Uiso   1.00
H295   H     0.44495   0.61887   0.16455   0.00000  Uiso   1.00
H296   H     0.41248   0.62374   0.20446   0.00000  Uiso   1.00
N297   N     0.50000   0.61736   0.25000   0.00000  Uiso   1.00
N298   N     0.50000   0.38264   0.25000   0.00000  Uiso   1.00
N299   N     0.44003   0.37718   0.19573   0.00000  Uiso   1.00
N300   N     0.55998   0.62282   0.30426   0.00000  Uiso   1.00
N301   N     0.55850   0.38719   0.30244   0.00000  Uiso   1.00
N302   N     0.44150   0.61281   0.19756   0.00000  Uiso   1.00
O303   O     0.43988   0.53958   0.24999   0.00000  Uiso   1.00
O304   O     0.56012   0.46042   0.25000   0.00000  Uiso   1.00
O305   O     0.56012   0.53958   0.25000   0.00000  Uiso   1.00
O306   O     0.43988   0.46042   0.24999   0.00000  Uiso   1.00
O307   O     0.50000   0.53959   0.18573   0.00000  Uiso   1.00
O308   O     0.50000   0.46041   0.31427   0.00000  Uiso   1.00
O309   O     0.50000   0.53959   0.31427   0.00000  Uiso   1.00
O310   O     0.50000   0.46041   0.18573   0.00000  Uiso   1.00
C311   C     0.75426   0.49957   0.25290   0.00000  Uiso   1.00
C312   C     0.98040   0.54297   0.25176   0.00000  Uiso   1.00
C313   C     0.97740   0.45861   0.23939   0.00000  Uiso   1.00
C314   C     0.68926   0.54139   0.26061   0.00000  Uiso   1.00
C315   C     0.82478   0.54202   0.04758   0.00000  Uiso   1.00
C316   C     0.84188   0.45797   0.45241   0.00000  Uiso   1.00
C317   C     0.84740   0.54109   0.45444   0.00000  Uiso   1.00
C318   C     0.81927   0.45890   0.04556   0.00000  Uiso   1.00
C319   C     0.83216   0.54240   0.09309   0.00000  Uiso   1.00
C320   C     0.83450   0.45759   0.40690   0.00000  Uiso   1.00
C321   C     0.84040   0.54251   0.40889   0.00000  Uiso   1.00
C322   C     0.91240   0.50043   0.24710   0.00000  Uiso   1.00
C323   C     0.82628   0.45749   0.09111   0.00000  Uiso   1.00
C324   C     0.83273   0.49964   0.11605   0.00000  Uiso   1.00
C325   C     0.83394   0.50035   0.38394   0.00000  Uiso   1.00
C326   C     0.82803   0.50020   0.02355   0.00000  Uiso   1.00
C327   C     0.83864   0.49979   0.47645   0.00000  Uiso   1.00
C328   C     0.95708   0.50106   0.24457   0.00000  Uiso   1.00
C329   C     0.70959   0.49894   0.25543   0.00000  Uiso   1.00
C330   C     0.83410   0.49975   0.16483   0.00000  Uiso   1.00
C331   C     0.83257   0.50025   0.33517   0.00000  Uiso   1.00
C332   C     0.80500   0.35615   0.22339   0.00000  Uiso   1.00
C333   C     0.86167   0.64385   0.27661   0.00000  Uiso   1.00
C334   C     0.86169   0.36012   0.27597   0.00000  Uiso   1.00
C335   C     0.80498   0.63988   0.22403   0.00000  Uiso   1.00
C336   C     0.68627   0.45703   0.24824   0.00000  Uiso   1.00
Cl337  Cl    0.79847   0.58987   0.02383   0.00000  Uiso   1.00
Cl338  Cl    0.95920   0.59885   0.24472   0.00000  Uiso   1.00
Cl339  Cl    0.95186   0.40748   0.21643   0.00000  Uiso   1.00
Cl340  Cl    0.71481   0.59252   0.28357   0.00000  Uiso   1.00
Cl341  Cl    0.86819   0.41012   0.47616   0.00000  Uiso   1.00
Cl342  Cl    0.87955   0.58551   0.48065   0.00000  Uiso   1.00
Cl343  Cl    0.78713   0.41448   0.01936   0.00000  Uiso   1.00
Cl344  Cl    0.84416   0.59767   0.11820   0.00000  Uiso   1.00
Cl345  Cl    0.82249   0.40233   0.38179   0.00000  Uiso   1.00
Cl346  Cl    0.83698   0.59857   0.38611   0.00000  Uiso   1.00
Cl347  Cl    0.82973   0.40143   0.11389   0.00000  Uiso   1.00
Cl348  Cl    0.70747   0.40115   0.25527   0.00000  Uiso   1.00
Cu349  Cu    0.83333   0.54689   0.25000   0.00000  Uiso   1.00
Cu350  Cu    0.83333   0.45311   0.25000   0.00000  Uiso   1.00
H351   H     0.77914   0.41216   0.19157   0.00000  Uiso   1.00
H352   H     0.77321   0.36285   0.16416   0.00000  Uiso   1.00
H353   H     0.88753   0.58785   0.30843   0.00000  Uiso   1.00
H354   H     0.89348   0.63716   0.33583   0.00000  Uiso   1.00
H355   H     0.88838   0.38114   0.33545   0.00000  Uiso   1.00
H356   H     0.92085   0.37626   0.29555   0.00000  Uiso   1.00
H357   H     0.77828   0.61887   0.16455   0.00000  Uiso   1.00
H358   H     0.74581   0.62374   0.20446   0.00000  Uiso   1.00
N359   N     0.83333   0.61736   0.25000   0.00000  Uiso   1.00
N360   N     0.83333   0.38264   0.25000   0.00000  Uiso   1.00
N361   N     0.77336   0.37718   0.19573   0.00000  Uiso   1.00
N362   N     0.89331   0.62282   0.30426   0.00000  Uiso   1.00
N363   N     0.89184   0.38719   0.30244   0.00000  Uiso   1.00
N364   N     0.77483   0.61281   0.19756   0.00000  Uiso   1.00
O365   O     0.77321   0.53958   0.24999   0.00000  Uiso   1.00
O366   O     0.89345   0.46042   0.25000   0.00000  Uiso   1.00
O367   O     0.89345   0.53958   0.25000   0.00000  Uiso   1.00
O368   O     0.77321   0.46042   0.24999   0.00000  Uiso   1.00
O369   O     0.83333   0.53959   0.18573   0.00000  Uiso   1.00
O370   O     0.83334   0.46041   0.31427   0.00000  Uiso   1.00
O371   O     0.83334   0.53959   0.31427   0.00000  Uiso   1.00
O372   O     0.83333   0.46041   0.18573   0.00000  Uiso   1.00
C373   C     0.08760   0.83291   0.25290   0.00000  Uiso   1.00
C374   C     0.31373   0.87630   0.25176   0.00000  Uiso   1.00
C375   C     0.31074   0.79194   0.23939   0.00000  Uiso   1.00
C376   C     0.02260   0.87472   0.26061   0.00000  Uiso   1.00
C377   C     0.15811   0.87536   0.04758   0.00000  Uiso   1.00
C378   C     0.17522   0.79130   0.45241   0.00000  Uiso   1.00
C379   C     0.18074   0.87442   0.45444   0.00000  Uiso   1.00
C380   C     0.15261   0.79224   0.04556   0.00000  Uiso   1.00
C381   C     0.16549   0.87574   0.09309   0.00000  Uiso   1.00
C382   C     0.16783   0.79093   0.40690   0.00000  Uiso   1.00
C383   C     0.17373   0.87584   0.40889   0.00000  Uiso   1.00
C384   C     0.24574   0.83376   0.24710   0.00000  Uiso   1.00
C385   C     0.15961   0.79082   0.09111   0.00000  Uiso   1.00
C386   C     0.16606   0.83298   0.11605   0.00000  Uiso   1.00
C387   C     0.16727   0.83369   0.38394   0.00000  Uiso   1.00
C388   C     0.16136   0.83353   0.02355   0.00000  Uiso   1.00
C389   C     0.17197   0.83313   0.47645   0.00000  Uiso   1.00
C390   C     0.29042   0.83439   0.24457   0.00000  Uiso   1.00
C391   C     0.04292   0.83227   0.25543   0.00000  Uiso   1.00
C392   C     0.16744   0.83309   0.16483   0.00000  Uiso   1.00
C393   C     0.16590   0.83358   0.33517   0.00000  Uiso   1.00
C394   C     0.13833   0.68948   0.22339   0.00000  Uiso   1.00
C395   C     0.19500   0.97719   0.27661   0.00000  Uiso   1.00
C396   C     0.19502   0.69346   0.27597   0.00000  Uiso   1.00
C397   C     0.13831   0.97321   0.22403   0.00000  Uiso   1.00
C398   C     0.01960   0.79036   0.24824   0.00000  Uiso   1.00
Cl399  Cl    0.13181   0.92320   0.02383   0.00000  Uiso   1.00
Cl400  Cl    0.29253   0.93218   0.24472   0.00000  Uiso   1.00
Cl401  Cl    0.28519   0.74081   0.21643   0.00000  Uiso   1.00
Cl402  Cl    0.04814   0.92585   0.28357   0.00000  Uiso   1.00
Cl403  Cl    0.20152   0.74345   0.47616   0.00000  Uiso   1.00
Cl404  Cl    0.21288   0.91884   0.48065   0.00000  Uiso   1.00
Cl405  Cl    0.12046   0.74781   0.01936   0.00000  Uiso   1.00
Cl406  Cl    0.17749   0.93100   0.11820   0.00000  Uiso   1.00
Cl407  Cl    0.15582   0.73566   0.38179   0.00000  Uiso   1.00
Cl408  Cl    0.17031   0.93190   0.38611   0.00000  Uiso   1.00
Cl409  Cl    0.16306   0.73476   0.11389   0.00000  Uiso   1.00
Cl410  Cl    0.04080   0.73448   0.25527   0.00000  Uiso   1.00
Cu411  Cu    0.16667   0.88022   0.25000   0.00000  Uiso   1.00
Cu412  Cu    0.16667   0.78645   0.25000   0.00000  Uiso   1.00
H413   H     0.11247   0.74549   0.19157   0.00000  Uiso   1.00
H414   H     0.10654   0.69618   0.16416   0.00000  Uiso   1.00
H415   H     0.22086   0.92118   0.30843   0.00000  Uiso   1.00
H416   H     0.22682   0.97049   0.33583   0.00000  Uiso   1.00
H417   H     0.22171   0.71447   0.33545   0.00000  Uiso   1.00
H418   H     0.25419   0.70959   0.29555   0.00000  Uiso   1.00
H419   H     0.11161   0.95220   0.16455   0.00000  Uiso   1.00
H420   H     0.07915   0.95707   0.20446   0.00000  Uiso   1.00
N421   N     0.16667   0.95069   0.25000   0.00000  Uiso   1.00
N422   N     0.16667   0.71598   0.25000   0.00000  Uiso   1.00
N423   N     0.10669   0.71051   0.19573   0.00000  Uiso   1.00
N424   N     0.22665   0.95615   0.30426   0.00000  Uiso   1.00
N425   N     0.22517   0.72052   0.30244   0.00000  Uiso   1.00
N426   N     0.10816   0.94615   0.19756   0.00000  Uiso   1.00
O427   O     0.10655   0.87291   0.24999   0.00000  Uiso   1.00
O428   O     0.22679   0.79375   0.25000   0.00000  Uiso   1.00
O429   O     0.22679   0.87291   0.25000   0.00000  Uiso   1.00
O430   O     0.10655   0.79375   0.24999   0.00000  Uiso   1.00
O431   O     0.16666   0.87293   0.18573   0.00000  Uiso   1.00
O432   O     0.16667   0.79374   0.31427   0.00000  Uiso   1.00
O433   O     0.16667   0.87293   0.31427   0.00000  Uiso   1.00
O434   O     0.16666   0.79374   0.18573   0.00000  Uiso   1.00
C435   C     0.42093   0.83291   0.25290   0.00000  Uiso   1.00
C436   C     0.64707   0.87630   0.25176   0.00000  Uiso   1.00
C437   C     0.64407   0.79194   0.23939   0.00000  Uiso   1.00
C438   C     0.35593   0.87472   0.26061   0.00000  Uiso   1.00
C439   C     0.49144   0.87536   0.04758   0.00000  Uiso   1.00
C440   C     0.50855   0.79130   0.45241   0.00000  Uiso   1.00
C441   C     0.51407   0.87442   0.45444   0.00000  Uiso   1.00
C442   C     0.48594   0.79224   0.04556   0.00000  Uiso   1.00
C443   C     0.49883   0.87574   0.09309   0.00000  Uiso   1.00
C444   C     0.50117   0.79093   0.40690   0.00000  Uiso   1.00
C445   C     0.50707   0.87584   0.40889   0.00000  Uiso   1.00
C446   C     0.57907   0.83376   0.24710   0.00000  Uiso   1.00
C447   C     0.49295   0.79082   0.09111   0.00000  Uiso   1.00
C448   C     0.49940   0.83298   0.11605   0.00000  Uiso   1.00
C449   C     0.50060   0.83369   0.38394   0.00000  Uiso   1.00
C450   C     0.49470   0.83353   0.02355   0.00000  Uiso   1.00
C451   C     0.50530   0.83313   0.47645   0.00000  Uiso   1.00
C452   C     0.62375   0.83439   0.24457   0.00000  Uiso   1.00
C453   C     0.37625   0.83227   0.25543   0.00000  Uiso   1.00
C454   C     0.50077   0.83309   0.16483   0.00000  Uiso   1.00
C455   C     0.49923   0.83358   0.33517   0.00000  Uiso   1.00
C456   C     0.47167   0.68948   0.22339   0.00000  Uiso   1.00
C457   C     0.52834   0.97719   0.27661   0.00000  Uiso   1.00
C458   C     0.52835   0.69346   0.27597   0.00000  Uiso   1.00
C459   C     0.47165   0.97321   0.22403   0.00000  Uiso   1.00
C460   C     0.35293   0.79036   0.24824   0.00000  Uiso   1.00
Cl461  Cl    0.46514   0.92320   0.02383   0.00000  Uiso   1.00
Cl462  Cl    0.62587   0.93218   0.24472   0.00000  Uiso   1.00
Cl463  Cl    0.61853   0.74081   0.21643   0.00000  Uiso   1.00
Cl464  Cl    0.38147   0.92585   0.28357   0.00000  Uiso   1.00
Cl465  Cl    0.53485   0.74345   0.47616   0.00000  Uiso   1.00
Cl466  Cl    0.54621   0.91884   0.48065   0.00000  Uiso   1.00
Cl467  Cl    0.45380   0.74781   0.01936   0.00000  Uiso   1.00
Cl468  Cl    0.51083   0.93100   0.11820   0.00000  Uiso   1.00
Cl469  Cl    0.48915   0.73566   0.38179   0.00000  Uiso   1.00
Cl470  Cl    0.50364   0.93190   0.38611   0.00000  Uiso   1.00
Cl471  Cl    0.49639   0.73476   0.11389   0.00000  Uiso   1.00
Cl472  Cl    0.37413   0.73448   0.25527   0.00000  Uiso   1.00
Cu473  Cu    0.50000   0.88022   0.25000   0.00000  Uiso   1.00
Cu474  Cu    0.50000   0.78645   0.25000   0.00000  Uiso   1.00
H475   H     0.44580   0.74549   0.19157   0.00000  Uiso   1.00
H476   H     0.43987   0.69618   0.16416   0.00000  Uiso   1.00
H477   H     0.55419   0.92118   0.30843   0.00000  Uiso   1.00
H478   H     0.56015   0.97049   0.33583   0.00000  Uiso   1.00
H479   H     0.55504   0.71447   0.33545   0.00000  Uiso   1.00
H480   H     0.58752   0.70959   0.29555   0.00000  Uiso   1.00
H481   H     0.44495   0.95220   0.16455   0.00000  Uiso   1.00
H482   H     0.41248   0.95707   0.20446   0.00000  Uiso   1.00
N483   N     0.50000   0.95069   0.25000   0.00000  Uiso   1.00
N484   N     0.50000   0.71598   0.25000   0.00000  Uiso   1.00
N485   N     0.44003   0.71051   0.19573   0.00000  Uiso   1.00
N486   N     0.55998   0.95615   0.30426   0.00000  Uiso   1.00
N487   N     0.55850   0.72052   0.30244   0.00000  Uiso   1.00
N488   N     0.44150   0.94615   0.19756   0.00000  Uiso   1.00
O489   O     0.43988   0.87291   0.24999   0.00000  Uiso   1.00
O490   O     0.56012   0.79375   0.25000   0.00000  Uiso   1.00
O491   O     0.56012   0.87291   0.25000   0.00000  Uiso   1.00
O492   O     0.43988   0.79375   0.24999   0.00000  Uiso   1.00
O493   O     0.50000   0.87293   0.18573   0.00000  Uiso   1.00
O494   O     0.50000   0.79374   0.31427   0.00000  Uiso   1.00
O495   O     0.50000   0.87293   0.31427   0.00000  Uiso   1.00
O496   O     0.50000   0.79374   0.18573   0.00000  Uiso   1.00
C497   C     0.75426   0.83291   0.25290   0.00000  Uiso   1.00
C498   C     0.98040   0.87630   0.25176   0.00000  Uiso   1.00
C499   C     0.97740   0.79194   0.23939   0.00000  Uiso   1.00
C500   C     0.68926   0.87472   0.26061   0.00000  Uiso   1.00
C501   C     0.82478   0.87536   0.04758   0.00000  Uiso   1.00
C502   C     0.84188   0.79130   0.45241   0.00000  Uiso   1.00
C503   C     0.84740   0.87442   0.45444   0.00000  Uiso   1.00
C504   C     0.81927   0.79224   0.04556   0.00000  Uiso   1.00
C505   C     0.83216   0.87574   0.09309   0.00000  Uiso   1.00
C506   C     0.83450   0.79093   0.40690   0.00000  Uiso   1.00
C507   C     0.84040   0.87584   0.40889   0.00000  Uiso   1.00
C508   C     0.91240   0.83376   0.24710   0.00000  Uiso   1.00
C509   C     0.82628   0.79082   0.09111   0.00000  Uiso   1.00
C510   C     0.83273   0.83298   0.11605   0.00000  Uiso   1.00
C511   C     0.83394   0.83369   0.38394   0.00000  Uiso   1.00
C512   C     0.82803   0.83353   0.02355   0.00000  Uiso   1.00
C513   C     0.83864   0.83313   0.47645   0.00000  Uiso   1.00
C514   C     0.95708   0.83439   0.24457   0.00000  Uiso   1.00
C515   C     0.70959   0.83227   0.25543   0.00000  Uiso   1.00
C516   C     0.83410   0.83309   0.16483   0.00000  Uiso   1.00
C517   C     0.83257   0.83358   0.33517   0.00000  Uiso   1.00
C518   C     0.80500   0.68948   0.22339   0.00000  Uiso   1.00
C519   C     0.86167   0.97719   0.27661   0.00000  Uiso   1.00
C520   C     0.86169   0.69346   0.27597   0.00000  Uiso   1.00
C521   C     0.80498   0.97321   0.22403   0.00000  Uiso   1.00
C522   C     0.68627   0.79036   0.24824   0.00000  Uiso   1.00
Cl523  Cl    0.79847   0.92320   0.02383   0.00000  Uiso   1.00
Cl524  Cl    0.95920   0.93218   0.24472   0.00000  Uiso   1.00
Cl525  Cl    0.95186   0.74081   0.21643   0.00000  Uiso   1.00
Cl526  Cl    0.71481   0.92585   0.28357   0.00000  Uiso   1.00
Cl527  Cl    0.86819   0.74345   0.47616   0.00000  Uiso   1.00
Cl528  Cl    0.87955   0.91884   0.48065   0.00000  Uiso   1.00
Cl529  Cl    0.78713   0.74781   0.01936   0.00000  Uiso   1.00
Cl530  Cl    0.84416   0.93100   0.11820   0.00000  Uiso   1.00
Cl531  Cl    0.82249   0.73566   0.38179   0.00000  Uiso   1.00
Cl532  Cl    0.83698   0.93190   0.38611   0.00000  Uiso   1.00
Cl533  Cl    0.82973   0.73476   0.11389   0.00000  Uiso   1.00
Cl534  Cl    0.70747   0.73448   0.25527   0.00000  Uiso   1.00
Cu535  Cu    0.83333   0.88022   0.25000   0.00000  Uiso   1.00
Cu536  Cu    0.83333   0.78645   0.25000   0.00000  Uiso   1.00
H537   H     0.77914   0.74549   0.19157   0.00000  Uiso   1.00
H538   H     0.77321   0.69618   0.16416   0.00000  Uiso   1.00
H539   H     0.88753   0.92118   0.30843   0.00000  Uiso   1.00
H540   H     0.89348   0.97049   0.33583   0.00000  Uiso   1.00
H541   H     0.88838   0.71447   0.33545   0.00000  Uiso   1.00
H542   H     0.92085   0.70959   0.29555   0.00000  Uiso   1.00
H543   H     0.77828   0.95220   0.16455   0.00000  Uiso   1.00
H544   H     0.74581   0.95707   0.20446   0.00000  Uiso   1.00
N545   N     0.83333   0.95069   0.25000   0.00000  Uiso   1.00
N546   N     0.83333   0.71598   0.25000   0.00000  Uiso   1.00
N547   N     0.77336   0.71051   0.19573   0.00000  Uiso   1.00
N548   N     0.89331   0.95615   0.30426   0.00000  Uiso   1.00
N549   N     0.89184   0.72052   0.30244   0.00000  Uiso   1.00
N550   N     0.77483   0.94615   0.19756   0.00000  Uiso   1.00
O551   O     0.77321   0.87291   0.24999   0.00000  Uiso   1.00
O552   O     0.89345   0.79375   0.25000   0.00000  Uiso   1.00
O553   O     0.89345   0.87291   0.25000   0.00000  Uiso   1.00
O554   O     0.77321   0.79375   0.24999   0.00000  Uiso   1.00
O555   O     0.83333   0.87293   0.18573   0.00000  Uiso   1.00
O556   O     0.83334   0.79374   0.31427   0.00000  Uiso   1.00
O557   O     0.83334   0.87293   0.31427   0.00000  Uiso   1.00
O558   O     0.83333   0.79374   0.18573   0.00000  Uiso   1.00
C559   C     0.08760   0.16624   0.75290   0.00000  Uiso   1.00
C560   C     0.31373   0.20963   0.75176   0.00000  Uiso   1.00
C561   C     0.31074   0.12528   0.73939   0.00000  Uiso   1.00
C562   C     0.02260   0.20806   0.76061   0.00000  Uiso   1.00
C563   C     0.15811   0.20869   0.54758   0.00000  Uiso   1.00
C564   C     0.17522   0.12464   0.95241   0.00000  Uiso   1.00
C565   C     0.18074   0.20775   0.95444   0.00000  Uiso   1.00
C566   C     0.15261   0.12557   0.54556   0.00000  Uiso   1.00
C567   C     0.16549   0.20907   0.59309   0.00000  Uiso   1.00
C568   C     0.16783   0.12426   0.90690   0.00000  Uiso   1.00
C569   C     0.17373   0.20918   0.90889   0.00000  Uiso   1.00
C570   C     0.24574   0.16709   0.74710   0.00000  Uiso   1.00
C571   C     0.15961   0.12415   0.59111   0.00000  Uiso   1.00
C572   C     0.16606   0.16631   0.61605   0.00000  Uiso   1.00
C573   C     0.16727   0.16702   0.88394   0.00000  Uiso   1.00
C574   C     0.16136   0.16686   0.52355   0.00000  Uiso   1.00
C575   C     0.17197   0.16646   0.97645   0.00000  Uiso   1.00
C576   C     0.29042   0.16773   0.74457   0.00000  Uiso   1.00
C577   C     0.04292   0.16560   0.75543   0.00000  Uiso   1.00
C578   C     0.16744   0.16642   0.66483   0.00000  Uiso   1.00
C579   C     0.16590   0.16691   0.83517   0.00000  Uiso   1.00
C580   C     0.13833   0.02281   0.72339   0.00000  Uiso   1.00
C581   C     0.19500   0.31052   0.77661   0.00000  Uiso   1.00
C582   C     0.19502   0.02679   0.77597   0.00000  Uiso   1.00
C583   C     0.13831   0.30654   0.72403   0.00000  Uiso   1.00
C584   C     0.01960   0.12370   0.74824   0.00000  Uiso   1.00
Cl585  Cl    0.13181   0.25654   0.52383   0.00000  Uiso   1.00
Cl586  Cl    0.29253   0.26551   0.74472   0.00000  Uiso   1.00
Cl587  Cl    0.28519   0.07415   0.71643   0.00000  Uiso   1.00
Cl588  Cl    0.04814   0.25918   0.78357   0.00000  Uiso   1.00
Cl589  Cl    0.20152   0.07678   0.97616   0.00000  Uiso   1.00
Cl590  Cl    0.21288   0.25217   0.98065   0.00000  Uiso   1.00
Cl591  Cl    0.12046   0.08114   0.51936   0.00000  Uiso   1.00
Cl592  Cl    0.17749   0.26434   0.61820   0.00000  Uiso   1.00
Cl593  Cl    0.15582   0.06900   0.88179   0.00000  Uiso   1.00
Cl594  Cl    0.17031   0.26524   0.88611   0.00000  Uiso   1.00
Cl595  Cl    0.16306   0.06809   0.61389   0.00000  Uiso   1.00
Cl596  Cl    0.04080   0.06782   0.75527   0.00000  Uiso   1.00
Cu597  Cu    0.16667   0.21355   0.75000   0.00000  Uiso   1.00
Cu598  Cu    0.16667   0.11978   0.75000   0.00000  Uiso   1.00
H599   H     0.11247   0.07882   0.69157   0.00000  Uiso   1.00
H600   H     0.10654   0.02952   0.66416   0.00000  Uiso   1.00
H601   H     0.22086   0.25451   0.80843   0.00000  Uiso   1.00
H602   H     0.22682   0.30382   0.83583   0.00000  Uiso   1.00
H603   H     0.22171   0.04780   0.83545   0.00000  Uiso   1.00
H604   H     0.25419   0.04292   0.79555   0.00000  Uiso   1.00
H605   H     0.11161   0.28554   0.66455   0.00000  Uiso   1.00
H606   H     0.07915   0.29041   0.70446   0.00000  Uiso   1.00
N607   N     0.16667   0.28402   0.75000   0.00000  Uiso   1.00
N608   N     0.16667   0.04931   0.75000   0.00000  Uiso   1.00
N609   N     0.10669   0.04385   0.69573   0.00000  Uiso   1.00
N610   N     0.22665   0.28949   0.80426   0.00000  Uiso   1.00
N611   N     0.22517   0.05385   0.80244   0.00000  Uiso   1.00
N612   N     0.10816   0.27948   0.69756   0.00000  Uiso   1.00
O613   O     0.10655   0.20625   0.74999   0.00000  Uiso   1.00
O614   O     0.22679   0.12709   0.75000   0.00000  Uiso   1.00
O615   O     0.22679   0.20625   0.75000   0.00000  Uiso   1.00
O616   O     0.10655   0.12709   0.74999   0.00000  Uiso   1.00
O617   O     0.16666   0.20626   0.68573   0.00000  Uiso   1.00
O618   O     0.16667   0.12707   0.81427   0.00000  Uiso   1.00
O619   O     0.16667   0.20626   0.81427   0.00000  Uiso   1.00
O620   O     0.16666   0.12707   0.68573   0.00000  Uiso   1.00
C621   C     0.42093   0.16624   0.75290   0.00000  Uiso   1.00
C622   C     0.64707   0.20963   0.75176   0.00000  Uiso   1.00
C623   C     0.64407   0.12528   0.73939   0.00000  Uiso   1.00
C624   C     0.35593   0.20806   0.76061   0.00000  Uiso   1.00
C625   C     0.49144   0.20869   0.54758   0.00000  Uiso   1.00
C626   C     0.50855   0.12464   0.95241   0.00000  Uiso   1.00
C627   C     0.51407   0.20775   0.95444   0.00000  Uiso   1.00
C628   C     0.48594   0.12557   0.54556   0.00000  Uiso   1.00
C629   C     0.49883   0.20907   0.59309   0.00000  Uiso   1.00
C630   C     0.50117   0.12426   0.90690   0.00000  Uiso   1.00
C631   C     0.50707   0.20918   0.90889   0.00000  Uiso   1.00
C632   C     0.57907   0.16709   0.74710   0.00000  Uiso   1.00
C633   C     0.49295   0.12415   0.59111   0.00000  Uiso   1.00
C634   C     0.49940   0.16631   0.61605   0.00000  Uiso   1.00
C635   C     0.50060   0.16702   0.88394   0.00000  Uiso   1.00
C636   C     0.49470   0.16686   0.52355   0.00000  Uiso   1.00
C637   C     0.50530   0.16646   0.97645   0.00000  Uiso   1.00
C638   C     0.62375   0.16773   0.74457   0.00000  Uiso   1.00
C639   C     0.37625   0.16560   0.75543   0.00000  Uiso   1.00
C640   C     0.50077   0.16642   0.66483   0.00000  Uiso   1.00
C641   C     0.49923   0.16691   0.83517   0.00000  Uiso   1.00
C642   C     0.47167   0.02281   0.72339   0.00000  Uiso   1.00
C643   C     0.52834   0.31052   0.77661   0.00000  Uiso   1.00
C644   C     0.52835   0.02679   0.77597   0.00000  Uiso   1.00
C645   C     0.47165   0.30654   0.72403   0.00000  Uiso   1.00
C646   C     0.35293   0.12370   0.74824   0.00000  Uiso   1.00
Cl647  Cl    0.46514   0.25654   0.52383   0.00000  Uiso   1.00
Cl648  Cl    0.62587   0.26551   0.74472   0.00000  Uiso   1.00
Cl649  Cl    0.61853   0.07415   0.71643   0.00000  Uiso   1.00
Cl650  Cl    0.38147   0.25918   0.78357   0.00000  Uiso   1.00
Cl651  Cl    0.53485   0.07678   0.97616   0.00000  Uiso   1.00
Cl652  Cl    0.54621   0.25217   0.98065   0.00000  Uiso   1.00
Cl653  Cl    0.45380   0.08114   0.51936   0.00000  Uiso   1.00
Cl654  Cl    0.51083   0.26434   0.61820   0.00000  Uiso   1.00
Cl655  Cl    0.48915   0.06900   0.88179   0.00000  Uiso   1.00
Cl656  Cl    0.50364   0.26524   0.88611   0.00000  Uiso   1.00
Cl657  Cl    0.49639   0.06809   0.61389   0.00000  Uiso   1.00
Cl658  Cl    0.37413   0.06782   0.75527   0.00000  Uiso   1.00
Cu659  Cu    0.50000   0.21355   0.75000   0.00000  Uiso   1.00
Cu660  Cu    0.50000   0.11978   0.75000   0.00000  Uiso   1.00
H661   H     0.44580   0.07882   0.69157   0.00000  Uiso   1.00
H662   H     0.43987   0.02952   0.66416   0.00000  Uiso   1.00
H663   H     0.55419   0.25451   0.80843   0.00000  Uiso   1.00
H664   H     0.56015   0.30382   0.83583   0.00000  Uiso   1.00
H665   H     0.55504   0.04780   0.83545   0.00000  Uiso   1.00
H666   H     0.58752   0.04292   0.79555   0.00000  Uiso   1.00
H667   H     0.44495   0.28554   0.66455   0.00000  Uiso   1.00
H668   H     0.41248   0.29041   0.70446   0.00000  Uiso   1.00
N669   N     0.50000   0.28402   0.75000   0.00000  Uiso   1.00
N670   N     0.50000   0.04931   0.75000   0.00000  Uiso   1.00
N671   N     0.44003   0.04385   0.69573   0.00000  Uiso   1.00
N672   N     0.55998   0.28949   0.80426   0.00000  Uiso   1.00
N673   N     0.55850   0.05385   0.80244   0.00000  Uiso   1.00
N674   N     0.44150   0.27948   0.69756   0.00000  Uiso   1.00
O675   O     0.43988   0.20625   0.74999   0.00000  Uiso   1.00
O676   O     0.56012   0.12709   0.75000   0.00000  Uiso   1.00
O677   O     0.56012   0.20625   0.75000   0.00000  Uiso   1.00
O678   O     0.43988   0.12709   0.74999   0.00000  Uiso   1.00
O679   O     0.50000   0.20626   0.68573   0.00000  Uiso   1.00
O680   O     0.50000   0.12707   0.81427   0.00000  Uiso   1.00
O681   O     0.50000   0.20626   0.81427   0.00000  Uiso   1.00
O682   O     0.50000   0.12707   0.68573   0.00000  Uiso   1.00
C683   C     0.75426   0.16624   0.75290   0.00000  Uiso   1.00
C684   C     0.98040   0.20963   0.75176   0.00000  Uiso   1.00
C685   C     0.97740   0.12528   0.73939   0.00000  Uiso   1.00
C686   C     0.68926   0.20806   0.76061   0.00000  Uiso   1.00
C687   C     0.82478   0.20869   0.54758   0.00000  Uiso   1.00
C688   C     0.84188   0.12464   0.95241   0.00000  Uiso   1.00
C689   C     0.84740   0.20775   0.95444   0.00000  Uiso   1.00
C690   C     0.81927   0.12557   0.54556   0.00000  Uiso   1.00
C691   C     0.83216   0.20907   0.59309   0.00000  Uiso   1.00
C692   C     0.83450   0.12426   0.90690   0.00000  Uiso   1.00
C693   C     0.84040   0.20918   0.90889   0.00000  Uiso   1.00
C694   C     0.91240   0.16709   0.74710   0.00000  Uiso   1.00
C695   C     0.82628   0.12415   0.59111   0.00000  Uiso   1.00
C696   C     0.83273   0.16631   0.61605   0.00000  Uiso   1.00
C697   C     0.83394   0.16702   0.88394   0.00000  Uiso   1.00
C698   C     0.82803   0.16686   0.52355   0.00000  Uiso   1.00
C699   C     0.83864   0.16646   0.97645   0.00000  Uiso   1.00
C700   C     0.95708   0.16773   0.74457   0.00000  Uiso   1.00
C701   C     0.70959   0.16560   0.75543   0.00000  Uiso   1.00
C702   C     0.83410   0.16642   0.66483   0.00000  Uiso   1.00
C703   C     0.83257   0.16691   0.83517   0.00000  Uiso   1.00
C704   C     0.80500   0.02281   0.72339   0.00000  Uiso   1.00
C705   C     0.86167   0.31052   0.77661   0.00000  Uiso   1.00
C706   C     0.86169   0.02679   0.77597   0.00000  Uiso   1.00
C707   C     0.80498   0.30654   0.72403   0.00000  Uiso   1.00
C708   C     0.68627   0.12370   0.74824   0.00000  Uiso   1.00
Cl709  Cl    0.79847   0.25654   0.52383   0.00000  Uiso   1.00
Cl710  Cl    0.95920   0.26551   0.74472   0.00000  Uiso   1.00
Cl711  Cl    0.95186   0.07415   0.71643   0.00000  Uiso   1.00
Cl712  Cl    0.71481   0.25918   0.78357   0.00000  Uiso   1.00
Cl713  Cl    0.86819   0.07678   0.97616   0.00000  Uiso   1.00
Cl714  Cl    0.87955   0.25217   0.98065   0.00000  Uiso   1.00
Cl715  Cl    0.78713   0.08114   0.51936   0.00000  Uiso   1.00
Cl716  Cl    0.84416   0.26434   0.61820   0.00000  Uiso   1.00
Cl717  Cl    0.82249   0.06900   0.88179   0.00000  Uiso   1.00
Cl718  Cl    0.83698   0.26524   0.88611   0.00000  Uiso   1.00
Cl719  Cl    0.82973   0.06809   0.61389   0.00000  Uiso   1.00
Cl720  Cl    0.70747   0.06782   0.75527   0.00000  Uiso   1.00
Cu721  Cu    0.83333   0.21355   0.75000   0.00000  Uiso   1.00
Cu722  Cu    0.83333   0.11978   0.75000   0.00000  Uiso   1.00
H723   H     0.77914   0.07882   0.69157   0.00000  Uiso   1.00
H724   H     0.77321   0.02952   0.66416   0.00000  Uiso   1.00
H725   H     0.88753   0.25451   0.80843   0.00000  Uiso   1.00
H726   H     0.89348   0.30382   0.83583   0.00000  Uiso   1.00
H727   H     0.88838   0.04780   0.83545   0.00000  Uiso   1.00
H728   H     0.92085   0.04292   0.79555   0.00000  Uiso   1.00
H729   H     0.77828   0.28554   0.66455   0.00000  Uiso   1.00
H730   H     0.74581   0.29041   0.70446   0.00000  Uiso   1.00
N731   N     0.83333   0.28402   0.75000   0.00000  Uiso   1.00
N732   N     0.83333   0.04931   0.75000   0.00000  Uiso   1.00
N733   N     0.77336   0.04385   0.69573   0.00000  Uiso   1.00
N734   N     0.89331   0.28949   0.80426   0.00000  Uiso   1.00
N735   N     0.89184   0.05385   0.80244   0.00000  Uiso   1.00
N736   N     0.77483   0.27948   0.69756   0.00000  Uiso   1.00
O737   O     0.77321   0.20625   0.74999   0.00000  Uiso   1.00
O738   O     0.89345   0.12709   0.75000   0.00000  Uiso   1.00
O739   O     0.89345   0.20625   0.75000   0.00000  Uiso   1.00
O740   O     0.77321   0.12709   0.74999   0.00000  Uiso   1.00
O741   O     0.83333   0.20626   0.68573   0.00000  Uiso   1.00
O742   O     0.83334   0.12707   0.81427   0.00000  Uiso   1.00
O743   O     0.83334   0.20626   0.81427   0.00000  Uiso   1.00
O744   O     0.83333   0.12707   0.68573   0.00000  Uiso   1.00
C745   C     0.08760   0.49957   0.75290   0.00000  Uiso   1.00
C746   C     0.31373   0.54297   0.75176   0.00000  Uiso   1.00
C747   C     0.31074   0.45861   0.73939   0.00000  Uiso   1.00
C748   C     0.02260   0.54139   0.76061   0.00000  Uiso   1.00
C749   C     0.15811   0.54202   0.54758   0.00000  Uiso   1.00
C750   C     0.17522   0.45797   0.95241   0.00000  Uiso   1.00
C751   C     0.18074   0.54109   0.95444   0.00000  Uiso   1.00
C752   C     0.15261   0.45890   0.54556   0.00000  Uiso   1.00
C753   C     0.16549   0.54240   0.59309   0.00000  Uiso   1.00
C754   C     0.16783   0.45759   0.90690   0.00000  Uiso   1.00
C755   C     0.17373   0.54251   0.90889   0.00000  Uiso   1.00
C756   C     0.24574   0.50043   0.74710   0.00000  Uiso   1.00
C757   C     0.15961   0.45749   0.59111   0.00000  Uiso   1.00
C758   C     0.16606   0.49964   0.61605   0.00000  Uiso   1.00
C759   C     0.16727   0.50035   0.88394   0.00000  Uiso   1.00
C760   C     0.16136   0.50020   0.52355   0.00000  Uiso   1.00
C761   C     0.17197   0.49979   0.97645   0.00000  Uiso   1.00
C762   C     0.29042   0.50106   0.74457   0.00000  Uiso   1.00
C763   C     0.04292   0.49894   0.75543   0.00000  Uiso   1.00
C764   C     0.16744   0.49975   0.66483   0.00000  Uiso   1.00
C765   C     0.16590   0.50025   0.83517   0.00000  Uiso   1.00
C766   C     0.13833   0.35615   0.72339   0.00000  Uiso   1.00
C767   C     0.19500   0.64385   0.77661   0.00000  Uiso   1.00
C768   C     0.19502   0.36012   0.77597   0.00000  Uiso   1.00
C769   C     0.13831   0.63988   0.72403   0.00000  Uiso   1.00
C770   C     0.01960   0.45703   0.74824   0.00000  Uiso   1.00
Cl771  Cl    0.13181   0.58987   0.52383   0.00000  Uiso   1.00
Cl772  Cl    0.29253   0.59885   0.74472   0.00000  Uiso   1.00
Cl773  Cl    0.28519   0.40748   0.71643   0.00000  Uiso   1.00
Cl774  Cl    0.04814   0.59252   0.78357   0.00000  Uiso   1.00
Cl775  Cl    0.20152   0.41012   0.97616   0.00000  Uiso   1.00
Cl776  Cl    0.21288   0.58551   0.98065   0.00000  Uiso   1.00
Cl777  Cl    0.12046   0.41448   0.51936   0.00000  Uiso   1.00
Cl778  Cl    0.17749   0.59767   0.61820   0.00000  Uiso   1.00
Cl779  Cl    0.15582   0.40233   0.88179   0.00000  Uiso   1.00
Cl780  Cl    0.17031   0.59857   0.88611   0.00000  Uiso   1.00
Cl781  Cl    0.16306   0.40143   0.61389   0.00000  Uiso   1.00
Cl782  Cl    0.04080   0.40115   0.75527   0.00000  Uiso   1.00
Cu783  Cu    0.16667   0.54689   0.75000   0.00000  Uiso   1.00
Cu784  Cu    0.16667   0.45311   0.75000   0.00000  Uiso   1.00
H785   H     0.11247   0.41216   0.69157   0.00000  Uiso   1.00
H786   H     0.10654   0.36285   0.66416   0.00000  Uiso   1.00
H787   H     0.22086   0.58785   0.80843   0.00000  Uiso   1.00
H788   H     0.22682   0.63716   0.83583   0.00000  Uiso   1.00
H789   H     0.22171   0.38114   0.83545   0.00000  Uiso   1.00
H790   H     0.25419   0.37626   0.79555   0.00000  Uiso   1.00
H791   H     0.11161   0.61887   0.66455   0.00000  Uiso   1.00
H792   H     0.07915   0.62374   0.70446   0.00000  Uiso   1.00
N793   N     0.16667   0.61736   0.75000   0.00000  Uiso   1.00
N794   N     0.16667   0.38264   0.75000   0.00000  Uiso   1.00
N795   N     0.10669   0.37718   0.69573   0.00000  Uiso   1.00
N796   N     0.22665   0.62282   0.80426   0.00000  Uiso   1.00
N797   N     0.22517   0.38719   0.80244   0.00000  Uiso   1.00
N798   N     0.10816   0.61281   0.69756   0.00000  Uiso   1.00
O799   O     0.10655   0.53958   0.74999   0.00000  Uiso   1.00
O800   O     0.22679   0.46042   0.75000   0.00000  Uiso   1.00
O801   O     0.22679   0.53958   0.75000   0.00000  Uiso   1.00
O802   O     0.10655   0.46042   0.74999   0.00000  Uiso   1.00
O803   O     0.16666   0.53959   0.68573   0.00000  Uiso   1.00
O804   O     0.16667   0.46041   0.81427   0.00000  Uiso   1.00
O805   O     0.16667   0.53959   0.81427   0.00000  Uiso   1.00
O806   O     0.16666   0.46041   0.68573   0.00000  Uiso   1.00
C807   C     0.42093   0.49957   0.75290   0.00000  Uiso   1.00
C808   C     0.64707   0.54297   0.75176   0.00000  Uiso   1.00
C809   C     0.64407   0.45861   0.73939   0.00000  Uiso   1.00
C810   C     0.35593   0.54139   0.76061   0.00000  Uiso   1.00
C811   C     0.49144   0.54202   0.54758   0.00000  Uiso   1.00
C812   C     0.50855   0.45797   0.95241   0.00000  Uiso   1.00
C813   C     0.51407   0.54109   0.95444   0.00000  Uiso   1.00
C814   C     0.48594   0.45890   0.54556   0.00000  Uiso   1.00
C815   C     0.49883   0.54240   0.59309   0.00000  Uiso   1.00
C816   C     0.50117   0.45759   0.90690   0.00000  Uiso   1.00
C817   C     0.50707   0.54251   0.90889   0.00000  Uiso   1.00
C818   C     0.57907   0.50043   0.74710   0.00000  Uiso   1.00
C819   C     0.49295   0.45749   0.59111   0.00000  Uiso   1.00
C820   C     0.49940   0.49964   0.61605   0.00000  Uiso   1.00
C821   C     0.50060   0.50035   0.88394   0.00000  Uiso   1.00
C822   C     0.49470   0.50020   0.52355   0.00000  Uiso   1.00
C823   C     0.50530   0.49979   0.97645   0.00000  Uiso   1.00
C824   C     0.62375   0.50106   0.74457   0.00000  Uiso   1.00
C825   C     0.37625   0.49894   0.75543   0.00000  Uiso   1.00
C826   C     0.50077   0.49975   0.66483   0.00000  Uiso   1.00
C827   C     0.49923   0.50025   0.83517   0.00000  Uiso   1.00
C828   C     0.47167   0.35615   0.72339   0.00000  Uiso   1.00
C829   C     0.52834   0.64385   0.77661   0.00000  Uiso   1.00
C830   C     0.52835   0.36012   0.77597   0.00000  Uiso   1.00
C831   C     0.47165   0.63988   0.72403   0.00000  Uiso   1.00
C832   C     0.35293   0.45703   0.74824   0.00000  Uiso   1.00
Cl833  Cl    0.46514   0.58987   0.52383   0.00000  Uiso   1.00
Cl834  Cl    0.62587   0.59885   0.74472   0.00000  Uiso   1.00
Cl835  Cl    0.61853   0.40748   0.71643   0.00000  Uiso   1.00
Cl836  Cl    0.38147   0.59252   0.78357   0.00000  Uiso   1.00
Cl837  Cl    0.53485   0.41012   0.97616   0.00000  Uiso   1.00
Cl838  Cl    0.54621   0.58551   0.98065   0.00000  Uiso   1.00
Cl839  Cl    0.45380   0.41448   0.51936   0.00000  Uiso   1.00
Cl840  Cl    0.51083   0.59767   0.61820   0.00000  Uiso   1.00
Cl841  Cl    0.48915   0.40233   0.88179   0.00000  Uiso   1.00
Cl842  Cl    0.50364   0.59857   0.88611   0.00000  Uiso   1.00
Cl843  Cl    0.49639   0.40143   0.61389   0.00000  Uiso   1.00
Cl844  Cl    0.37413   0.40115   0.75527   0.00000  Uiso   1.00
Cu845  Cu    0.50000   0.54689   0.75000   0.00000  Uiso   1.00
Cu846  Cu    0.50000   0.45311   0.75000   0.00000  Uiso   1.00
H847   H     0.44580   0.41216   0.69157   0.00000  Uiso   1.00
H848   H     0.43987   0.36285   0.66416   0.00000  Uiso   1.00
H849   H     0.55419   0.58785   0.80843   0.00000  Uiso   1.00
H850   H     0.56015   0.63716   0.83583   0.00000  Uiso   1.00
H851   H     0.55504   0.38114   0.83545   0.00000  Uiso   1.00
H852   H     0.58752   0.37626   0.79555   0.00000  Uiso   1.00
H853   H     0.44495   0.61887   0.66455   0.00000  Uiso   1.00
H854   H     0.41248   0.62374   0.70446   0.00000  Uiso   1.00
N855   N     0.50000   0.61736   0.75000   0.00000  Uiso   1.00
N856   N     0.50000   0.38264   0.75000   0.00000  Uiso   1.00
N857   N     0.44003   0.37718   0.69573   0.00000  Uiso   1.00
N858   N     0.55998   0.62282   0.80426   0.00000  Uiso   1.00
N859   N     0.55850   0.38719   0.80244   0.00000  Uiso   1.00
N860   N     0.44150   0.61281   0.69756   0.00000  Uiso   1.00
O861   O     0.43988   0.53958   0.74999   0.00000  Uiso   1.00
O862   O     0.56012   0.46042   0.75000   0.00000  Uiso   1.00
O863   O     0.56012   0.53958   0.75000   0.00000  Uiso   1.00
O864   O     0.43988   0.46042   0.74999   0.00000  Uiso   1.00
O865   O     0.50000   0.53959   0.68573   0.00000  Uiso   1.00
O866   O     0.50000   0.46041   0.81427   0.00000  Uiso   1.00
O867   O     0.50000   0.53959   0.81427   0.00000  Uiso   1.00
O868   O     0.50000   0.46041   0.68573   0.00000  Uiso   1.00
C869   C     0.75426   0.49957   0.75290   0.00000  Uiso   1.00
C870   C     0.98040   0.54297   0.75176   0.00000  Uiso   1.00
C871   C     0.97740   0.45861   0.73939   0.00000  Uiso   1.00
C872   C     0.68926   0.54139   0.76061   0.00000  Uiso   1.00
C873   C     0.82478   0.54202   0.54758   0.00000  Uiso   1.00
C874   C     0.84188   0.45797   0.95241   0.00000  Uiso   1.00
C875   C     0.84740   0.54109   0.95444   0.00000  Uiso   1.00
C876   C     0.81927   0.45890   0.54556   0.00000  Uiso   1.00
C877   C     0.83216   0.54240   0.59309   0.00000  Uiso   1.00
C878   C     0.83450   0.45759   0.90690   0.00000  Uiso   1.00
C879   C     0.84040   0.54251   0.90889   0.00000  Uiso   1.00
C880   C     0.91240   0.50043   0.74710   0.00000  Uiso   1.00
C881   C     0.82628   0.45749   0.59111   0.00000  Uiso   1.00
C882   C     0.83273   0.49964   0.61605   0.00000  Uiso   1.00
C883   C     0.83394   0.50035   0.88394   0.00000  Uiso   1.00
C884   C     0.82803   0.50020   0.52355   0.00000  Uiso   1.00
C885   C     0.83864   0.49979   0.97645   0.00000  Uiso   1.00
C886   C     0.95708   0.50106   0.74457   0.00000  Uiso   1.00
C887   C     0.70959   0.49894   0.75543   0.00000  Uiso   1.00
C888   C     0.83410   0.49975   0.66483   0.00000  Uiso   1.00
C889   C     0.83257   0.50025   0.83517   0.00000  Uiso   1.00
C890   C     0.80500   0.35615   0.72339   0.00000  Uiso   1.00
C891   C     0.86167   0.64385   0.77661   0.00000  Uiso   1.00
C892   C     0.86169   0.36012   0.77597   0.00000  Uiso   1.00
C893   C     0.80498   0.63988   0.72403   0.00000  Uiso   1.00
C894   C     0.68627   0.45703   0.74824   0.00000  Uiso   1.00
Cl895  Cl    0.79847   0.58987   0.52383   0.00000  Uiso   1.00
Cl896  Cl    0.95920   0.59885   0.74472   0.00000  Uiso   1.00
Cl897  Cl    0.95186   0.40748   0.71643   0.00000  Uiso   1.00
Cl898  Cl    0.71481   0.59252   0.78357   0.00000  Uiso   1.00
Cl899  Cl    0.86819   0.41012   0.97616   0.00000  Uiso   1.00
Cl900  Cl    0.87955   0.58551   0.98065   0.00000  Uiso   1.00
Cl901  Cl    0.78713   0.41448   0.51936   0.00000  Uiso   1.00
Cl902  Cl    0.84416   0.59767   0.61820   0.00000  Uiso   1.00
Cl903  Cl    0.82249   0.40233   0.88179   0.00000  Uiso   1.00
Cl904  Cl    0.83698   0.59857   0.88611   0.00000  Uiso   1.00
Cl905  Cl    0.82973   0.40143   0.61389   0.00000  Uiso   1.00
Cl906  Cl    0.70747   0.40115   0.75527   0.00000  Uiso   1.00
Cu907  Cu    0.83333   0.54689   0.75000   0.00000  Uiso   1.00
Cu908  Cu    0.83333   0.45311   0.75000   0.00000  Uiso   1.00
H909   H     0.77914   0.41216   0.69157   0.00000  Uiso   1.00
H910   H     0.77321   0.36285   0.66416   0.00000  Uiso   1.00
H911   H     0.88753   0.58785   0.80843   0.00000  Uiso   1.00
H912   H     0.89348   0.63716   0.83583   0.00000  Uiso   1.00
H913   H     0.88838   0.38114   0.83545   0.00000  Uiso   1.00
H914   H     0.92085   0.37626   0.79555   0.00000  Uiso   1.00
H915   H     0.77828   0.61887   0.66455   0.00000  Uiso   1.00
H916   H     0.74581   0.62374   0.70446   0.00000  Uiso   1.00
N917   N     0.83333   0.61736   0.75000   0.00000  Uiso   1.00
N918   N     0.83333   0.38264   0.75000   0.00000  Uiso   1.00
N919   N     0.77336   0.37718   0.69573   0.00000  Uiso   1.00
N920   N     0.89331   0.62282   0.80426   0.00000  Uiso   1.00
N921   N     0.89184   0.38719   0.80244   0.00000  Uiso   1.00
N922   N     0.77483   0.61281   0.69756   0.00000  Uiso   1.00
O923   O     0.77321   0.53958   0.74999   0.00000  Uiso   1.00
O924   O     0.89345   0.46042   0.75000   0.00000  Uiso   1.00
O925   O     0.89345   0.53958   0.75000   0.00000  Uiso   1.00
O926   O     0.77321   0.46042   0.74999   0.00000  Uiso   1.00
O927   O     0.83333   0.53959   0.68573   0.00000  Uiso   1.00
O928   O     0.83334   0.46041   0.81427   0.00000  Uiso   1.00
O929   O     0.83334   0.53959   0.81427   0.00000  Uiso   1.00
O930   O     0.83333   0.46041   0.68573   0.00000  Uiso   1.00
C931   C     0.08760   0.83291   0.75290   0.00000  Uiso   1.00
C932   C     0.31373   0.87630   0.75176   0.00000  Uiso   1.00
C933   C     0.31074   0.79194   0.73939   0.00000  Uiso   1.00
C934   C     0.02260   0.87472   0.76061   0.00000  Uiso   1.00
C935   C     0.15811   0.87536   0.54758   0.00000  Uiso   1.00
C936   C     0.17522   0.79130   0.95241   0.00000  Uiso   1.00
C937   C     0.18074   0.87442   0.95444   0.00000  Uiso   1.00
C938   C     0.15261   0.79224   0.54556   0.00000  Uiso   1.00
C939   C     0.16549   0.87574   0.59309   0.00000  Uiso   1.00
C940   C     0.16783   0.79093   0.90690   0.00000  Uiso   1.00
C941   C     0.17373   0.87584   0.90889   0.00000  Uiso   1.00
C942   C     0.24574   0.83376   0.74710   0.00000  Uiso   1.00
C943   C     0.15961   0.79082   0.59111   0.00000  Uiso   1.00
C944   C     0.16606   0.83298   0.61605   0.00000  Uiso   1.00
C945   C     0.16727   0.83369   0.88394   0.00000  Uiso   1.00
C946   C     0.16136   0.83353   0.52355   0.00000  Uiso   1.00
C947   C     0.17197   0.83313   0.97645   0.00000  Uiso   1.00
C948   C     0.29042   0.83439   0.74457   0.00000  Uiso   1.00
C949   C     0.04292   0.83227   0.75543   0.00000  Uiso   1.00
C950   C     0.16744   0.83309   0.66483   0.00000  Uiso   1.00
C951   C     0.16590   0.83358   0.83517   0.00000  Uiso   1.00
C952   C     0.13833   0.68948   0.72339   0.00000  Uiso   1.00
C953   C     0.19500   0.97719   0.77661   0.00000  Uiso   1.00
C954   C     0.19502   0.69346   0.77597   0.00000  Uiso   1.00
C955   C     0.13831   0.97321   0.72403   0.00000  Uiso   1.00
C956   C     0.01960   0.79036   0.74824   0.00000  Uiso   1.00
Cl957  Cl    0.13181   0.92320   0.52383   0.00000  Uiso   1.00
Cl958  Cl    0.29253   0.93218   0.74472   0.00000  Uiso   1.00
Cl959  Cl    0.28519   0.74081   0.71643   0.00000  Uiso   1.00
Cl960  Cl    0.04814   0.92585   0.78357   0.00000  Uiso   1.00
Cl961  Cl    0.20152   0.74345   0.97616   0.00000  Uiso   1.00
Cl962  Cl    0.21288   0.91884   0.98065   0.00000  Uiso   1.00
Cl963  Cl    0.12046   0.74781   0.51936   0.00000  Uiso   1.00
Cl964  Cl    0.17749   0.93100   0.61820   0.00000  Uiso   1.00
Cl965  Cl    0.15582   0.73566   0.88179   0.00000  Uiso   1.00
Cl966  Cl    0.17031   0.93190   0.88611   0.00000  Uiso   1.00
Cl967  Cl    0.16306   0.73476   0.61389   0.00000  Uiso   1.00
Cl968  Cl    0.04080   0.73448   0.75527   0.00000  Uiso   1.00
Cu969  Cu    0.16667   0.88022   0.75000   0.00000  Uiso   1.00
Cu970  Cu    0.16667   0.78645   0.75000   0.00000  Uiso   1.00
H971   H     0.11247   0.74549   0.69157   0.00000  Uiso   1.00
H972   H     0.10654   0.69618   0.66416   0.00000  Uiso   1.00
H973   H     0.22086   0.92118   0.80843   0.00000  Uiso   1.00
H974   H     0.22682   0.97049   0.83583   0.00000  Uiso   1.00
H975   H     0.22171   0.71447   0.83545   0.00000  Uiso   1.00
H976   H     0.25419   0.70959   0.79555   0.00000  Uiso   1.00
H977   H     0.11161   0.95220   0.66455   0.00000  Uiso   1.00
H978   H     0.07915   0.95707   0.70446   0.00000  Uiso   1.00
N979   N     0.16667   0.95069   0.75000   0.00000  Uiso   1.00
N980   N     0.16667   0.71598   0.75000   0.00000  Uiso   1.00
N981   N     0.10669   0.71051   0.69573   0.00000  Uiso   1.00
N982   N     0.22665   0.95615   0.80426   0.00000  Uiso   1.00
N983   N     0.22517   0.72052   0.80244   0.00000  Uiso   1.00
N984   N     0.10816   0.94615   0.69756   0.00000  Uiso   1.00
O985   O     0.10655   0.87291   0.74999   0.00000  Uiso   1.00
O986   O     0.22679   0.79375   0.75000   0.00000  Uiso   1.00
O987   O     0.22679   0.87291   0.75000   0.00000  Uiso   1.00
O988   O     0.10655   0.79375   0.74999   0.00000  Uiso   1.00
O989   O     0.16666   0.87293   0.68573   0.00000  Uiso   1.00
O990   O     0.16667   0.79374   0.81427   0.00000  Uiso   1.00
O991   O     0.16667   0.87293   0.81427   0.00000  Uiso   1.00
O992   O     0.16666   0.79374   0.68573   0.00000  Uiso   1.00
C993   C     0.42093   0.83291   0.75290   0.00000  Uiso   1.00
C994   C     0.64707   0.87630   0.75176   0.00000  Uiso   1.00
C995   C     0.64407   0.79194   0.73939   0.00000  Uiso   1.00
C996   C     0.35593   0.87472   0.76061   0.00000  Uiso   1.00
C997   C     0.49144   0.87536   0.54758   0.00000  Uiso   1.00
C998   C     0.50855   0.79130   0.95241   0.00000  Uiso   1.00
C999   C     0.51407   0.87442   0.95444   0.00000  Uiso   1.00
C1000  C     0.48594   0.79224   0.54556   0.00000  Uiso   1.00
C1001  C     0.49883   0.87574   0.59309   0.00000  Uiso   1.00
C1002  C     0.50117   0.79093   0.90690   0.00000  Uiso   1.00
C1003  C     0.50707   0.87584   0.90889   0.00000  Uiso   1.00
C1004  C     0.57907   0.83376   0.74710   0.00000  Uiso   1.00
C1005  C     0.49295   0.79082   0.59111   0.00000  Uiso   1.00
C1006  C     0.49940   0.83298   0.61605   0.00000  Uiso   1.00
C1007  C     0.50060   0.83369   0.88394   0.00000  Uiso   1.00
C1008  C     0.49470   0.83353   0.52355   0.00000  Uiso   1.00
C1009  C     0.50530   0.83313   0.97645   0.00000  Uiso   1.00
C1010  C     0.62375   0.83439   0.74457   0.00000  Uiso   1.00
C1011  C     0.37625   0.83227   0.75543   0.00000  Uiso   1.00
C1012  C     0.50077   0.83309   0.66483   0.00000  Uiso   1.00
C1013  C     0.49923   0.83358   0.83517   0.00000  Uiso   1.00
C1014  C     0.47167   0.68948   0.72339   0.00000  Uiso   1.00
C1015  C     0.52834   0.97719   0.77661   0.00000  Uiso   1.00
C1016  C     0.52835   0.69346   0.77597   0.00000  Uiso   1.00
C1017  C     0.47165   0.97321   0.72403   0.00000  Uiso   1.00
C1018  C     0.35293   0.79036   0.74824   0.00000  Uiso   1.00
Cl1019 Cl    0.46514   0.92320   0.52383   0.00000  Uiso   1.00
Cl1020 Cl    0.62587   0.93218   0.74472   0.00000  Uiso   1.00
Cl1021 Cl    0.61853   0.74081   0.71643   0.00000  Uiso   1.00
Cl1022 Cl    0.38147   0.92585   0.78357   0.00000  Uiso   1.00
Cl1023 Cl    0.53485   0.74345   0.97616   0.00000  Uiso   1.00
Cl1024 Cl    0.54621   0.91884   0.98065   0.00000  Uiso   1.00
Cl1025 Cl    0.45380   0.74781   0.51936   0.00000  Uiso   1.00
Cl1026 Cl    0.51083   0.93100   0.61820   0.00000  Uiso   1.00
Cl1027 Cl    0.48915   0.73566   0.88179   0.00000  Uiso   1.00
Cl1028 Cl    0.50364   0.93190   0.88611   0.00000  Uiso   1.00
Cl1029 Cl    0.49639   0.73476   0.61389   0.00000  Uiso   1.00
Cl1030 Cl    0.37413   0.73448   0.75527   0.00000  Uiso   1.00
Cu1031 Cu    0.50000   0.88022   0.75000   0.00000  Uiso   1.00
Cu1032 Cu    0.50000   0.78645   0.75000   0.00000  Uiso   1.00
H1033  H     0.44580   0.74549   0.69157   0.00000  Uiso   1.00
H1034  H     0.43987   0.69618   0.66416   0.00000  Uiso   1.00
H1035  H     0.55419   0.92118   0.80843   0.00000  Uiso   1.00
H1036  H     0.56015   0.97049   0.83583   0.00000  Uiso   1.00
H1037  H     0.55504   0.71447   0.83545   0.00000  Uiso   1.00
H1038  H     0.58752   0.70959   0.79555   0.00000  Uiso   1.00
H1039  H     0.44495   0.95220   0.66455   0.00000  Uiso   1.00
H1040  H     0.41248   0.95707   0.70446   0.00000  Uiso   1.00
N1041  N     0.50000   0.95069   0.75000   0.00000  Uiso   1.00
N1042  N     0.50000   0.71598   0.75000   0.00000  Uiso   1.00
N1043  N     0.44003   0.71051   0.69573   0.00000  Uiso   1.00
N1044  N     0.55998   0.95615   0.80426   0.00000  Uiso   1.00
N1045  N     0.55850   0.72052   0.80244   0.00000  Uiso   1.00
N1046  N     0.44150   0.94615   0.69756   0.00000  Uiso   1.00
O1047  O     0.43988   0.87291   0.74999   0.00000  Uiso   1.00
O1048  O     0.56012   0.79375   0.75000   0.00000  Uiso   1.00
O1049  O     0.56012   0.87291   0.75000   0.00000  Uiso   1.00
O1050  O     0.43988   0.79375   0.74999   0.00000  Uiso   1.00
O1051  O     0.50000   0.87293   0.68573   0.00000  Uiso   1.00
O1052  O     0.50000   0.79374   0.81427   0.00000  Uiso   1.00
O1053  O     0.50000   0.87293   0.81427   0.00000  Uiso   1.00
O1054  O     0.50000   0.79374   0.68573   0.00000  Uiso   1.00
C1055  C     0.75426   0.83291   0.75290   0.00000  Uiso   1.00
C1056  C     0.98040   0.87630   0.75176   0.00000  Uiso   1.00
C1057  C     0.97740   0.79194   0.73939   0.00000  Uiso   1.00
C1058  C     0.68926   0.87472   0.76061   0.00000  Uiso   1.00
C1059  C     0.82478   0.87536   0.54758   0.00000  Uiso   1.00
C1060  C     0.84188   0.79130   0.95241   0.00000  Uiso   1.00
C1061  C     0.84740   0.87442   0.95444   0.00000  Uiso   1.00
C1062  C     0.81927   0.79224   0.54556   0.00000  Uiso   1.00
C1063  C     0.83216   0.87574   0.59309   0.00000  Uiso   1.00
C1064  C     0.83450   0.79093   0.90690   0.00000  Uiso   1.00
C1065  C     0.84040   0.87584   0.90889   0.00000  Uiso   1.00
C1066  C     0.91240   0.83376   0.74710   0.00000  Uiso   1.00
C1067  C     0.82628   0.79082   0.59111   0.00000  Uiso   1.00
C1068  C     0.83273   0.83298   0.61605   0.00000  Uiso   1.00
C1069  C     0.83394   0.83369   0.88394   0.00000  Uiso   1.00
C1070  C     0.82803   0.83353   0.52355   0.00000  Uiso   1.00
C1071  C     0.83864   0.83313   0.97645   0.00000  Uiso   1.00
C1072  C     0.95708   0.83439   0.74457   0.00000  Uiso   1.00
C1073  C     0.70959   0.83227   0.75543   0.00000  Uiso   1.00
C1074  C     0.83410   0.83309   0.66483   0.00000  Uiso   1.00
C1075  C     0.83257   0.83358   0.83517   0.00000  Uiso   1.00
C1076  C     0.80500   0.68948   0.72339   0.00000  Uiso   1.00
C1077  C     0.86167   0.97719   0.77661   0.00000  Uiso   1.00
C1078  C     0.86169   0.69346   0.77597   0.00000  Uiso   1.00
C1079  C     0.80498   0.97321   0.72403   0.00000  Uiso   1.00
C1080  C     0.68627   0.79036   0.74824   0.00000  Uiso   1.00
Cl1081 Cl    0.79847   0.92320   0.52383   0.00000  Uiso   1.00
Cl1082 Cl    0.95920   0.93218   0.74472   0.00000  Uiso   1.00
Cl1083 Cl    0.95186   0.74081   0.71643   0.00000  Uiso   1.00
Cl1084 Cl    0.71481   0.92585   0.78357   0.00000  Uiso   1.00
Cl1085 Cl    0.86819   0.74345   0.97616   0.00000  Uiso   1.00
Cl1086 Cl    0.87955   0.91884   0.98065   0.00000  Uiso   1.00
Cl1087 Cl    0.78713   0.74781   0.51936   0.00000  Uiso   1.00
Cl1088 Cl    0.84416   0.93100   0.61820   0.00000  Uiso   1.00
Cl1089 Cl    0.82249   0.73566   0.88179   0.00000  Uiso   1.00
Cl1090 Cl    0.83698   0.93190   0.88611   0.00000  Uiso   1.00
Cl1091 Cl    0.82973   0.73476   0.61389   0.00000  Uiso   1.00
Cl1092 Cl    0.70747   0.73448   0.75527   0.00000  Uiso   1.00
Cu1093 Cu    0.83333   0.88022   0.75000   0.00000  Uiso   1.00
Cu1094 Cu    0.83333   0.78645   0.75000   0.00000  Uiso   1.00
H1095  H     0.77914   0.74549   0.69157   0.00000  Uiso   1.00
H1096  H     0.77321   0.69618   0.66416   0.00000  Uiso   1.00
H1097  H     0.88753   0.92118   0.80843   0.00000  Uiso   1.00
H1098  H     0.89348   0.97049   0.83583   0.00000  Uiso   1.00
H1099  H     0.88838   0.71447   0.83545   0.00000  Uiso   1.00
H1100  H     0.92085   0.70959   0.79555   0.00000  Uiso   1.00
H1101  H     0.77828   0.95220   0.66455   0.00000  Uiso   1.00
H1102  H     0.74581   0.95707   0.70446   0.00000  Uiso   1.00
N1103  N     0.83333   0.95069   0.75000   0.00000  Uiso   1.00
N1104  N     0.83333   0.71598   0.75000   0.00000  Uiso   1.00
N1105  N     0.77336   0.71051   0.69573   0.00000  Uiso   1.00
N1106  N     0.89331   0.95615   0.80426   0.00000  Uiso   1.00
N1107  N     0.89184   0.72052   0.80244   0.00000  Uiso   1.00
N1108  N     0.77483   0.94615   0.69756   0.00000  Uiso   1.00
O1109  O     0.77321   0.87291   0.74999   0.00000  Uiso   1.00
O1110  O     0.89345   0.79375   0.75000   0.00000  Uiso   1.00
O1111  O     0.89345   0.87291   0.75000   0.00000  Uiso   1.00
O1112  O     0.77321   0.79375   0.74999   0.00000  Uiso   1.00
O1113  O     0.83333   0.87293   0.68573   0.00000  Uiso   1.00
O1114  O     0.83334   0.79374   0.81427   0.00000  Uiso   1.00
O1115  O     0.83334   0.87293   0.81427   0.00000  Uiso   1.00
O1116  O     0.83333   0.79374   0.68573   0.00000  Uiso   1.00
loop_
_geom_bond_atom_site_label_1
_geom_bond_atom_site_label_2
_geom_bond_distance
_geom_bond_site_symmetry_2
_ccdc_geom_bond_type
C1     O55     1.300   .     A
C1     C19     1.474   .     S
C1     O58     1.301   .     A
C2     C18     1.414   .     A
C2     Cl28    1.771   .     S
C2     C66     1.392   .     S
C3     C18     1.413   .     A
C3     Cl29    1.777   .     S
C3     C88     1.392   .     S
C4     C19     1.413   .     A
C4     Cl30    1.777   .     S
C4     C126    1.392   1_455 S
C5     C9      1.395   .     A
C5     Cl27    1.774   .     S
C5     C16     1.406   .     A
C6     C10     1.395   .     A
C6     Cl31    1.774   .     S
C6     C17     1.406   .     A
C7     C11     1.397   .     A
C7     Cl32    1.774   .     S
C7     C17     1.408   .     A
C8     C16     1.408   .     A
C8     Cl33    1.774   .     S
C8     C13     1.397   .     A
C9     C14     1.424   .     A
C9     Cl34    1.771   .     S
C10    Cl35    1.771   .     S
C10    C15     1.424   .     A
C11    C15     1.421   .     A
C11    Cl36    1.766   .     S
C12    O56     1.300   .     A
C12    O57     1.301   .     A
C12    C18     1.474   .     S
C13    Cl37    1.766   .     S
C13    C14     1.421   .     A
C14    C20     1.490   .     S
C15    C21     1.490   .     S
C16    C575    1.509   1_554 S
C17    C574    1.509   .     S
C19    C26     1.414   .     A
C20    O59     1.301   .     A
C20    O62     1.308   .     A
C21    O60     1.301   .     A
C21    O61     1.308   .     A
C22    N51     1.438   .     S
C22    N50     1.390   .     A
C22    C397    1.422   1_545 S
C23    N52     1.438   .     S
C23    N49     1.390   .     A
C23    C210    1.422   .     S
C24    N50     1.358   .     A
C24    N53     1.433   .     S
C24    C395    1.422   1_545 S
C25    N49     1.358   .     A
C25    N54     1.433   .     S
C25    C208    1.422   .     S
C26    Cl38    1.771   .     S
C26    C127    1.392   1_455 S
Cu39   O59     1.974   .     S
Cu39   O55     1.979   .     S
Cu39   N49     2.020   .     S
Cu39   O61     1.982   .     S
Cu39   O57     1.988   .     S
Cu39   Cu40    2.688   .     S
Cu40   O60     1.974   .     S
Cu40   O62     1.982   .     S
Cu40   N50     2.020   .     S
Cu40   O58     1.988   .     S
Cu40   O56     1.979   .     S
H41    N51     1.028   .     S
H42    N51     1.043   .     S
H43    N52     1.028   .     S
H44    N52     1.043   .     S
H45    N53     1.043   .     S
H46    N53     1.045   .     S
H47    N54     1.043   .     S
H48    N54     1.045   .     S
C63    O117    1.300   .     A
C63    C81     1.474   .     S
C63    O120    1.301   .     A
C64    C80     1.414   .     A
C64    Cl90    1.771   .     S
C64    C128    1.392   .     S
C65    C80     1.413   .     A
C65    Cl91    1.777   .     S
C65    C150    1.392   .     S
C66    C81     1.413   .     A
C66    Cl92    1.777   .     S
C67    C71     1.395   .     A
C67    Cl89    1.774   .     S
C67    C78     1.406   .     A
C68    C72     1.395   .     A
C68    Cl93    1.774   .     S
C68    C79     1.406   .     A
C69    C73     1.397   .     A
C69    Cl94    1.774   .     S
C69    C79     1.408   .     A
C70    C78     1.408   .     A
C70    Cl95    1.774   .     S
C70    C75     1.397   .     A
C71    C76     1.424   .     A
C71    Cl96    1.771   .     S
C72    Cl97    1.771   .     S
C72    C77     1.424   .     A
C73    C77     1.421   .     A
C73    Cl98    1.766   .     S
C74    O118    1.300   .     A
C74    O119    1.301   .     A
C74    C80     1.474   .     S
C75    Cl99    1.766   .     S
C75    C76     1.421   .     A
C76    C82     1.490   .     S
C77    C83     1.490   .     S
C78    C637    1.509   1_554 S
C79    C636    1.509   .     S
C81    C88     1.414   .     A
C82    O121    1.301   .     A
C82    O124    1.308   .     A
C83    O122    1.301   .     A
C83    O123    1.308   .     A
C84    N113    1.438   .     S
C84    N112    1.390   .     A
C84    C459    1.422   1_545 S
C85    N114    1.438   .     S
C85    N111    1.390   .     A
C85    C272    1.422   .     S
C86    N112    1.358   .     A
C86    N115    1.433   .     S
C86    C457    1.422   1_545 S
C87    N111    1.358   .     A
C87    N116    1.433   .     S
C87    C270    1.422   .     S
C88    Cl100   1.771   .     S
Cu101  O121    1.974   .     S
Cu101  O117    1.979   .     S
Cu101  N111    2.020   .     S
Cu101  O123    1.982   .     S
Cu101  O119    1.988   .     S
Cu101  Cu102   2.688   .     S
Cu102  O122    1.974   .     S
Cu102  O124    1.982   .     S
Cu102  N112    2.020   .     S
Cu102  O120    1.988   .     S
Cu102  O118    1.979   .     S
H103   N113    1.028   .     S
H104   N113    1.043   .     S
H105   N114    1.028   .     S
H106   N114    1.043   .     S
H107   N115    1.043   .     S
H108   N115    1.045   .     S
H109   N116    1.043   .     S
H110   N116    1.045   .     S
C125   O179    1.300   .     A
C125   C143    1.474   .     S
C125   O182    1.301   .     A
C126   C142    1.414   .     A
C126   Cl152   1.771   .     S
C126   C4      1.392   1_655 S
C127   C142    1.413   .     A
C127   Cl153   1.777   .     S
C127   C26     1.392   1_655 S
C128   C143    1.413   .     A
C128   Cl154   1.777   .     S
C129   C133    1.395   .     A
C129   Cl151   1.774   .     S
C129   C140    1.406   .     A
C130   C134    1.395   .     A
C130   Cl155   1.774   .     S
C130   C141    1.406   .     A
C131   C135    1.397   .     A
C131   Cl156   1.774   .     S
C131   C141    1.408   .     A
C132   C140    1.408   .     A
C132   Cl157   1.774   .     S
C132   C137    1.397   .     A
C133   C138    1.424   .     A
C133   Cl158   1.771   .     S
C134   Cl159   1.771   .     S
C134   C139    1.424   .     A
C135   C139    1.421   .     A
C135   Cl160   1.766   .     S
C136   O180    1.300   .     A
C136   O181    1.301   .     A
C136   C142    1.474   .     S
C137   Cl161   1.766   .     S
C137   C138    1.421   .     A
C138   C144    1.490   .     S
C139   C145    1.490   .     S
C140   C699    1.509   1_554 S
C141   C698    1.509   .     S
C143   C150    1.414   .     A
C144   O183    1.301   .     A
C144   O186    1.308   .     A
C145   O184    1.301   .     A
C145   O185    1.308   .     A
C146   N175    1.438   .     S
C146   N174    1.390   .     A
C146   C521    1.422   1_545 S
C147   N176    1.438   .     S
C147   N173    1.390   .     A
C147   C334    1.422   .     S
C148   N174    1.358   .     A
C148   N177    1.433   .     S
C148   C519    1.422   1_545 S
C149   N173    1.358   .     A
C149   N178    1.433   .     S
C149   C332    1.422   .     S
C150   Cl162   1.771   .     S
Cu163  O183    1.974   .     S
Cu163  O179    1.979   .     S
Cu163  N173    2.020   .     S
Cu163  O185    1.982   .     S
Cu163  O181    1.988   .     S
Cu163  Cu164   2.688   .     S
Cu164  O184    1.974   .     S
Cu164  O186    1.982   .     S
Cu164  N174    2.020   .     S
Cu164  O182    1.988   .     S
Cu164  O180    1.979   .     S
H165   N175    1.028   .     S
H166   N175    1.043   .     S
H167   N176    1.028   .     S
H168   N176    1.043   .     S
H169   N177    1.043   .     S
H170   N177    1.045   .     S
H171   N178    1.043   .     S
H172   N178    1.045   .     S
C187   O241    1.300   .     A
C187   C205    1.474   .     S
C187   O244    1.301   .     A
C188   C204    1.414   .     A
C188   Cl214   1.771   .     S
C188   C252    1.392   .     S
C189   C204    1.413   .     A
C189   Cl215   1.777   .     S
C189   C274    1.392   .     S
C190   C205    1.413   .     A
C190   Cl216   1.777   .     S
C190   C312    1.392   1_455 S
C191   C195    1.395   .     A
C191   Cl213   1.774   .     S
C191   C202    1.406   .     A
C192   C196    1.395   .     A
C192   Cl217   1.774   .     S
C192   C203    1.406   .     A
C193   C197    1.397   .     A
C193   Cl218   1.774   .     S
C193   C203    1.408   .     A
C194   C202    1.408   .     A
C194   Cl219   1.774   .     S
C194   C199    1.397   .     A
C195   C200    1.424   .     A
C195   Cl220   1.771   .     S
C196   Cl221   1.771   .     S
C196   C201    1.424   .     A
C197   C201    1.421   .     A
C197   Cl222   1.766   .     S
C198   O242    1.300   .     A
C198   O243    1.301   .     A
C198   C204    1.474   .     S
C199   Cl223   1.766   .     S
C199   C200    1.421   .     A
C200   C206    1.490   .     S
C201   C207    1.490   .     S
C202   C761    1.509   1_554 S
C203   C760    1.509   .     S
C205   C212    1.414   .     A
C206   O245    1.301   .     A
C206   O248    1.308   .     A
C207   O246    1.301   .     A
C207   O247    1.308   .     A
C208   N237    1.438   .     S
C208   N236    1.390   .     A
C209   N238    1.438   .     S
C209   N235    1.390   .     A
C209   C396    1.422   .     S
C210   N236    1.358   .     A
C210   N239    1.433   .     S
C211   N235    1.358   .     A
C211   N240    1.433   .     S
C211   C394    1.422   .     S
C212   Cl224   1.771   .     S
C212   C313    1.392   1_455 S
Cu225  O245    1.974   .     S
Cu225  O241    1.979   .     S
Cu225  N235    2.020   .     S
Cu225  O247    1.982   .     S
Cu225  O243    1.988   .     S
Cu225  Cu226   2.688   .     S
Cu226  O246    1.974   .     S
Cu226  O248    1.982   .     S
Cu226  N236    2.020   .     S
Cu226  O244    1.988   .     S
Cu226  O242    1.979   .     S
H227   N237    1.028   .     S
H228   N237    1.043   .     S
H229   N238    1.028   .     S
H230   N238    1.043   .     S
H231   N239    1.043   .     S
H232   N239    1.045   .     S
H233   N240    1.043   .     S
H234   N240    1.045   .     S
C249   O303    1.300   .     A
C249   C267    1.474   .     S
C249   O306    1.301   .     A
C250   C266    1.414   .     A
C250   Cl276   1.771   .     S
C250   C314    1.392   .     S
C251   C266    1.413   .     A
C251   Cl277   1.777   .     S
C251   C336    1.392   .     S
C252   C267    1.413   .     A
C252   Cl278   1.777   .     S
C253   C257    1.395   .     A
C253   Cl275   1.774   .     S
C253   C264    1.406   .     A
C254   C258    1.395   .     A
C254   Cl279   1.774   .     S
C254   C265    1.406   .     A
C255   C259    1.397   .     A
C255   Cl280   1.774   .     S
C255   C265    1.408   .     A
C256   C264    1.408   .     A
C256   Cl281   1.774   .     S
C256   C261    1.397   .     A
C257   C262    1.424   .     A
C257   Cl282   1.771   .     S
C258   Cl283   1.771   .     S
C258   C263    1.424   .     A
C259   C263    1.421   .     A
C259   Cl284   1.766   .     S
C260   O304    1.300   .     A
C260   O305    1.301   .     A
C260   C266    1.474   .     S
C261   Cl285   1.766   .     S
C261   C262    1.421   .     A
C262   C268    1.490   .     S
C263   C269    1.490   .     S
C264   C823    1.509   1_554 S
C265   C822    1.509   .     S
C267   C274    1.414   .     A
C268   O307    1.301   .     A
C268   O310    1.308   .     A
C269   O308    1.301   .     A
C269   O309    1.308   .     A
C270   N299    1.438   .     S
C270   N298    1.390   .     A
C271   N300    1.438   .     S
C271   N297    1.390   .     A
C271   C458    1.422   .     S
C272   N298    1.358   .     A
C272   N301    1.433   .     S
C273   N297    1.358   .     A
C273   N302    1.433   .     S
C273   C456    1.422   .     S
C274   Cl286   1.771   .     S
Cu287  O307    1.974   .     S
Cu287  O303    1.979   .     S
Cu287  N297    2.020   .     S
Cu287  O309    1.982   .     S
Cu287  O305    1.988   .     S
Cu287  Cu288   2.688   .     S
Cu288  O308    1.974   .     S
Cu288  O310    1.982   .     S
Cu288  N298    2.020   .     S
Cu288  O306    1.988   .     S
Cu288  O304    1.979   .     S
H289   N299    1.028   .     S
H290   N299    1.043   .     S
H291   N300    1.028   .     S
H292   N300    1.043   .     S
H293   N301    1.043   .     S
H294   N301    1.045   .     S
H295   N302    1.043   .     S
H296   N302    1.045   .     S
C311   O365    1.300   .     A
C311   C329    1.474   .     S
C311   O368    1.301   .     A
C312   C328    1.414   .     A
C312   Cl338   1.771   .     S
C312   C190    1.392   1_655 S
C313   C328    1.413   .     A
C313   Cl339   1.777   .     S
C313   C212    1.392   1_655 S
C314   C329    1.413   .     A
C314   Cl340   1.777   .     S
C315   C319    1.395   .     A
C315   Cl337   1.774   .     S
C315   C326    1.406   .     A
C316   C320    1.395   .     A
C316   Cl341   1.774   .     S
C316   C327    1.406   .     A
C317   C321    1.397   .     A
C317   Cl342   1.774   .     S
C317   C327    1.408   .     A
C318   C326    1.408   .     A
C318   Cl343   1.774   .     S
C318   C323    1.397   .     A
C319   C324    1.424   .     A
C319   Cl344   1.771   .     S
C320   Cl345   1.771   .     S
C320   C325    1.424   .     A
C321   C325    1.421   .     A
C321   Cl346   1.766   .     S
C322   O366    1.300   .     A
C322   O367    1.301   .     A
C322   C328    1.474   .     S
C323   Cl347   1.766   .     S
C323   C324    1.421   .     A
C324   C330    1.490   .     S
C325   C331    1.490   .     S
C326   C885    1.509   1_554 S
C327   C884    1.509   .     S
C329   C336    1.414   .     A
C330   O369    1.301   .     A
C330   O372    1.308   .     A
C331   O370    1.301   .     A
C331   O371    1.308   .     A
C332   N361    1.438   .     S
C332   N360    1.390   .     A
C333   N362    1.438   .     S
C333   N359    1.390   .     A
C333   C520    1.422   .     S
C334   N360    1.358   .     A
C334   N363    1.433   .     S
C335   N359    1.358   .     A
C335   N364    1.433   .     S
C335   C518    1.422   .     S
C336   Cl348   1.771   .     S
Cu349  O369    1.974   .     S
Cu349  O365    1.979   .     S
Cu349  N359    2.020   .     S
Cu349  O371    1.982   .     S
Cu349  O367    1.988   .     S
Cu349  Cu350   2.688   .     S
Cu350  O370    1.974   .     S
Cu350  O372    1.982   .     S
Cu350  N360    2.020   .     S
Cu350  O368    1.988   .     S
Cu350  O366    1.979   .     S
H351   N361    1.028   .     S
H352   N361    1.043   .     S
H353   N362    1.028   .     S
H354   N362    1.043   .     S
H355   N363    1.043   .     S
H356   N363    1.045   .     S
H357   N364    1.043   .     S
H358   N364    1.045   .     S
C373   O427    1.300   .     A
C373   C391    1.474   .     S
C373   O430    1.301   .     A
C374   C390    1.414   .     A
C374   Cl400   1.771   .     S
C374   C438    1.392   .     S
C375   C390    1.413   .     A
C375   Cl401   1.777   .     S
C375   C460    1.392   .     S
C376   C391    1.413   .     A
C376   Cl402   1.777   .     S
C376   C498    1.392   1_455 S
C377   C381    1.395   .     A
C377   Cl399   1.774   .     S
C377   C388    1.406   .     A
C378   C382    1.395   .     A
C378   Cl403   1.774   .     S
C378   C389    1.406   .     A
C379   C383    1.397   .     A
C379   Cl404   1.774   .     S
C379   C389    1.408   .     A
C380   C388    1.408   .     A
C380   Cl405   1.774   .     S
C380   C385    1.397   .     A
C381   C386    1.424   .     A
C381   Cl406   1.771   .     S
C382   Cl407   1.771   .     S
C382   C387    1.424   .     A
C383   C387    1.421   .     A
C383   Cl408   1.766   .     S
C384   O428    1.300   .     A
C384   O429    1.301   .     A
C384   C390    1.474   .     S
C385   Cl409   1.766   .     S
C385   C386    1.421   .     A
C386   C392    1.490   .     S
C387   C393    1.490   .     S
C388   C947    1.509   1_554 S
C389   C946    1.509   .     S
C391   C398    1.414   .     A
C392   O431    1.301   .     A
C392   O434    1.308   .     A
C393   O432    1.301   .     A
C393   O433    1.308   .     A
C394   N423    1.438   .     S
C394   N422    1.390   .     A
C395   N424    1.438   .     S
C395   N421    1.390   .     A
C395   C24     1.422   1_565 S
C396   N422    1.358   .     A
C396   N425    1.433   .     S
C397   N421    1.358   .     A
C397   N426    1.433   .     S
C397   C22     1.422   1_565 S
C398   Cl410   1.771   .     S
C398   C499    1.392   1_455 S
Cu411  O431    1.974   .     S
Cu411  O427    1.979   .     S
Cu411  N421    2.020   .     S
Cu411  O433    1.982   .     S
Cu411  O429    1.988   .     S
Cu411  Cu412   2.688   .     S
Cu412  O432    1.974   .     S
Cu412  O434    1.982   .     S
Cu412  N422    2.020   .     S
Cu412  O430    1.988   .     S
Cu412  O428    1.979   .     S
H413   N423    1.028   .     S
H414   N423    1.043   .     S
H415   N424    1.028   .     S
H416   N424    1.043   .     S
H417   N425    1.043   .     S
H418   N425    1.045   .     S
H419   N426    1.043   .     S
H420   N426    1.045   .     S
C435   O489    1.300   .     A
C435   C453    1.474   .     S
C435   O492    1.301   .     A
C436   C452    1.414   .     A
C436   Cl462   1.771   .     S
C436   C500    1.392   .     S
C437   C452    1.413   .     A
C437   Cl463   1.777   .     S
C437   C522    1.392   .     S
C438   C453    1.413   .     A
C438   Cl464   1.777   .     S
C439   C443    1.395   .     A
C439   Cl461   1.774   .     S
C439   C450    1.406   .     A
C440   C444    1.395   .     A
C440   Cl465   1.774   .     S
C440   C451    1.406   .     A
C441   C445    1.397   .     A
C441   Cl466   1.774   .     S
C441   C451    1.408   .     A
C442   C450    1.408   .     A
C442   Cl467   1.774   .     S
C442   C447    1.397   .     A
C443   C448    1.424   .     A
C443   Cl468   1.771   .     S
C444   Cl469   1.771   .     S
C444   C449    1.424   .     A
C445   C449    1.421   .     A
C445   Cl470   1.766   .     S
C446   O490    1.300   .     A
C446   O491    1.301   .     A
C446   C452    1.474   .     S
C447   Cl471   1.766   .     S
C447   C448    1.421   .     A
C448   C454    1.490   .     S
C449   C455    1.490   .     S
C450   C1009   1.509   1_554 S
C451   C1008   1.509   .     S
C453   C460    1.414   .     A
C454   O493    1.301   .     A
C454   O496    1.308   .     A
C455   O494    1.301   .     A
C455   O495    1.308   .     A
C456   N485    1.438   .     S
C456   N484    1.390   .     A
C457   N486    1.438   .     S
C457   N483    1.390   .     A
C457   C86     1.422   1_565 S
C458   N484    1.358   .     A
C458   N487    1.433   .     S
C459   N483    1.358   .     A
C459   N488    1.433   .     S
C459   C84     1.422   1_565 S
C460   Cl472   1.771   .     S
Cu473  O493    1.974   .     S
Cu473  O489    1.979   .     S
Cu473  N483    2.020   .     S
Cu473  O495    1.982   .     S
Cu473  O491    1.988   .     S
Cu473  Cu474   2.688   .     S
Cu474  O494    1.974   .     S
Cu474  O496    1.982   .     S
Cu474  N484    2.020   .     S
Cu474  O492    1.988   .     S
Cu474  O490    1.979   .     S
H475   N485    1.028   .     S
H476   N485    1.043   .     S
H477   N486    1.028   .     S
H478   N486    1.043   .     S
H479   N487    1.043   .     S
H480   N487    1.045   .     S
H481   N488    1.043   .     S
H482   N488    1.045   .     S
C497   O551    1.300   .     A
C497   C515    1.474   .     S
C497   O554    1.301   .     A
C498   C514    1.414   .     A
C498   Cl524   1.771   .     S
C498   C376    1.392   1_655 S
C499   C514    1.413   .     A
C499   Cl525   1.777   .     S
C499   C398    1.392   1_655 S
C500   C515    1.413   .     A
C500   Cl526   1.777   .     S
C501   C505    1.395   .     A
C501   Cl523   1.774   .     S
C501   C512    1.406   .     A
C502   C506    1.395   .     A
C502   Cl527   1.774   .     S
C502   C513    1.406   .     A
C503   C507    1.397   .     A
C503   Cl528   1.774   .     S
C503   C513    1.408   .     A
C504   C512    1.408   .     A
C504   Cl529   1.774   .     S
C504   C509    1.397   .     A
C505   C510    1.424   .     A
C505   Cl530   1.771   .     S
C506   Cl531   1.771   .     S
C506   C511    1.424   .     A
C507   C511    1.421   .     A
C507   Cl532   1.766   .     S
C508   O552    1.300   .     A
C508   O553    1.301   .     A
C508   C514    1.474   .     S
C509   Cl533   1.766   .     S
C509   C510    1.421   .     A
C510   C516    1.490   .     S
C511   C517    1.490   .     S
C512   C1071   1.509   1_554 S
C513   C1070   1.509   .     S
C515   C522    1.414   .     A
C516   O555    1.301   .     A
C516   O558    1.308   .     A
C517   O556    1.301   .     A
C517   O557    1.308   .     A
C518   N547    1.438   .     S
C518   N546    1.390   .     A
C519   N548    1.438   .     S
C519   N545    1.390   .     A
C519   C148    1.422   1_565 S
C520   N546    1.358   .     A
C520   N549    1.433   .     S
C521   N545    1.358   .     A
C521   N550    1.433   .     S
C521   C146    1.422   1_565 S
C522   Cl534   1.771   .     S
Cu535  O555    1.974   .     S
Cu535  O551    1.979   .     S
Cu535  N545    2.020   .     S
Cu535  O557    1.982   .     S
Cu535  O553    1.988   .     S
Cu535  Cu536   2.688   .     S
Cu536  O556    1.974   .     S
Cu536  O558    1.982   .     S
Cu536  N546    2.020   .     S
Cu536  O554    1.988   .     S
Cu536  O552    1.979   .     S
H537   N547    1.028   .     S
H538   N547    1.043   .     S
H539   N548    1.028   .     S
H540   N548    1.043   .     S
H541   N549    1.043   .     S
H542   N549    1.045   .     S
H543   N550    1.043   .     S
H544   N550    1.045   .     S
C559   O613    1.300   .     A
C559   C577    1.474   .     S
C559   O616    1.301   .     A
C560   C576    1.414   .     A
C560   Cl586   1.771   .     S
C560   C624    1.392   .     S
C561   C576    1.413   .     A
C561   Cl587   1.777   .     S
C561   C646    1.392   .     S
C562   C577    1.413   .     A
C562   Cl588   1.777   .     S
C562   C684    1.392   1_455 S
C563   C567    1.395   .     A
C563   Cl585   1.774   .     S
C563   C574    1.406   .     A
C564   C568    1.395   .     A
C564   Cl589   1.774   .     S
C564   C575    1.406   .     A
C565   C569    1.397   .     A
C565   Cl590   1.774   .     S
C565   C575    1.408   .     A
C566   C574    1.408   .     A
C566   Cl591   1.774   .     S
C566   C571    1.397   .     A
C567   C572    1.424   .     A
C567   Cl592   1.771   .     S
C568   Cl593   1.771   .     S
C568   C573    1.424   .     A
C569   C573    1.421   .     A
C569   Cl594   1.766   .     S
C570   O614    1.300   .     A
C570   O615    1.301   .     A
C570   C576    1.474   .     S
C571   Cl595   1.766   .     S
C571   C572    1.421   .     A
C572   C578    1.490   .     S
C573   C579    1.490   .     S
C575   C16     1.509   1_556 S
C577   C584    1.414   .     A
C578   O617    1.301   .     A
C578   O620    1.308   .     A
C579   O618    1.301   .     A
C579   O619    1.308   .     A
C580   N609    1.438   .     S
C580   N608    1.390   .     A
C580   C955    1.422   1_545 S
C581   N610    1.438   .     S
C581   N607    1.390   .     A
C581   C768    1.422   .     S
C582   N608    1.358   .     A
C582   N611    1.433   .     S
C582   C953    1.422   1_545 S
C583   N607    1.358   .     A
C583   N612    1.433   .     S
C583   C766    1.422   .     S
C584   Cl596   1.771   .     S
C584   C685    1.392   1_455 S
Cu597  O617    1.974   .     S
Cu597  O613    1.979   .     S
Cu597  N607    2.020   .     S
Cu597  O619    1.982   .     S
Cu597  O615    1.988   .     S
Cu597  Cu598   2.688   .     S
Cu598  O618    1.974   .     S
Cu598  O620    1.982   .     S
Cu598  N608    2.020   .     S
Cu598  O616    1.988   .     S
Cu598  O614    1.979   .     S
H599   N609    1.028   .     S
H600   N609    1.043   .     S
H601   N610    1.028   .     S
H602   N610    1.043   .     S
H603   N611    1.043   .     S
H604   N611    1.045   .     S
H605   N612    1.043   .     S
H606   N612    1.045   .     S
C621   O675    1.300   .     A
C621   C639    1.474   .     S
C621   O678    1.301   .     A
C622   C638    1.414   .     A
C622   Cl648   1.771   .     S
C622   C686    1.392   .     S
C623   C638    1.413   .     A
C623   Cl649   1.777   .     S
C623   C708    1.392   .     S
C624   C639    1.413   .     A
C624   Cl650   1.777   .     S
C625   C629    1.395   .     A
C625   Cl647   1.774   .     S
C625   C636    1.406   .     A
C626   C630    1.395   .     A
C626   Cl651   1.774   .     S
C626   C637    1.406   .     A
C627   C631    1.397   .     A
C627   Cl652   1.774   .     S
C627   C637    1.408   .     A
C628   C636    1.408   .     A
C628   Cl653   1.774   .     S
C628   C633    1.397   .     A
C629   C634    1.424   .     A
C629   Cl654   1.771   .     S
C630   Cl655   1.771   .     S
C630   C635    1.424   .     A
C631   C635    1.421   .     A
C631   Cl656   1.766   .     S
C632   O676    1.300   .     A
C632   O677    1.301   .     A
C632   C638    1.474   .     S
C633   Cl657   1.766   .     S
C633   C634    1.421   .     A
C634   C640    1.490   .     S
C635   C641    1.490   .     S
C637   C78     1.509   1_556 S
C639   C646    1.414   .     A
C640   O679    1.301   .     A
C640   O682    1.308   .     A
C641   O680    1.301   .     A
C641   O681    1.308   .     A
C642   N671    1.438   .     S
C642   N670    1.390   .     A
C642   C1017   1.422   1_545 S
C643   N672    1.438   .     S
C643   N669    1.390   .     A
C643   C830    1.422   .     S
C644   N670    1.358   .     A
C644   N673    1.433   .     S
C644   C1015   1.422   1_545 S
C645   N669    1.358   .     A
C645   N674    1.433   .     S
C645   C828    1.422   .     S
C646   Cl658   1.771   .     S
Cu659  O679    1.974   .     S
Cu659  O675    1.979   .     S
Cu659  N669    2.020   .     S
Cu659  O681    1.982   .     S
Cu659  O677    1.988   .     S
Cu659  Cu660   2.688   .     S
Cu660  O680    1.974   .     S
Cu660  O682    1.982   .     S
Cu660  N670    2.020   .     S
Cu660  O678    1.988   .     S
Cu660  O676    1.979   .     S
H661   N671    1.028   .     S
H662   N671    1.043   .     S
H663   N672    1.028   .     S
H664   N672    1.043   .     S
H665   N673    1.043   .     S
H666   N673    1.045   .     S
H667   N674    1.043   .     S
H668   N674    1.045   .     S
C683   O737    1.300   .     A
C683   C701    1.474   .     S
C683   O740    1.301   .     A
C684   C700    1.414   .     A
C684   Cl710   1.771   .     S
C684   C562    1.392   1_655 S
C685   C700    1.413   .     A
C685   Cl711   1.777   .     S
C685   C584    1.392   1_655 S
C686   C701    1.413   .     A
C686   Cl712   1.777   .     S
C687   C691    1.395   .     A
C687   Cl709   1.774   .     S
C687   C698    1.406   .     A
C688   C692    1.395   .     A
C688   Cl713   1.774   .     S
C688   C699    1.406   .     A
C689   C693    1.397   .     A
C689   Cl714   1.774   .     S
C689   C699    1.408   .     A
C690   C698    1.408   .     A
C690   Cl715   1.774   .     S
C690   C695    1.397   .     A
C691   C696    1.424   .     A
C691   Cl716   1.771   .     S
C692   Cl717   1.771   .     S
C692   C697    1.424   .     A
C693   C697    1.421   .     A
C693   Cl718   1.766   .     S
C694   O738    1.300   .     A
C694   O739    1.301   .     A
C694   C700    1.474   .     S
C695   Cl719   1.766   .     S
C695   C696    1.421   .     A
C696   C702    1.490   .     S
C697   C703    1.490   .     S
C699   C140    1.509   1_556 S
C701   C708    1.414   .     A
C702   O741    1.301   .     A
C702   O744    1.308   .     A
C703   O742    1.301   .     A
C703   O743    1.308   .     A
C704   N733    1.438   .     S
C704   N732    1.390   .     A
C704   C1079   1.422   1_545 S
C705   N734    1.438   .     S
C705   N731    1.390   .     A
C705   C892    1.422   .     S
C706   N732    1.358   .     A
C706   N735    1.433   .     S
C706   C1077   1.422   1_545 S
C707   N731    1.358   .     A
C707   N736    1.433   .     S
C707   C890    1.422   .     S
C708   Cl720   1.771   .     S
Cu721  O741    1.974   .     S
Cu721  O737    1.979   .     S
Cu721  N731    2.020   .     S
Cu721  O743    1.982   .     S
Cu721  O739    1.988   .     S
Cu721  Cu722   2.688   .     S
Cu722  O742    1.974   .     S
Cu722  O744    1.982   .     S
Cu722  N732    2.020   .     S
Cu722  O740    1.988   .     S
Cu722  O738    1.979   .     S
H723   N733    1.028   .     S
H724   N733    1.043   .     S
H725   N734    1.028   .     S
H726   N734    1.043   .     S
H727   N735    1.043   .     S
H728   N735    1.045   .     S
H729   N736    1.043   .     S
H730   N736    1.045   .     S
C745   O799    1.300   .     A
C745   C763    1.474   .     S
C745   O802    1.301   .     A
C746   C762    1.414   .     A
C746   Cl772   1.771   .     S
C746   C810    1.392   .     S
C747   C762    1.413   .     A
C747   Cl773   1.777   .     S
C747   C832    1.392   .     S
C748   C763    1.413   .     A
C748   Cl774   1.777   .     S
C748   C870    1.392   1_455 S
C749   C753    1.395   .     A
C749   Cl771   1.774   .     S
C749   C760    1.406   .     A
C750   C754    1.395   .     A
C750   Cl775   1.774   .     S
C750   C761    1.406   .     A
C751   C755    1.397   .     A
C751   Cl776   1.774   .     S
C751   C761    1.408   .     A
C752   C760    1.408   .     A
C752   Cl777   1.774   .     S
C752   C757    1.397   .     A
C753   C758    1.424   .     A
C753   Cl778   1.771   .     S
C754   Cl779   1.771   .     S
C754   C759    1.424   .     A
C755   C759    1.421   .     A
C755   Cl780   1.766   .     S
C756   O800    1.300   .     A
C756   O801    1.301   .     A
C756   C762    1.474   .     S
C757   Cl781   1.766   .     S
C757   C758    1.421   .     A
C758   C764    1.490   .     S
C759   C765    1.490   .     S
C761   C202    1.509   1_556 S
C763   C770    1.414   .     A
C764   O803    1.301   .     A
C764   O806    1.308   .     A
C765   O804    1.301   .     A
C765   O805    1.308   .     A
C766   N795    1.438   .     S
C766   N794    1.390   .     A
C767   N796    1.438   .     S
C767   N793    1.390   .     A
C767   C954    1.422   .     S
C768   N794    1.358   .     A
C768   N797    1.433   .     S
C769   N793    1.358   .     A
C769   N798    1.433   .     S
C769   C952    1.422   .     S
C770   Cl782   1.771   .     S
C770   C871    1.392   1_455 S
Cu783  O803    1.974   .     S
Cu783  O799    1.979   .     S
Cu783  N793    2.020   .     S
Cu783  O805    1.982   .     S
Cu783  O801    1.988   .     S
Cu783  Cu784   2.688   .     S
Cu784  O804    1.974   .     S
Cu784  O806    1.982   .     S
Cu784  N794    2.020   .     S
Cu784  O802    1.988   .     S
Cu784  O800    1.979   .     S
H785   N795    1.028   .     S
H786   N795    1.043   .     S
H787   N796    1.028   .     S
H788   N796    1.043   .     S
H789   N797    1.043   .     S
H790   N797    1.045   .     S
H791   N798    1.043   .     S
H792   N798    1.045   .     S
C807   O861    1.300   .     A
C807   C825    1.474   .     S
C807   O864    1.301   .     A
C808   C824    1.414   .     A
C808   Cl834   1.771   .     S
C808   C872    1.392   .     S
C809   C824    1.413   .     A
C809   Cl835   1.777   .     S
C809   C894    1.392   .     S
C810   C825    1.413   .     A
C810   Cl836   1.777   .     S
C811   C815    1.395   .     A
C811   Cl833   1.774   .     S
C811   C822    1.406   .     A
C812   C816    1.395   .     A
C812   Cl837   1.774   .     S
C812   C823    1.406   .     A
C813   C817    1.397   .     A
C813   Cl838   1.774   .     S
C813   C823    1.408   .     A
C814   C822    1.408   .     A
C814   Cl839   1.774   .     S
C814   C819    1.397   .     A
C815   C820    1.424   .     A
C815   Cl840   1.771   .     S
C816   Cl841   1.771   .     S
C816   C821    1.424   .     A
C817   C821    1.421   .     A
C817   Cl842   1.766   .     S
C818   O862    1.300   .     A
C818   O863    1.301   .     A
C818   C824    1.474   .     S
C819   Cl843   1.766   .     S
C819   C820    1.421   .     A
C820   C826    1.490   .     S
C821   C827    1.490   .     S
C823   C264    1.509   1_556 S
C825   C832    1.414   .     A
C826   O865    1.301   .     A
C826   O868    1.308   .     A
C827   O866    1.301   .     A
C827   O867    1.308   .     A
C828   N857    1.438   .     S
C828   N856    1.390   .     A
C829   N858    1.438   .     S
C829   N855    1.390   .     A
C829   C1016   1.422   .     S
C830   N856    1.358   .     A
C830   N859    1.433   .     S
C831   N855    1.358   .     A
C831   N860    1.433   .     S
C831   C1014   1.422   .     S
C832   Cl844   1.771   .     S
Cu845  O865    1.974   .     S
Cu845  O861    1.979   .     S
Cu845  N855    2.020   .     S
Cu845  O867    1.982   .     S
Cu845  O863    1.988   .     S
Cu845  Cu846   2.688   .     S
Cu846  O866    1.974   .     S
Cu846  O868    1.982   .     S
Cu846  N856    2.020   .     S
Cu846  O864    1.988   .     S
Cu846  O862    1.979   .     S
H847   N857    1.028   .     S
H848   N857    1.043   .     S
H849   N858    1.028   .     S
H850   N858    1.043   .     S
H851   N859    1.043   .     S
H852   N859    1.045   .     S
H853   N860    1.043   .     S
H854   N860    1.045   .     S
C869   O923    1.300   .     A
C869   C887    1.474   .     S
C869   O926    1.301   .     A
C870   C886    1.414   .     A
C870   Cl896   1.771   .     S
C870   C748    1.392   1_655 S
C871   C886    1.413   .     A
C871   Cl897   1.777   .     S
C871   C770    1.392   1_655 S
C872   C887    1.413   .     A
C872   Cl898   1.777   .     S
C873   C877    1.395   .     A
C873   Cl895   1.774   .     S
C873   C884    1.406   .     A
C874   C878    1.395   .     A
C874   Cl899   1.774   .     S
C874   C885    1.406   .     A
C875   C879    1.397   .     A
C875   Cl900   1.774   .     S
C875   C885    1.408   .     A
C876   C884    1.408   .     A
C876   Cl901   1.774   .     S
C876   C881    1.397   .     A
C877   C882    1.424   .     A
C877   Cl902   1.771   .     S
C878   Cl903   1.771   .     S
C878   C883    1.424   .     A
C879   C883    1.421   .     A
C879   Cl904   1.766   .     S
C880   O924    1.300   .     A
C880   O925    1.301   .     A
C880   C886    1.474   .     S
C881   Cl905   1.766   .     S
C881   C882    1.421   .     A
C882   C888    1.490   .     S
C883   C889    1.490   .     S
C885   C326    1.509   1_556 S
C887   C894    1.414   .     A
C888   O927    1.301   .     A
C888   O930    1.308   .     A
C889   O928    1.301   .     A
C889   O929    1.308   .     A
C890   N919    1.438   .     S
C890   N918    1.390   .     A
C891   N920    1.438   .     S
C891   N917    1.390   .     A
C891   C1078   1.422   .     S
C892   N918    1.358   .     A
C892   N921    1.433   .     S
C893   N917    1.358   .     A
C893   N922    1.433   .     S
C893   C1076   1.422   .     S
C894   Cl906   1.771   .     S
Cu907  O927    1.974   .     S
Cu907  O923    1.979   .     S
Cu907  N917    2.020   .     S
Cu907  O929    1.982   .     S
Cu907  O925    1.988   .     S
Cu907  Cu908   2.688   .     S
Cu908  O928    1.974   .     S
Cu908  O930    1.982   .     S
Cu908  N918    2.020   .     S
Cu908  O926    1.988   .     S
Cu908  O924    1.979   .     S
H909   N919    1.028   .     S
H910   N919    1.043   .     S
H911   N920    1.028   .     S
H912   N920    1.043   .     S
H913   N921    1.043   .     S
H914   N921    1.045   .     S
H915   N922    1.043   .     S
H916   N922    1.045   .     S
C931   O985    1.300   .     A
C931   C949    1.474   .     S
C931   O988    1.301   .     A
C932   C948    1.414   .     A
C932   Cl958   1.771   .     S
C932   C996    1.392   .     S
C933   C948    1.413   .     A
C933   Cl959   1.777   .     S
C933   C1018   1.392   .     S
C934   C949    1.413   .     A
C934   Cl960   1.777   .     S
C934   C1056   1.392   1_455 S
C935   C939    1.395   .     A
C935   Cl957   1.774   .     S
C935   C946    1.406   .     A
C936   C940    1.395   .     A
C936   Cl961   1.774   .     S
C936   C947    1.406   .     A
C937   C941    1.397   .     A
C937   Cl962   1.774   .     S
C937   C947    1.408   .     A
C938   C946    1.408   .     A
C938   Cl963   1.774   .     S
C938   C943    1.397   .     A
C939   C944    1.424   .     A
C939   Cl964   1.771   .     S
C940   Cl965   1.771   .     S
C940   C945    1.424   .     A
C941   C945    1.421   .     A
C941   Cl966   1.766   .     S
C942   O986    1.300   .     A
C942   O987    1.301   .     A
C942   C948    1.474   .     S
C943   Cl967   1.766   .     S
C943   C944    1.421   .     A
C944   C950    1.490   .     S
C945   C951    1.490   .     S
C947   C388    1.509   1_556 S
C949   C956    1.414   .     A
C950   O989    1.301   .     A
C950   O992    1.308   .     A
C951   O990    1.301   .     A
C951   O991    1.308   .     A
C952   N981    1.438   .     S
C952   N980    1.390   .     A
C953   N982    1.438   .     S
C953   N979    1.390   .     A
C953   C582    1.422   1_565 S
C954   N980    1.358   .     A
C954   N983    1.433   .     S
C955   N979    1.358   .     A
C955   N984    1.433   .     S
C955   C580    1.422   1_565 S
C956   Cl968   1.771   .     S
C956   C1057   1.392   1_455 S
Cu969  O989    1.974   .     S
Cu969  O985    1.979   .     S
Cu969  N979    2.020   .     S
Cu969  O991    1.982   .     S
Cu969  O987    1.988   .     S
Cu969  Cu970   2.688   .     S
Cu970  O990    1.974   .     S
Cu970  O992    1.982   .     S
Cu970  N980    2.020   .     S
Cu970  O988    1.988   .     S
Cu970  O986    1.979   .     S
H971   N981    1.028   .     S
H972   N981    1.043   .     S
H973   N982    1.028   .     S
H974   N982    1.043   .     S
H975   N983    1.043   .     S
H976   N983    1.045   .     S
H977   N984    1.043   .     S
H978   N984    1.045   .     S
C993   O1047   1.300   .     A
C993   C1011   1.474   .     S
C993   O1050   1.301   .     A
C994   C1010   1.414   .     A
C994   Cl1020  1.771   .     S
C994   C1058   1.392   .     S
C995   C1010   1.413   .     A
C995   Cl1021  1.777   .     S
C995   C1080   1.392   .     S
C996   C1011   1.413   .     A
C996   Cl1022  1.777   .     S
C997   C1001   1.395   .     A
C997   Cl1019  1.774   .     S
C997   C1008   1.406   .     A
C998   C1002   1.395   .     A
C998   Cl1023  1.774   .     S
C998   C1009   1.406   .     A
C999   C1003   1.397   .     A
C999   Cl1024  1.774   .     S
C999   C1009   1.408   .     A
C1000  C1008   1.408   .     A
C1000  Cl1025  1.774   .     S
C1000  C1005   1.397   .     A
C1001  C1006   1.424   .     A
C1001  Cl1026  1.771   .     S
C1002  Cl1027  1.771   .     S
C1002  C1007   1.424   .     A
C1003  C1007   1.421   .     A
C1003  Cl1028  1.766   .     S
C1004  O1048   1.300   .     A
C1004  O1049   1.301   .     A
C1004  C1010   1.474   .     S
C1005  Cl1029  1.766   .     S
C1005  C1006   1.421   .     A
C1006  C1012   1.490   .     S
C1007  C1013   1.490   .     S
C1009  C450    1.509   1_556 S
C1011  C1018   1.414   .     A
C1012  O1051   1.301   .     A
C1012  O1054   1.308   .     A
C1013  O1052   1.301   .     A
C1013  O1053   1.308   .     A
C1014  N1043   1.438   .     S
C1014  N1042   1.390   .     A
C1015  N1044   1.438   .     S
C1015  N1041   1.390   .     A
C1015  C644    1.422   1_565 S
C1016  N1042   1.358   .     A
C1016  N1045   1.433   .     S
C1017  N1041   1.358   .     A
C1017  N1046   1.433   .     S
C1017  C642    1.422   1_565 S
C1018  Cl1030  1.771   .     S
Cu1031 O1051   1.974   .     S
Cu1031 O1047   1.979   .     S
Cu1031 N1041   2.020   .     S
Cu1031 O1053   1.982   .     S
Cu1031 O1049   1.988   .     S
Cu1031 Cu1032  2.688   .     S
Cu1032 O1052   1.974   .     S
Cu1032 O1054   1.982   .     S
Cu1032 N1042   2.020   .     S
Cu1032 O1050   1.988   .     S
Cu1032 O1048   1.979   .     S
H1033  N1043   1.028   .     S
H1034  N1043   1.043   .     S
H1035  N1044   1.028   .     S
H1036  N1044   1.043   .     S
H1037  N1045   1.043   .     S
H1038  N1045   1.045   .     S
H1039  N1046   1.043   .     S
H1040  N1046   1.045   .     S
C1055  O1109   1.300   .     A
C1055  C1073   1.474   .     S
C1055  O1112   1.301   .     A
C1056  C1072   1.414   .     A
C1056  Cl1082  1.771   .     S
C1056  C934    1.392   1_655 S
C1057  C1072   1.413   .     A
C1057  Cl1083  1.777   .     S
C1057  C956    1.392   1_655 S
C1058  C1073   1.413   .     A
C1058  Cl1084  1.777   .     S
C1059  C1063   1.395   .     A
C1059  Cl1081  1.774   .     S
C1059  C1070   1.406   .     A
C1060  C1064   1.395   .     A
C1060  Cl1085  1.774   .     S
C1060  C1071   1.406   .     A
C1061  C1065   1.397   .     A
C1061  Cl1086  1.774   .     S
C1061  C1071   1.408   .     A
C1062  C1070   1.408   .     A
C1062  Cl1087  1.774   .     S
C1062  C1067   1.397   .     A
C1063  C1068   1.424   .     A
C1063  Cl1088  1.771   .     S
C1064  Cl1089  1.771   .     S
C1064  C1069   1.424   .     A
C1065  C1069   1.421   .     A
C1065  Cl1090  1.766   .     S
C1066  O1110   1.300   .     A
C1066  O1111   1.301   .     A
C1066  C1072   1.474   .     S
C1067  Cl1091  1.766   .     S
C1067  C1068   1.421   .     A
C1068  C1074   1.490   .     S
C1069  C1075   1.490   .     S
C1071  C512    1.509   1_556 S
C1073  C1080   1.414   .     A
C1074  O1113   1.301   .     A
C1074  O1116   1.308   .     A
C1075  O1114   1.301   .     A
C1075  O1115   1.308   .     A
C1076  N1105   1.438   .     S
C1076  N1104   1.390   .     A
C1077  N1106   1.438   .     S
C1077  N1103   1.390   .     A
C1077  C706    1.422   1_565 S
C1078  N1104   1.358   .     A
C1078  N1107   1.433   .     S
C1079  N1103   1.358   .     A
C1079  N1108   1.433   .     S
C1079  C704    1.422   1_565 S
C1080  Cl1092  1.771   .     S
Cu1093 O1113   1.974   .     S
Cu1093 O1109   1.979   .     S
Cu1093 N1103   2.020   .     S
Cu1093 O1115   1.982   .     S
Cu1093 O1111   1.988   .     S
Cu1093 Cu1094  2.688   .     S
Cu1094 O1114   1.974   .     S
Cu1094 O1116   1.982   .     S
Cu1094 N1104   2.020   .     S
Cu1094 O1112   1.988   .     S
Cu1094 O1110   1.979   .     S
H1095  N1105   1.028   .     S
H1096  N1105   1.043   .     S
H1097  N1106   1.028   .     S
H1098  N1106   1.043   .     S
H1099  N1107   1.043   .     S
H1100  N1107   1.045   .     S
H1101  N1108   1.043   .     S
H1102  N1108   1.045   .     S
