data_str_m2_o10_o17_pcu_sym.159
_audit_creation_date              2020-01-03
_audit_creation_method            'Materials Studio'
_symmetry_space_group_name_H-M    'P1'
_symmetry_Int_Tables_number       1
_symmetry_cell_setting            triclinic
loop_
_symmetry_equiv_pos_as_xyz
  x,y,z
_cell_length_a                    29.8998
_cell_length_b                    26.1499
_cell_length_c                    22.3278
_cell_angle_alpha                 102.2756
_cell_angle_beta                  94.2556
_cell_angle_gamma                 92.3902
loop_
_atom_site_label
_atom_site_type_symbol
_atom_site_fract_x
_atom_site_fract_y
_atom_site_fract_z
_atom_site_U_iso_or_equiv
_atom_site_adp_type
_atom_site_occupancy
C1     C     0.24980   0.06702   0.15172   0.00000  Uiso   1.00
C2     C     0.25020   0.26632   0.18162   0.00000  Uiso   1.00
C3     C     0.01617   0.07255   0.11457   0.00000  Uiso   1.00
C4     C     0.48383   0.26078   0.21876   0.00000  Uiso   1.00
C5     C     0.25655   0.01271   0.14505   0.00000  Uiso   1.00
C6     C     0.24345   0.32063   0.18829   0.00000  Uiso   1.00
C7     C     0.16453   0.16603   0.16742   0.00000  Uiso   1.00
C8     C     0.33547   0.16731   0.16592   0.00000  Uiso   1.00
C9     C     0.40973   0.21308   0.19344   0.00000  Uiso   1.00
C10    C     0.09027   0.12025   0.13989   0.00000  Uiso   1.00
C11    C     0.38357   0.16809   0.16412   0.00000  Uiso   1.00
C12    C     0.11643   0.16525   0.16921   0.00000  Uiso   1.00
C13    C     0.40311   0.12338   0.13445   0.00000  Uiso   1.00
C14    C     0.09689   0.20995   0.19888   0.00000  Uiso   1.00
C15    C     0.44966   0.12216   0.13656   0.00000  Uiso   1.00
C16    C     0.05034   0.21118   0.19677   0.00000  Uiso   1.00
C17    C     0.47661   0.16749   0.16571   0.00000  Uiso   1.00
C18    C     0.02339   0.16584   0.16762   0.00000  Uiso   1.00
C19    C     0.45662   0.21438   0.19267   0.00000  Uiso   1.00
C20    C     0.04338   0.11896   0.14067   0.00000  Uiso   1.00
C21    C     0.46921   0.07564   0.11131   0.00000  Uiso   1.00
C22    C     0.03079   0.25769   0.22202   0.00000  Uiso   1.00
Cu23   Cu    0.25501   0.17246   0.22813   0.00000  Uiso   1.00
Cu24   Cu    0.24500   0.16087   0.10521   0.00000  Uiso   1.00
H25    H     0.39288   0.24646   0.21691   0.00000  Uiso   1.00
H26    H     0.10712   0.08688   0.11643   0.00000  Uiso   1.00
H27    H     0.38198   0.08899   0.11182   0.00000  Uiso   1.00
H28    H     0.11802   0.24434   0.22152   0.00000  Uiso   1.00
H29    H     0.44721   0.04155   0.09081   0.00000  Uiso   1.00
H30    H     0.05279   0.29178   0.24253   0.00000  Uiso   1.00
H31    H     0.21380   0.12768   0.31659   0.00000  Uiso   1.00
H32    H     0.28620   0.20565   0.01674   0.00000  Uiso   1.00
N33    N     0.23745   0.15214   0.01284   0.00000  Uiso   1.00
N34    N     0.26256   0.18119   0.32049   0.00000  Uiso   1.00
O35    O     0.25326   0.09538   0.20659   0.00000  Uiso   1.00
O36    O     0.24675   0.23796   0.12674   0.00000  Uiso   1.00
O37    O     0.24480   0.08559   0.10279   0.00000  Uiso   1.00
O38    O     0.25520   0.24774   0.23055   0.00000  Uiso   1.00
O39    O     0.18936   0.17155   0.21857   0.00000  Uiso   1.00
O40    O     0.31065   0.16179   0.11476   0.00000  Uiso   1.00
O41    O     0.18090   0.16176   0.11477   0.00000  Uiso   1.00
O42    O     0.31910   0.17157   0.21857   0.00000  Uiso   1.00
N43    N     0.03637   0.02350   0.09442   0.00000  Uiso   1.00
H44    H     0.06462   0.01840   0.12141   0.00000  Uiso   1.00
C45    C     0.00838   0.30865   0.07454   0.00000  Uiso   1.00
H46    H     0.02988   0.27527   0.06053   0.00000  Uiso   1.00
H47    H     0.48500   0.31046   0.03425   0.00000  Uiso   1.00
H48    H     0.48906   0.30116   0.11261   0.00000  Uiso   1.00
N49    N     0.46363   0.30984   0.23891   0.00000  Uiso   1.00
H50    H     0.43538   0.31493   0.21192   0.00000  Uiso   1.00
C51    C     0.49162   0.02468   0.25880   0.00000  Uiso   1.00
H52    H     0.47012   0.05807   0.27280   0.00000  Uiso   1.00
H53    H     0.01094   0.03217   0.22073   0.00000  Uiso   1.00
H54    H     0.01500   0.02287   0.29909   0.00000  Uiso   1.00
N55    N     0.28139   0.32293   0.09487   0.00000  Uiso   1.00
H56    H     0.26431   0.29478   0.06054   0.00000  Uiso   1.00
C57    C     0.32794   0.31414   0.11016   0.00000  Uiso   1.00
H58    H     0.34456   0.01572   0.14267   0.00000  Uiso   1.00
H59    H     0.33053   0.27948   0.13124   0.00000  Uiso   1.00
H60    H     0.34588   0.30695   0.06765   0.00000  Uiso   1.00
N61    N     0.21861   0.01041   0.23847   0.00000  Uiso   1.00
H62    H     0.23569   0.03855   0.27279   0.00000  Uiso   1.00
C63    C     0.17206   0.01919   0.22317   0.00000  Uiso   1.00
H64    H     0.15412   0.02639   0.26569   0.00000  Uiso   1.00
H65    H     0.15544   0.31762   0.19067   0.00000  Uiso   1.00
H66    H     0.16947   0.05385   0.20209   0.00000  Uiso   1.00
C67    C     0.74980   0.06702   0.15172   0.00000  Uiso   1.00
C68    C     0.75020   0.26632   0.18162   0.00000  Uiso   1.00
C69    C     0.51617   0.07255   0.11457   0.00000  Uiso   1.00
C70    C     0.98383   0.26078   0.21876   0.00000  Uiso   1.00
C71    C     0.75655   0.01271   0.14505   0.00000  Uiso   1.00
C72    C     0.74345   0.32063   0.18829   0.00000  Uiso   1.00
C73    C     0.66453   0.16603   0.16742   0.00000  Uiso   1.00
C74    C     0.83547   0.16731   0.16592   0.00000  Uiso   1.00
C75    C     0.90973   0.21308   0.19344   0.00000  Uiso   1.00
C76    C     0.59027   0.12025   0.13989   0.00000  Uiso   1.00
C77    C     0.88357   0.16809   0.16412   0.00000  Uiso   1.00
C78    C     0.61643   0.16525   0.16921   0.00000  Uiso   1.00
C79    C     0.90311   0.12338   0.13445   0.00000  Uiso   1.00
C80    C     0.59689   0.20995   0.19888   0.00000  Uiso   1.00
C81    C     0.94966   0.12216   0.13656   0.00000  Uiso   1.00
C82    C     0.55034   0.21118   0.19677   0.00000  Uiso   1.00
C83    C     0.97661   0.16749   0.16571   0.00000  Uiso   1.00
C84    C     0.52339   0.16584   0.16762   0.00000  Uiso   1.00
C85    C     0.95662   0.21438   0.19267   0.00000  Uiso   1.00
C86    C     0.54338   0.11896   0.14067   0.00000  Uiso   1.00
C87    C     0.96921   0.07564   0.11131   0.00000  Uiso   1.00
C88    C     0.53079   0.25769   0.22202   0.00000  Uiso   1.00
Cu89   Cu    0.75501   0.17246   0.22813   0.00000  Uiso   1.00
Cu90   Cu    0.74500   0.16087   0.10521   0.00000  Uiso   1.00
H91    H     0.89288   0.24646   0.21691   0.00000  Uiso   1.00
H92    H     0.60712   0.08688   0.11643   0.00000  Uiso   1.00
H93    H     0.88198   0.08899   0.11182   0.00000  Uiso   1.00
H94    H     0.61802   0.24434   0.22152   0.00000  Uiso   1.00
H95    H     0.94721   0.04155   0.09081   0.00000  Uiso   1.00
H96    H     0.55279   0.29178   0.24253   0.00000  Uiso   1.00
H97    H     0.71380   0.12768   0.31659   0.00000  Uiso   1.00
H98    H     0.78620   0.20565   0.01674   0.00000  Uiso   1.00
N99    N     0.73745   0.15214   0.01284   0.00000  Uiso   1.00
N100   N     0.76256   0.18119   0.32049   0.00000  Uiso   1.00
O101   O     0.75326   0.09538   0.20659   0.00000  Uiso   1.00
O102   O     0.74675   0.23796   0.12674   0.00000  Uiso   1.00
O103   O     0.74480   0.08559   0.10279   0.00000  Uiso   1.00
O104   O     0.75520   0.24774   0.23055   0.00000  Uiso   1.00
O105   O     0.68936   0.17155   0.21857   0.00000  Uiso   1.00
O106   O     0.81065   0.16179   0.11476   0.00000  Uiso   1.00
O107   O     0.68090   0.16176   0.11477   0.00000  Uiso   1.00
O108   O     0.81910   0.17157   0.21857   0.00000  Uiso   1.00
N109   N     0.53637   0.02350   0.09442   0.00000  Uiso   1.00
H110   H     0.56462   0.01840   0.12141   0.00000  Uiso   1.00
C111   C     0.50838   0.30865   0.07454   0.00000  Uiso   1.00
H112   H     0.52988   0.27527   0.06053   0.00000  Uiso   1.00
H113   H     0.98500   0.31046   0.03425   0.00000  Uiso   1.00
H114   H     0.98906   0.30116   0.11261   0.00000  Uiso   1.00
N115   N     0.96363   0.30984   0.23891   0.00000  Uiso   1.00
H116   H     0.93538   0.31493   0.21192   0.00000  Uiso   1.00
C117   C     0.99162   0.02468   0.25880   0.00000  Uiso   1.00
H118   H     0.97012   0.05807   0.27280   0.00000  Uiso   1.00
H119   H     0.51094   0.03217   0.22073   0.00000  Uiso   1.00
H120   H     0.51500   0.02287   0.29909   0.00000  Uiso   1.00
N121   N     0.78139   0.32293   0.09487   0.00000  Uiso   1.00
H122   H     0.76431   0.29478   0.06054   0.00000  Uiso   1.00
C123   C     0.82794   0.31414   0.11016   0.00000  Uiso   1.00
H124   H     0.84456   0.01572   0.14267   0.00000  Uiso   1.00
H125   H     0.83053   0.27948   0.13124   0.00000  Uiso   1.00
H126   H     0.84588   0.30695   0.06765   0.00000  Uiso   1.00
N127   N     0.71861   0.01041   0.23847   0.00000  Uiso   1.00
H128   H     0.73569   0.03855   0.27279   0.00000  Uiso   1.00
C129   C     0.67206   0.01919   0.22317   0.00000  Uiso   1.00
H130   H     0.65412   0.02639   0.26569   0.00000  Uiso   1.00
H131   H     0.65544   0.31762   0.19067   0.00000  Uiso   1.00
H132   H     0.66947   0.05385   0.20209   0.00000  Uiso   1.00
C133   C     0.24980   0.40035   0.15172   0.00000  Uiso   1.00
C134   C     0.25020   0.59965   0.18162   0.00000  Uiso   1.00
C135   C     0.01617   0.40588   0.11457   0.00000  Uiso   1.00
C136   C     0.48383   0.59412   0.21876   0.00000  Uiso   1.00
C137   C     0.25655   0.34604   0.14505   0.00000  Uiso   1.00
C138   C     0.24345   0.65396   0.18829   0.00000  Uiso   1.00
C139   C     0.16453   0.49936   0.16742   0.00000  Uiso   1.00
C140   C     0.33547   0.50064   0.16592   0.00000  Uiso   1.00
C141   C     0.40973   0.54641   0.19344   0.00000  Uiso   1.00
C142   C     0.09027   0.45359   0.13989   0.00000  Uiso   1.00
C143   C     0.38357   0.50142   0.16412   0.00000  Uiso   1.00
C144   C     0.11643   0.49858   0.16921   0.00000  Uiso   1.00
C145   C     0.40311   0.45672   0.13445   0.00000  Uiso   1.00
C146   C     0.09689   0.54328   0.19888   0.00000  Uiso   1.00
C147   C     0.44966   0.45549   0.13656   0.00000  Uiso   1.00
C148   C     0.05034   0.54451   0.19677   0.00000  Uiso   1.00
C149   C     0.47661   0.50082   0.16571   0.00000  Uiso   1.00
C150   C     0.02339   0.49918   0.16762   0.00000  Uiso   1.00
C151   C     0.45662   0.54771   0.19267   0.00000  Uiso   1.00
C152   C     0.04338   0.45229   0.14067   0.00000  Uiso   1.00
C153   C     0.46921   0.40897   0.11131   0.00000  Uiso   1.00
C154   C     0.03079   0.59103   0.22202   0.00000  Uiso   1.00
Cu155  Cu    0.25501   0.50579   0.22813   0.00000  Uiso   1.00
Cu156  Cu    0.24500   0.49421   0.10521   0.00000  Uiso   1.00
H157   H     0.39288   0.57979   0.21691   0.00000  Uiso   1.00
H158   H     0.10712   0.42021   0.11643   0.00000  Uiso   1.00
H159   H     0.38198   0.42232   0.11182   0.00000  Uiso   1.00
H160   H     0.11802   0.57768   0.22152   0.00000  Uiso   1.00
H161   H     0.44721   0.37488   0.09081   0.00000  Uiso   1.00
H162   H     0.05279   0.62512   0.24253   0.00000  Uiso   1.00
H163   H     0.21380   0.46102   0.31659   0.00000  Uiso   1.00
H164   H     0.28620   0.53898   0.01674   0.00000  Uiso   1.00
N165   N     0.23745   0.48547   0.01284   0.00000  Uiso   1.00
N166   N     0.26256   0.51453   0.32049   0.00000  Uiso   1.00
O167   O     0.25326   0.42871   0.20659   0.00000  Uiso   1.00
O168   O     0.24675   0.57129   0.12674   0.00000  Uiso   1.00
O169   O     0.24480   0.41892   0.10279   0.00000  Uiso   1.00
O170   O     0.25520   0.58108   0.23055   0.00000  Uiso   1.00
O171   O     0.18936   0.50488   0.21857   0.00000  Uiso   1.00
O172   O     0.31065   0.49512   0.11476   0.00000  Uiso   1.00
O173   O     0.18090   0.49510   0.11477   0.00000  Uiso   1.00
O174   O     0.31910   0.50490   0.21857   0.00000  Uiso   1.00
N175   N     0.03637   0.35683   0.09442   0.00000  Uiso   1.00
H176   H     0.06462   0.35173   0.12141   0.00000  Uiso   1.00
C177   C     0.00838   0.64199   0.07454   0.00000  Uiso   1.00
H178   H     0.02988   0.60860   0.06053   0.00000  Uiso   1.00
H179   H     0.48500   0.64379   0.03425   0.00000  Uiso   1.00
H180   H     0.48906   0.63450   0.11261   0.00000  Uiso   1.00
N181   N     0.46363   0.64317   0.23891   0.00000  Uiso   1.00
H182   H     0.43538   0.64827   0.21192   0.00000  Uiso   1.00
C183   C     0.49162   0.35801   0.25880   0.00000  Uiso   1.00
H184   H     0.47012   0.39140   0.27280   0.00000  Uiso   1.00
H185   H     0.01094   0.36550   0.22073   0.00000  Uiso   1.00
H186   H     0.01500   0.35621   0.29909   0.00000  Uiso   1.00
N187   N     0.28139   0.65626   0.09487   0.00000  Uiso   1.00
H188   H     0.26431   0.62812   0.06054   0.00000  Uiso   1.00
C189   C     0.32794   0.64747   0.11016   0.00000  Uiso   1.00
H190   H     0.34456   0.34905   0.14267   0.00000  Uiso   1.00
H191   H     0.33053   0.61282   0.13124   0.00000  Uiso   1.00
H192   H     0.34588   0.64028   0.06765   0.00000  Uiso   1.00
N193   N     0.21861   0.34374   0.23847   0.00000  Uiso   1.00
H194   H     0.23569   0.37188   0.27279   0.00000  Uiso   1.00
C195   C     0.17206   0.35253   0.22317   0.00000  Uiso   1.00
H196   H     0.15412   0.35972   0.26569   0.00000  Uiso   1.00
H197   H     0.15544   0.65095   0.19067   0.00000  Uiso   1.00
H198   H     0.16947   0.38718   0.20209   0.00000  Uiso   1.00
C199   C     0.74980   0.40035   0.15172   0.00000  Uiso   1.00
C200   C     0.75020   0.59965   0.18162   0.00000  Uiso   1.00
C201   C     0.51617   0.40588   0.11457   0.00000  Uiso   1.00
C202   C     0.98383   0.59412   0.21876   0.00000  Uiso   1.00
C203   C     0.75655   0.34604   0.14505   0.00000  Uiso   1.00
C204   C     0.74345   0.65396   0.18829   0.00000  Uiso   1.00
C205   C     0.66453   0.49936   0.16742   0.00000  Uiso   1.00
C206   C     0.83547   0.50064   0.16592   0.00000  Uiso   1.00
C207   C     0.90973   0.54641   0.19344   0.00000  Uiso   1.00
C208   C     0.59027   0.45359   0.13989   0.00000  Uiso   1.00
C209   C     0.88357   0.50142   0.16412   0.00000  Uiso   1.00
C210   C     0.61643   0.49858   0.16921   0.00000  Uiso   1.00
C211   C     0.90311   0.45672   0.13445   0.00000  Uiso   1.00
C212   C     0.59689   0.54328   0.19888   0.00000  Uiso   1.00
C213   C     0.94966   0.45549   0.13656   0.00000  Uiso   1.00
C214   C     0.55034   0.54451   0.19677   0.00000  Uiso   1.00
C215   C     0.97661   0.50082   0.16571   0.00000  Uiso   1.00
C216   C     0.52339   0.49918   0.16762   0.00000  Uiso   1.00
C217   C     0.95662   0.54771   0.19267   0.00000  Uiso   1.00
C218   C     0.54338   0.45229   0.14067   0.00000  Uiso   1.00
C219   C     0.96921   0.40897   0.11131   0.00000  Uiso   1.00
C220   C     0.53079   0.59103   0.22202   0.00000  Uiso   1.00
Cu221  Cu    0.75501   0.50579   0.22813   0.00000  Uiso   1.00
Cu222  Cu    0.74500   0.49421   0.10521   0.00000  Uiso   1.00
H223   H     0.89288   0.57979   0.21691   0.00000  Uiso   1.00
H224   H     0.60712   0.42021   0.11643   0.00000  Uiso   1.00
H225   H     0.88198   0.42232   0.11182   0.00000  Uiso   1.00
H226   H     0.61802   0.57768   0.22152   0.00000  Uiso   1.00
H227   H     0.94721   0.37488   0.09081   0.00000  Uiso   1.00
H228   H     0.55279   0.62512   0.24253   0.00000  Uiso   1.00
H229   H     0.71380   0.46102   0.31659   0.00000  Uiso   1.00
H230   H     0.78620   0.53898   0.01674   0.00000  Uiso   1.00
N231   N     0.73745   0.48547   0.01284   0.00000  Uiso   1.00
N232   N     0.76256   0.51453   0.32049   0.00000  Uiso   1.00
O233   O     0.75326   0.42871   0.20659   0.00000  Uiso   1.00
O234   O     0.74675   0.57129   0.12674   0.00000  Uiso   1.00
O235   O     0.74480   0.41892   0.10279   0.00000  Uiso   1.00
O236   O     0.75520   0.58108   0.23055   0.00000  Uiso   1.00
O237   O     0.68936   0.50488   0.21857   0.00000  Uiso   1.00
O238   O     0.81065   0.49512   0.11476   0.00000  Uiso   1.00
O239   O     0.68090   0.49510   0.11477   0.00000  Uiso   1.00
O240   O     0.81910   0.50490   0.21857   0.00000  Uiso   1.00
N241   N     0.53637   0.35683   0.09442   0.00000  Uiso   1.00
H242   H     0.56462   0.35173   0.12141   0.00000  Uiso   1.00
C243   C     0.50838   0.64199   0.07454   0.00000  Uiso   1.00
H244   H     0.52988   0.60860   0.06053   0.00000  Uiso   1.00
H245   H     0.98500   0.64379   0.03425   0.00000  Uiso   1.00
H246   H     0.98906   0.63450   0.11261   0.00000  Uiso   1.00
N247   N     0.96363   0.64317   0.23891   0.00000  Uiso   1.00
H248   H     0.93538   0.64827   0.21192   0.00000  Uiso   1.00
C249   C     0.99162   0.35801   0.25880   0.00000  Uiso   1.00
H250   H     0.97012   0.39140   0.27280   0.00000  Uiso   1.00
H251   H     0.51094   0.36550   0.22073   0.00000  Uiso   1.00
H252   H     0.51500   0.35621   0.29909   0.00000  Uiso   1.00
N253   N     0.78139   0.65626   0.09487   0.00000  Uiso   1.00
H254   H     0.76431   0.62812   0.06054   0.00000  Uiso   1.00
C255   C     0.82794   0.64747   0.11016   0.00000  Uiso   1.00
H256   H     0.84456   0.34905   0.14267   0.00000  Uiso   1.00
H257   H     0.83053   0.61282   0.13124   0.00000  Uiso   1.00
H258   H     0.84588   0.64028   0.06765   0.00000  Uiso   1.00
N259   N     0.71861   0.34374   0.23847   0.00000  Uiso   1.00
H260   H     0.73569   0.37188   0.27279   0.00000  Uiso   1.00
C261   C     0.67206   0.35253   0.22317   0.00000  Uiso   1.00
H262   H     0.65412   0.35972   0.26569   0.00000  Uiso   1.00
H263   H     0.65544   0.65095   0.19067   0.00000  Uiso   1.00
H264   H     0.66947   0.38718   0.20209   0.00000  Uiso   1.00
C265   C     0.24980   0.73368   0.15172   0.00000  Uiso   1.00
C266   C     0.25020   0.93298   0.18162   0.00000  Uiso   1.00
C267   C     0.01617   0.73922   0.11457   0.00000  Uiso   1.00
C268   C     0.48383   0.92745   0.21876   0.00000  Uiso   1.00
C269   C     0.25655   0.67937   0.14505   0.00000  Uiso   1.00
C270   C     0.24345   0.98729   0.18829   0.00000  Uiso   1.00
C271   C     0.16453   0.83270   0.16742   0.00000  Uiso   1.00
C272   C     0.33547   0.83397   0.16592   0.00000  Uiso   1.00
C273   C     0.40973   0.87975   0.19344   0.00000  Uiso   1.00
C274   C     0.09027   0.78692   0.13989   0.00000  Uiso   1.00
C275   C     0.38357   0.83475   0.16412   0.00000  Uiso   1.00
C276   C     0.11643   0.83191   0.16921   0.00000  Uiso   1.00
C277   C     0.40311   0.79005   0.13445   0.00000  Uiso   1.00
C278   C     0.09689   0.87662   0.19888   0.00000  Uiso   1.00
C279   C     0.44966   0.78882   0.13656   0.00000  Uiso   1.00
C280   C     0.05034   0.87784   0.19677   0.00000  Uiso   1.00
C281   C     0.47661   0.83416   0.16571   0.00000  Uiso   1.00
C282   C     0.02339   0.83251   0.16762   0.00000  Uiso   1.00
C283   C     0.45662   0.88104   0.19267   0.00000  Uiso   1.00
C284   C     0.04338   0.78562   0.14067   0.00000  Uiso   1.00
C285   C     0.46921   0.74231   0.11131   0.00000  Uiso   1.00
C286   C     0.03079   0.92436   0.22202   0.00000  Uiso   1.00
Cu287  Cu    0.25501   0.83913   0.22813   0.00000  Uiso   1.00
Cu288  Cu    0.24500   0.82754   0.10521   0.00000  Uiso   1.00
H289   H     0.39288   0.91312   0.21691   0.00000  Uiso   1.00
H290   H     0.10712   0.75354   0.11643   0.00000  Uiso   1.00
H291   H     0.38198   0.75566   0.11182   0.00000  Uiso   1.00
H292   H     0.11802   0.91101   0.22152   0.00000  Uiso   1.00
H293   H     0.44721   0.70822   0.09081   0.00000  Uiso   1.00
H294   H     0.05279   0.95845   0.24253   0.00000  Uiso   1.00
H295   H     0.21380   0.79435   0.31659   0.00000  Uiso   1.00
H296   H     0.28620   0.87232   0.01674   0.00000  Uiso   1.00
N297   N     0.23745   0.81881   0.01284   0.00000  Uiso   1.00
N298   N     0.26256   0.84786   0.32049   0.00000  Uiso   1.00
O299   O     0.25326   0.76204   0.20659   0.00000  Uiso   1.00
O300   O     0.24675   0.90462   0.12674   0.00000  Uiso   1.00
O301   O     0.24480   0.75226   0.10279   0.00000  Uiso   1.00
O302   O     0.25520   0.91441   0.23055   0.00000  Uiso   1.00
O303   O     0.18936   0.83821   0.21857   0.00000  Uiso   1.00
O304   O     0.31065   0.82845   0.11476   0.00000  Uiso   1.00
O305   O     0.18090   0.82843   0.11477   0.00000  Uiso   1.00
O306   O     0.31910   0.83824   0.21857   0.00000  Uiso   1.00
N307   N     0.03637   0.69016   0.09442   0.00000  Uiso   1.00
H308   H     0.06462   0.68507   0.12141   0.00000  Uiso   1.00
C309   C     0.00838   0.97532   0.07454   0.00000  Uiso   1.00
H310   H     0.02988   0.94193   0.06053   0.00000  Uiso   1.00
H311   H     0.48500   0.97713   0.03425   0.00000  Uiso   1.00
H312   H     0.48906   0.96783   0.11261   0.00000  Uiso   1.00
N313   N     0.46363   0.97650   0.23891   0.00000  Uiso   1.00
H314   H     0.43538   0.98160   0.21192   0.00000  Uiso   1.00
C315   C     0.49162   0.69135   0.25880   0.00000  Uiso   1.00
H316   H     0.47012   0.72473   0.27280   0.00000  Uiso   1.00
H317   H     0.01094   0.69884   0.22073   0.00000  Uiso   1.00
H318   H     0.01500   0.68954   0.29909   0.00000  Uiso   1.00
N319   N     0.28139   0.98959   0.09487   0.00000  Uiso   1.00
H320   H     0.26431   0.96145   0.06054   0.00000  Uiso   1.00
C321   C     0.32794   0.98081   0.11016   0.00000  Uiso   1.00
H322   H     0.34456   0.68238   0.14267   0.00000  Uiso   1.00
H323   H     0.33053   0.94615   0.13124   0.00000  Uiso   1.00
H324   H     0.34588   0.97361   0.06765   0.00000  Uiso   1.00
N325   N     0.21861   0.67708   0.23847   0.00000  Uiso   1.00
H326   H     0.23569   0.70522   0.27279   0.00000  Uiso   1.00
C327   C     0.17206   0.68586   0.22317   0.00000  Uiso   1.00
H328   H     0.15412   0.69306   0.26569   0.00000  Uiso   1.00
H329   H     0.15544   0.98428   0.19067   0.00000  Uiso   1.00
H330   H     0.16947   0.72052   0.20209   0.00000  Uiso   1.00
C331   C     0.74980   0.73368   0.15172   0.00000  Uiso   1.00
C332   C     0.75020   0.93298   0.18162   0.00000  Uiso   1.00
C333   C     0.51617   0.73922   0.11457   0.00000  Uiso   1.00
C334   C     0.98383   0.92745   0.21876   0.00000  Uiso   1.00
C335   C     0.75655   0.67937   0.14505   0.00000  Uiso   1.00
C336   C     0.74345   0.98729   0.18829   0.00000  Uiso   1.00
C337   C     0.66453   0.83270   0.16742   0.00000  Uiso   1.00
C338   C     0.83547   0.83397   0.16592   0.00000  Uiso   1.00
C339   C     0.90973   0.87975   0.19344   0.00000  Uiso   1.00
C340   C     0.59027   0.78692   0.13989   0.00000  Uiso   1.00
C341   C     0.88357   0.83475   0.16412   0.00000  Uiso   1.00
C342   C     0.61643   0.83191   0.16921   0.00000  Uiso   1.00
C343   C     0.90311   0.79005   0.13445   0.00000  Uiso   1.00
C344   C     0.59689   0.87662   0.19888   0.00000  Uiso   1.00
C345   C     0.94966   0.78882   0.13656   0.00000  Uiso   1.00
C346   C     0.55034   0.87784   0.19677   0.00000  Uiso   1.00
C347   C     0.97661   0.83416   0.16571   0.00000  Uiso   1.00
C348   C     0.52339   0.83251   0.16762   0.00000  Uiso   1.00
C349   C     0.95662   0.88104   0.19267   0.00000  Uiso   1.00
C350   C     0.54338   0.78562   0.14067   0.00000  Uiso   1.00
C351   C     0.96921   0.74231   0.11131   0.00000  Uiso   1.00
C352   C     0.53079   0.92436   0.22202   0.00000  Uiso   1.00
Cu353  Cu    0.75501   0.83913   0.22813   0.00000  Uiso   1.00
Cu354  Cu    0.74500   0.82754   0.10521   0.00000  Uiso   1.00
H355   H     0.89288   0.91312   0.21691   0.00000  Uiso   1.00
H356   H     0.60712   0.75354   0.11643   0.00000  Uiso   1.00
H357   H     0.88198   0.75566   0.11182   0.00000  Uiso   1.00
H358   H     0.61802   0.91101   0.22152   0.00000  Uiso   1.00
H359   H     0.94721   0.70822   0.09081   0.00000  Uiso   1.00
H360   H     0.55279   0.95845   0.24253   0.00000  Uiso   1.00
H361   H     0.71380   0.79435   0.31659   0.00000  Uiso   1.00
H362   H     0.78620   0.87232   0.01674   0.00000  Uiso   1.00
N363   N     0.73745   0.81881   0.01284   0.00000  Uiso   1.00
N364   N     0.76256   0.84786   0.32049   0.00000  Uiso   1.00
O365   O     0.75326   0.76204   0.20659   0.00000  Uiso   1.00
O366   O     0.74675   0.90462   0.12674   0.00000  Uiso   1.00
O367   O     0.74480   0.75226   0.10279   0.00000  Uiso   1.00
O368   O     0.75520   0.91441   0.23055   0.00000  Uiso   1.00
O369   O     0.68936   0.83821   0.21857   0.00000  Uiso   1.00
O370   O     0.81065   0.82845   0.11476   0.00000  Uiso   1.00
O371   O     0.68090   0.82843   0.11477   0.00000  Uiso   1.00
O372   O     0.81910   0.83824   0.21857   0.00000  Uiso   1.00
N373   N     0.53637   0.69016   0.09442   0.00000  Uiso   1.00
H374   H     0.56462   0.68507   0.12141   0.00000  Uiso   1.00
C375   C     0.50838   0.97532   0.07454   0.00000  Uiso   1.00
H376   H     0.52988   0.94193   0.06053   0.00000  Uiso   1.00
H377   H     0.98500   0.97713   0.03425   0.00000  Uiso   1.00
H378   H     0.98906   0.96783   0.11261   0.00000  Uiso   1.00
N379   N     0.96363   0.97650   0.23891   0.00000  Uiso   1.00
H380   H     0.93538   0.98160   0.21192   0.00000  Uiso   1.00
C381   C     0.99162   0.69135   0.25880   0.00000  Uiso   1.00
H382   H     0.97012   0.72473   0.27280   0.00000  Uiso   1.00
H383   H     0.51094   0.69884   0.22073   0.00000  Uiso   1.00
H384   H     0.51500   0.68954   0.29909   0.00000  Uiso   1.00
N385   N     0.78139   0.98959   0.09487   0.00000  Uiso   1.00
H386   H     0.76431   0.96145   0.06054   0.00000  Uiso   1.00
C387   C     0.82794   0.98081   0.11016   0.00000  Uiso   1.00
H388   H     0.84456   0.68238   0.14267   0.00000  Uiso   1.00
H389   H     0.83053   0.94615   0.13124   0.00000  Uiso   1.00
H390   H     0.84588   0.97361   0.06765   0.00000  Uiso   1.00
N391   N     0.71861   0.67708   0.23847   0.00000  Uiso   1.00
H392   H     0.73569   0.70522   0.27279   0.00000  Uiso   1.00
C393   C     0.67206   0.68586   0.22317   0.00000  Uiso   1.00
H394   H     0.65412   0.69306   0.26569   0.00000  Uiso   1.00
H395   H     0.65544   0.98428   0.19067   0.00000  Uiso   1.00
H396   H     0.66947   0.72052   0.20209   0.00000  Uiso   1.00
C397   C     0.24980   0.06702   0.48505   0.00000  Uiso   1.00
C398   C     0.25020   0.26632   0.51495   0.00000  Uiso   1.00
C399   C     0.01617   0.07255   0.44790   0.00000  Uiso   1.00
C400   C     0.48383   0.26078   0.55210   0.00000  Uiso   1.00
C401   C     0.25655   0.01271   0.47838   0.00000  Uiso   1.00
C402   C     0.24345   0.32063   0.52162   0.00000  Uiso   1.00
C403   C     0.16453   0.16603   0.50075   0.00000  Uiso   1.00
C404   C     0.33547   0.16731   0.49925   0.00000  Uiso   1.00
C405   C     0.40973   0.21308   0.52677   0.00000  Uiso   1.00
C406   C     0.09027   0.12025   0.47323   0.00000  Uiso   1.00
C407   C     0.38357   0.16809   0.49746   0.00000  Uiso   1.00
C408   C     0.11643   0.16525   0.50254   0.00000  Uiso   1.00
C409   C     0.40311   0.12338   0.46779   0.00000  Uiso   1.00
C410   C     0.09689   0.20995   0.53221   0.00000  Uiso   1.00
C411   C     0.44966   0.12216   0.46989   0.00000  Uiso   1.00
C412   C     0.05034   0.21118   0.53011   0.00000  Uiso   1.00
C413   C     0.47661   0.16749   0.49904   0.00000  Uiso   1.00
C414   C     0.02339   0.16584   0.50096   0.00000  Uiso   1.00
C415   C     0.45662   0.21438   0.52600   0.00000  Uiso   1.00
C416   C     0.04338   0.11896   0.47400   0.00000  Uiso   1.00
C417   C     0.46921   0.07564   0.44464   0.00000  Uiso   1.00
C418   C     0.03079   0.25769   0.55536   0.00000  Uiso   1.00
Cu419  Cu    0.25501   0.17246   0.56146   0.00000  Uiso   1.00
Cu420  Cu    0.24500   0.16087   0.43854   0.00000  Uiso   1.00
H421   H     0.39288   0.24646   0.55024   0.00000  Uiso   1.00
H422   H     0.10712   0.08688   0.44976   0.00000  Uiso   1.00
H423   H     0.38198   0.08899   0.44515   0.00000  Uiso   1.00
H424   H     0.11802   0.24434   0.55485   0.00000  Uiso   1.00
H425   H     0.44721   0.04155   0.42414   0.00000  Uiso   1.00
H426   H     0.05279   0.29178   0.57586   0.00000  Uiso   1.00
H427   H     0.21380   0.12768   0.64993   0.00000  Uiso   1.00
H428   H     0.28620   0.20565   0.35007   0.00000  Uiso   1.00
N429   N     0.23745   0.15214   0.34617   0.00000  Uiso   1.00
N430   N     0.26256   0.18119   0.65383   0.00000  Uiso   1.00
O431   O     0.25326   0.09538   0.53992   0.00000  Uiso   1.00
O432   O     0.24675   0.23796   0.46008   0.00000  Uiso   1.00
O433   O     0.24480   0.08559   0.43612   0.00000  Uiso   1.00
O434   O     0.25520   0.24774   0.56388   0.00000  Uiso   1.00
O435   O     0.18936   0.17155   0.55191   0.00000  Uiso   1.00
O436   O     0.31065   0.16179   0.44809   0.00000  Uiso   1.00
O437   O     0.18090   0.16176   0.44810   0.00000  Uiso   1.00
O438   O     0.31910   0.17157   0.55190   0.00000  Uiso   1.00
N439   N     0.03637   0.02350   0.42776   0.00000  Uiso   1.00
H440   H     0.06462   0.01840   0.45475   0.00000  Uiso   1.00
C441   C     0.00838   0.30865   0.40787   0.00000  Uiso   1.00
H442   H     0.02988   0.27527   0.39386   0.00000  Uiso   1.00
H443   H     0.48500   0.31046   0.36758   0.00000  Uiso   1.00
H444   H     0.48906   0.30116   0.44594   0.00000  Uiso   1.00
N445   N     0.46363   0.30984   0.57224   0.00000  Uiso   1.00
H446   H     0.43538   0.31493   0.54525   0.00000  Uiso   1.00
C447   C     0.49162   0.02468   0.59213   0.00000  Uiso   1.00
H448   H     0.47012   0.05807   0.60614   0.00000  Uiso   1.00
H449   H     0.01094   0.03217   0.55406   0.00000  Uiso   1.00
H450   H     0.01500   0.02287   0.63242   0.00000  Uiso   1.00
N451   N     0.28139   0.32293   0.42820   0.00000  Uiso   1.00
H452   H     0.26431   0.29478   0.39387   0.00000  Uiso   1.00
C453   C     0.32794   0.31414   0.44350   0.00000  Uiso   1.00
H454   H     0.34456   0.01572   0.47600   0.00000  Uiso   1.00
H455   H     0.33053   0.27948   0.46457   0.00000  Uiso   1.00
H456   H     0.34588   0.30695   0.40098   0.00000  Uiso   1.00
N457   N     0.21861   0.01041   0.57180   0.00000  Uiso   1.00
H458   H     0.23569   0.03855   0.60613   0.00000  Uiso   1.00
C459   C     0.17206   0.01919   0.55650   0.00000  Uiso   1.00
H460   H     0.15412   0.02639   0.59902   0.00000  Uiso   1.00
H461   H     0.15544   0.31762   0.52400   0.00000  Uiso   1.00
H462   H     0.16947   0.05385   0.53542   0.00000  Uiso   1.00
C463   C     0.74980   0.06702   0.48505   0.00000  Uiso   1.00
C464   C     0.75020   0.26632   0.51495   0.00000  Uiso   1.00
C465   C     0.51617   0.07255   0.44790   0.00000  Uiso   1.00
C466   C     0.98383   0.26078   0.55210   0.00000  Uiso   1.00
C467   C     0.75655   0.01271   0.47838   0.00000  Uiso   1.00
C468   C     0.74345   0.32063   0.52162   0.00000  Uiso   1.00
C469   C     0.66453   0.16603   0.50075   0.00000  Uiso   1.00
C470   C     0.83547   0.16731   0.49925   0.00000  Uiso   1.00
C471   C     0.90973   0.21308   0.52677   0.00000  Uiso   1.00
C472   C     0.59027   0.12025   0.47323   0.00000  Uiso   1.00
C473   C     0.88357   0.16809   0.49746   0.00000  Uiso   1.00
C474   C     0.61643   0.16525   0.50254   0.00000  Uiso   1.00
C475   C     0.90311   0.12338   0.46779   0.00000  Uiso   1.00
C476   C     0.59689   0.20995   0.53221   0.00000  Uiso   1.00
C477   C     0.94966   0.12216   0.46989   0.00000  Uiso   1.00
C478   C     0.55034   0.21118   0.53011   0.00000  Uiso   1.00
C479   C     0.97661   0.16749   0.49904   0.00000  Uiso   1.00
C480   C     0.52339   0.16584   0.50096   0.00000  Uiso   1.00
C481   C     0.95662   0.21438   0.52600   0.00000  Uiso   1.00
C482   C     0.54338   0.11896   0.47400   0.00000  Uiso   1.00
C483   C     0.96921   0.07564   0.44464   0.00000  Uiso   1.00
C484   C     0.53079   0.25769   0.55536   0.00000  Uiso   1.00
Cu485  Cu    0.75501   0.17246   0.56146   0.00000  Uiso   1.00
Cu486  Cu    0.74500   0.16087   0.43854   0.00000  Uiso   1.00
H487   H     0.89288   0.24646   0.55024   0.00000  Uiso   1.00
H488   H     0.60712   0.08688   0.44976   0.00000  Uiso   1.00
H489   H     0.88198   0.08899   0.44515   0.00000  Uiso   1.00
H490   H     0.61802   0.24434   0.55485   0.00000  Uiso   1.00
H491   H     0.94721   0.04155   0.42414   0.00000  Uiso   1.00
H492   H     0.55279   0.29178   0.57586   0.00000  Uiso   1.00
H493   H     0.71380   0.12768   0.64993   0.00000  Uiso   1.00
H494   H     0.78620   0.20565   0.35007   0.00000  Uiso   1.00
N495   N     0.73745   0.15214   0.34617   0.00000  Uiso   1.00
N496   N     0.76256   0.18119   0.65383   0.00000  Uiso   1.00
O497   O     0.75326   0.09538   0.53992   0.00000  Uiso   1.00
O498   O     0.74675   0.23796   0.46008   0.00000  Uiso   1.00
O499   O     0.74480   0.08559   0.43612   0.00000  Uiso   1.00
O500   O     0.75520   0.24774   0.56388   0.00000  Uiso   1.00
O501   O     0.68936   0.17155   0.55191   0.00000  Uiso   1.00
O502   O     0.81065   0.16179   0.44809   0.00000  Uiso   1.00
O503   O     0.68090   0.16176   0.44810   0.00000  Uiso   1.00
O504   O     0.81910   0.17157   0.55190   0.00000  Uiso   1.00
N505   N     0.53637   0.02350   0.42776   0.00000  Uiso   1.00
H506   H     0.56462   0.01840   0.45475   0.00000  Uiso   1.00
C507   C     0.50838   0.30865   0.40787   0.00000  Uiso   1.00
H508   H     0.52988   0.27527   0.39386   0.00000  Uiso   1.00
H509   H     0.98500   0.31046   0.36758   0.00000  Uiso   1.00
H510   H     0.98906   0.30116   0.44594   0.00000  Uiso   1.00
N511   N     0.96363   0.30984   0.57224   0.00000  Uiso   1.00
H512   H     0.93538   0.31493   0.54525   0.00000  Uiso   1.00
C513   C     0.99162   0.02468   0.59213   0.00000  Uiso   1.00
H514   H     0.97012   0.05807   0.60614   0.00000  Uiso   1.00
H515   H     0.51094   0.03217   0.55406   0.00000  Uiso   1.00
H516   H     0.51500   0.02287   0.63242   0.00000  Uiso   1.00
N517   N     0.78139   0.32293   0.42820   0.00000  Uiso   1.00
H518   H     0.76431   0.29478   0.39387   0.00000  Uiso   1.00
C519   C     0.82794   0.31414   0.44350   0.00000  Uiso   1.00
H520   H     0.84456   0.01572   0.47600   0.00000  Uiso   1.00
H521   H     0.83053   0.27948   0.46457   0.00000  Uiso   1.00
H522   H     0.84588   0.30695   0.40098   0.00000  Uiso   1.00
N523   N     0.71861   0.01041   0.57180   0.00000  Uiso   1.00
H524   H     0.73569   0.03855   0.60613   0.00000  Uiso   1.00
C525   C     0.67206   0.01919   0.55650   0.00000  Uiso   1.00
H526   H     0.65412   0.02639   0.59902   0.00000  Uiso   1.00
H527   H     0.65544   0.31762   0.52400   0.00000  Uiso   1.00
H528   H     0.66947   0.05385   0.53542   0.00000  Uiso   1.00
C529   C     0.24980   0.40035   0.48505   0.00000  Uiso   1.00
C530   C     0.25020   0.59965   0.51495   0.00000  Uiso   1.00
C531   C     0.01617   0.40588   0.44790   0.00000  Uiso   1.00
C532   C     0.48383   0.59412   0.55210   0.00000  Uiso   1.00
C533   C     0.25655   0.34604   0.47838   0.00000  Uiso   1.00
C534   C     0.24345   0.65396   0.52162   0.00000  Uiso   1.00
C535   C     0.16453   0.49936   0.50075   0.00000  Uiso   1.00
C536   C     0.33547   0.50064   0.49925   0.00000  Uiso   1.00
C537   C     0.40973   0.54641   0.52677   0.00000  Uiso   1.00
C538   C     0.09027   0.45359   0.47323   0.00000  Uiso   1.00
C539   C     0.38357   0.50142   0.49746   0.00000  Uiso   1.00
C540   C     0.11643   0.49858   0.50254   0.00000  Uiso   1.00
C541   C     0.40311   0.45672   0.46779   0.00000  Uiso   1.00
C542   C     0.09689   0.54328   0.53221   0.00000  Uiso   1.00
C543   C     0.44966   0.45549   0.46989   0.00000  Uiso   1.00
C544   C     0.05034   0.54451   0.53011   0.00000  Uiso   1.00
C545   C     0.47661   0.50082   0.49904   0.00000  Uiso   1.00
C546   C     0.02339   0.49918   0.50096   0.00000  Uiso   1.00
C547   C     0.45662   0.54771   0.52600   0.00000  Uiso   1.00
C548   C     0.04338   0.45229   0.47400   0.00000  Uiso   1.00
C549   C     0.46921   0.40897   0.44464   0.00000  Uiso   1.00
C550   C     0.03079   0.59103   0.55536   0.00000  Uiso   1.00
Cu551  Cu    0.25501   0.50579   0.56146   0.00000  Uiso   1.00
Cu552  Cu    0.24500   0.49421   0.43854   0.00000  Uiso   1.00
H553   H     0.39288   0.57979   0.55024   0.00000  Uiso   1.00
H554   H     0.10712   0.42021   0.44976   0.00000  Uiso   1.00
H555   H     0.38198   0.42232   0.44515   0.00000  Uiso   1.00
H556   H     0.11802   0.57768   0.55485   0.00000  Uiso   1.00
H557   H     0.44721   0.37488   0.42414   0.00000  Uiso   1.00
H558   H     0.05279   0.62512   0.57586   0.00000  Uiso   1.00
H559   H     0.21380   0.46102   0.64993   0.00000  Uiso   1.00
H560   H     0.28620   0.53898   0.35007   0.00000  Uiso   1.00
N561   N     0.23745   0.48547   0.34617   0.00000  Uiso   1.00
N562   N     0.26256   0.51453   0.65383   0.00000  Uiso   1.00
O563   O     0.25326   0.42871   0.53992   0.00000  Uiso   1.00
O564   O     0.24675   0.57129   0.46008   0.00000  Uiso   1.00
O565   O     0.24480   0.41892   0.43612   0.00000  Uiso   1.00
O566   O     0.25520   0.58108   0.56388   0.00000  Uiso   1.00
O567   O     0.18936   0.50488   0.55191   0.00000  Uiso   1.00
O568   O     0.31065   0.49512   0.44809   0.00000  Uiso   1.00
O569   O     0.18090   0.49510   0.44810   0.00000  Uiso   1.00
O570   O     0.31910   0.50490   0.55190   0.00000  Uiso   1.00
N571   N     0.03637   0.35683   0.42776   0.00000  Uiso   1.00
H572   H     0.06462   0.35173   0.45475   0.00000  Uiso   1.00
C573   C     0.00838   0.64199   0.40787   0.00000  Uiso   1.00
H574   H     0.02988   0.60860   0.39386   0.00000  Uiso   1.00
H575   H     0.48500   0.64379   0.36758   0.00000  Uiso   1.00
H576   H     0.48906   0.63450   0.44594   0.00000  Uiso   1.00
N577   N     0.46363   0.64317   0.57224   0.00000  Uiso   1.00
H578   H     0.43538   0.64827   0.54525   0.00000  Uiso   1.00
C579   C     0.49162   0.35801   0.59213   0.00000  Uiso   1.00
H580   H     0.47012   0.39140   0.60614   0.00000  Uiso   1.00
H581   H     0.01094   0.36550   0.55406   0.00000  Uiso   1.00
H582   H     0.01500   0.35621   0.63242   0.00000  Uiso   1.00
N583   N     0.28139   0.65626   0.42820   0.00000  Uiso   1.00
H584   H     0.26431   0.62812   0.39387   0.00000  Uiso   1.00
C585   C     0.32794   0.64747   0.44350   0.00000  Uiso   1.00
H586   H     0.34456   0.34905   0.47600   0.00000  Uiso   1.00
H587   H     0.33053   0.61282   0.46457   0.00000  Uiso   1.00
H588   H     0.34588   0.64028   0.40098   0.00000  Uiso   1.00
N589   N     0.21861   0.34374   0.57180   0.00000  Uiso   1.00
H590   H     0.23569   0.37188   0.60613   0.00000  Uiso   1.00
C591   C     0.17206   0.35253   0.55650   0.00000  Uiso   1.00
H592   H     0.15412   0.35972   0.59902   0.00000  Uiso   1.00
H593   H     0.15544   0.65095   0.52400   0.00000  Uiso   1.00
H594   H     0.16947   0.38718   0.53542   0.00000  Uiso   1.00
C595   C     0.74980   0.40035   0.48505   0.00000  Uiso   1.00
C596   C     0.75020   0.59965   0.51495   0.00000  Uiso   1.00
C597   C     0.51617   0.40588   0.44790   0.00000  Uiso   1.00
C598   C     0.98383   0.59412   0.55210   0.00000  Uiso   1.00
C599   C     0.75655   0.34604   0.47838   0.00000  Uiso   1.00
C600   C     0.74345   0.65396   0.52162   0.00000  Uiso   1.00
C601   C     0.66453   0.49936   0.50075   0.00000  Uiso   1.00
C602   C     0.83547   0.50064   0.49925   0.00000  Uiso   1.00
C603   C     0.90973   0.54641   0.52677   0.00000  Uiso   1.00
C604   C     0.59027   0.45359   0.47323   0.00000  Uiso   1.00
C605   C     0.88357   0.50142   0.49746   0.00000  Uiso   1.00
C606   C     0.61643   0.49858   0.50254   0.00000  Uiso   1.00
C607   C     0.90311   0.45672   0.46779   0.00000  Uiso   1.00
C608   C     0.59689   0.54328   0.53221   0.00000  Uiso   1.00
C609   C     0.94966   0.45549   0.46989   0.00000  Uiso   1.00
C610   C     0.55034   0.54451   0.53011   0.00000  Uiso   1.00
C611   C     0.97661   0.50082   0.49904   0.00000  Uiso   1.00
C612   C     0.52339   0.49918   0.50096   0.00000  Uiso   1.00
C613   C     0.95662   0.54771   0.52600   0.00000  Uiso   1.00
C614   C     0.54338   0.45229   0.47400   0.00000  Uiso   1.00
C615   C     0.96921   0.40897   0.44464   0.00000  Uiso   1.00
C616   C     0.53079   0.59103   0.55536   0.00000  Uiso   1.00
Cu617  Cu    0.75501   0.50579   0.56146   0.00000  Uiso   1.00
Cu618  Cu    0.74500   0.49421   0.43854   0.00000  Uiso   1.00
H619   H     0.89288   0.57979   0.55024   0.00000  Uiso   1.00
H620   H     0.60712   0.42021   0.44976   0.00000  Uiso   1.00
H621   H     0.88198   0.42232   0.44515   0.00000  Uiso   1.00
H622   H     0.61802   0.57768   0.55485   0.00000  Uiso   1.00
H623   H     0.94721   0.37488   0.42414   0.00000  Uiso   1.00
H624   H     0.55279   0.62512   0.57586   0.00000  Uiso   1.00
H625   H     0.71380   0.46102   0.64993   0.00000  Uiso   1.00
H626   H     0.78620   0.53898   0.35007   0.00000  Uiso   1.00
N627   N     0.73745   0.48547   0.34617   0.00000  Uiso   1.00
N628   N     0.76256   0.51453   0.65383   0.00000  Uiso   1.00
O629   O     0.75326   0.42871   0.53992   0.00000  Uiso   1.00
O630   O     0.74675   0.57129   0.46008   0.00000  Uiso   1.00
O631   O     0.74480   0.41892   0.43612   0.00000  Uiso   1.00
O632   O     0.75520   0.58108   0.56388   0.00000  Uiso   1.00
O633   O     0.68936   0.50488   0.55191   0.00000  Uiso   1.00
O634   O     0.81065   0.49512   0.44809   0.00000  Uiso   1.00
O635   O     0.68090   0.49510   0.44810   0.00000  Uiso   1.00
O636   O     0.81910   0.50490   0.55190   0.00000  Uiso   1.00
N637   N     0.53637   0.35683   0.42776   0.00000  Uiso   1.00
H638   H     0.56462   0.35173   0.45475   0.00000  Uiso   1.00
C639   C     0.50838   0.64199   0.40787   0.00000  Uiso   1.00
H640   H     0.52988   0.60860   0.39386   0.00000  Uiso   1.00
H641   H     0.98500   0.64379   0.36758   0.00000  Uiso   1.00
H642   H     0.98906   0.63450   0.44594   0.00000  Uiso   1.00
N643   N     0.96363   0.64317   0.57224   0.00000  Uiso   1.00
H644   H     0.93538   0.64827   0.54525   0.00000  Uiso   1.00
C645   C     0.99162   0.35801   0.59213   0.00000  Uiso   1.00
H646   H     0.97012   0.39140   0.60614   0.00000  Uiso   1.00
H647   H     0.51094   0.36550   0.55406   0.00000  Uiso   1.00
H648   H     0.51500   0.35621   0.63242   0.00000  Uiso   1.00
N649   N     0.78139   0.65626   0.42820   0.00000  Uiso   1.00
H650   H     0.76431   0.62812   0.39387   0.00000  Uiso   1.00
C651   C     0.82794   0.64747   0.44350   0.00000  Uiso   1.00
H652   H     0.84456   0.34905   0.47600   0.00000  Uiso   1.00
H653   H     0.83053   0.61282   0.46457   0.00000  Uiso   1.00
H654   H     0.84588   0.64028   0.40098   0.00000  Uiso   1.00
N655   N     0.71861   0.34374   0.57180   0.00000  Uiso   1.00
H656   H     0.73569   0.37188   0.60613   0.00000  Uiso   1.00
C657   C     0.67206   0.35253   0.55650   0.00000  Uiso   1.00
H658   H     0.65412   0.35972   0.59902   0.00000  Uiso   1.00
H659   H     0.65544   0.65095   0.52400   0.00000  Uiso   1.00
H660   H     0.66947   0.38718   0.53542   0.00000  Uiso   1.00
C661   C     0.24980   0.73368   0.48505   0.00000  Uiso   1.00
C662   C     0.25020   0.93298   0.51495   0.00000  Uiso   1.00
C663   C     0.01617   0.73922   0.44790   0.00000  Uiso   1.00
C664   C     0.48383   0.92745   0.55210   0.00000  Uiso   1.00
C665   C     0.25655   0.67937   0.47838   0.00000  Uiso   1.00
C666   C     0.24345   0.98729   0.52162   0.00000  Uiso   1.00
C667   C     0.16453   0.83270   0.50075   0.00000  Uiso   1.00
C668   C     0.33547   0.83397   0.49925   0.00000  Uiso   1.00
C669   C     0.40973   0.87975   0.52677   0.00000  Uiso   1.00
C670   C     0.09027   0.78692   0.47323   0.00000  Uiso   1.00
C671   C     0.38357   0.83475   0.49746   0.00000  Uiso   1.00
C672   C     0.11643   0.83191   0.50254   0.00000  Uiso   1.00
C673   C     0.40311   0.79005   0.46779   0.00000  Uiso   1.00
C674   C     0.09689   0.87662   0.53221   0.00000  Uiso   1.00
C675   C     0.44966   0.78882   0.46989   0.00000  Uiso   1.00
C676   C     0.05034   0.87784   0.53011   0.00000  Uiso   1.00
C677   C     0.47661   0.83416   0.49904   0.00000  Uiso   1.00
C678   C     0.02339   0.83251   0.50096   0.00000  Uiso   1.00
C679   C     0.45662   0.88104   0.52600   0.00000  Uiso   1.00
C680   C     0.04338   0.78562   0.47400   0.00000  Uiso   1.00
C681   C     0.46921   0.74231   0.44464   0.00000  Uiso   1.00
C682   C     0.03079   0.92436   0.55536   0.00000  Uiso   1.00
Cu683  Cu    0.25501   0.83913   0.56146   0.00000  Uiso   1.00
Cu684  Cu    0.24500   0.82754   0.43854   0.00000  Uiso   1.00
H685   H     0.39288   0.91312   0.55024   0.00000  Uiso   1.00
H686   H     0.10712   0.75354   0.44976   0.00000  Uiso   1.00
H687   H     0.38198   0.75566   0.44515   0.00000  Uiso   1.00
H688   H     0.11802   0.91101   0.55485   0.00000  Uiso   1.00
H689   H     0.44721   0.70822   0.42414   0.00000  Uiso   1.00
H690   H     0.05279   0.95845   0.57586   0.00000  Uiso   1.00
H691   H     0.21380   0.79435   0.64993   0.00000  Uiso   1.00
H692   H     0.28620   0.87232   0.35007   0.00000  Uiso   1.00
N693   N     0.23745   0.81881   0.34617   0.00000  Uiso   1.00
N694   N     0.26256   0.84786   0.65383   0.00000  Uiso   1.00
O695   O     0.25326   0.76204   0.53992   0.00000  Uiso   1.00
O696   O     0.24675   0.90462   0.46008   0.00000  Uiso   1.00
O697   O     0.24480   0.75226   0.43612   0.00000  Uiso   1.00
O698   O     0.25520   0.91441   0.56388   0.00000  Uiso   1.00
O699   O     0.18936   0.83821   0.55191   0.00000  Uiso   1.00
O700   O     0.31065   0.82845   0.44809   0.00000  Uiso   1.00
O701   O     0.18090   0.82843   0.44810   0.00000  Uiso   1.00
O702   O     0.31910   0.83824   0.55190   0.00000  Uiso   1.00
N703   N     0.03637   0.69016   0.42776   0.00000  Uiso   1.00
H704   H     0.06462   0.68507   0.45475   0.00000  Uiso   1.00
C705   C     0.00838   0.97532   0.40787   0.00000  Uiso   1.00
H706   H     0.02988   0.94193   0.39386   0.00000  Uiso   1.00
H707   H     0.48500   0.97713   0.36758   0.00000  Uiso   1.00
H708   H     0.48906   0.96783   0.44594   0.00000  Uiso   1.00
N709   N     0.46363   0.97650   0.57224   0.00000  Uiso   1.00
H710   H     0.43538   0.98160   0.54525   0.00000  Uiso   1.00
C711   C     0.49162   0.69135   0.59213   0.00000  Uiso   1.00
H712   H     0.47012   0.72473   0.60614   0.00000  Uiso   1.00
H713   H     0.01094   0.69884   0.55406   0.00000  Uiso   1.00
H714   H     0.01500   0.68954   0.63242   0.00000  Uiso   1.00
N715   N     0.28139   0.98959   0.42820   0.00000  Uiso   1.00
H716   H     0.26431   0.96145   0.39387   0.00000  Uiso   1.00
C717   C     0.32794   0.98081   0.44350   0.00000  Uiso   1.00
H718   H     0.34456   0.68238   0.47600   0.00000  Uiso   1.00
H719   H     0.33053   0.94615   0.46457   0.00000  Uiso   1.00
H720   H     0.34588   0.97361   0.40098   0.00000  Uiso   1.00
N721   N     0.21861   0.67708   0.57180   0.00000  Uiso   1.00
H722   H     0.23569   0.70522   0.60613   0.00000  Uiso   1.00
C723   C     0.17206   0.68586   0.55650   0.00000  Uiso   1.00
H724   H     0.15412   0.69306   0.59902   0.00000  Uiso   1.00
H725   H     0.15544   0.98428   0.52400   0.00000  Uiso   1.00
H726   H     0.16947   0.72052   0.53542   0.00000  Uiso   1.00
C727   C     0.74980   0.73368   0.48505   0.00000  Uiso   1.00
C728   C     0.75020   0.93298   0.51495   0.00000  Uiso   1.00
C729   C     0.51617   0.73922   0.44790   0.00000  Uiso   1.00
C730   C     0.98383   0.92745   0.55210   0.00000  Uiso   1.00
C731   C     0.75655   0.67937   0.47838   0.00000  Uiso   1.00
C732   C     0.74345   0.98729   0.52162   0.00000  Uiso   1.00
C733   C     0.66453   0.83270   0.50075   0.00000  Uiso   1.00
C734   C     0.83547   0.83397   0.49925   0.00000  Uiso   1.00
C735   C     0.90973   0.87975   0.52677   0.00000  Uiso   1.00
C736   C     0.59027   0.78692   0.47323   0.00000  Uiso   1.00
C737   C     0.88357   0.83475   0.49746   0.00000  Uiso   1.00
C738   C     0.61643   0.83191   0.50254   0.00000  Uiso   1.00
C739   C     0.90311   0.79005   0.46779   0.00000  Uiso   1.00
C740   C     0.59689   0.87662   0.53221   0.00000  Uiso   1.00
C741   C     0.94966   0.78882   0.46989   0.00000  Uiso   1.00
C742   C     0.55034   0.87784   0.53011   0.00000  Uiso   1.00
C743   C     0.97661   0.83416   0.49904   0.00000  Uiso   1.00
C744   C     0.52339   0.83251   0.50096   0.00000  Uiso   1.00
C745   C     0.95662   0.88104   0.52600   0.00000  Uiso   1.00
C746   C     0.54338   0.78562   0.47400   0.00000  Uiso   1.00
C747   C     0.96921   0.74231   0.44464   0.00000  Uiso   1.00
C748   C     0.53079   0.92436   0.55536   0.00000  Uiso   1.00
Cu749  Cu    0.75501   0.83913   0.56146   0.00000  Uiso   1.00
Cu750  Cu    0.74500   0.82754   0.43854   0.00000  Uiso   1.00
H751   H     0.89288   0.91312   0.55024   0.00000  Uiso   1.00
H752   H     0.60712   0.75354   0.44976   0.00000  Uiso   1.00
H753   H     0.88198   0.75566   0.44515   0.00000  Uiso   1.00
H754   H     0.61802   0.91101   0.55485   0.00000  Uiso   1.00
H755   H     0.94721   0.70822   0.42414   0.00000  Uiso   1.00
H756   H     0.55279   0.95845   0.57586   0.00000  Uiso   1.00
H757   H     0.71380   0.79435   0.64993   0.00000  Uiso   1.00
H758   H     0.78620   0.87232   0.35007   0.00000  Uiso   1.00
N759   N     0.73745   0.81881   0.34617   0.00000  Uiso   1.00
N760   N     0.76256   0.84786   0.65383   0.00000  Uiso   1.00
O761   O     0.75326   0.76204   0.53992   0.00000  Uiso   1.00
O762   O     0.74675   0.90462   0.46008   0.00000  Uiso   1.00
O763   O     0.74480   0.75226   0.43612   0.00000  Uiso   1.00
O764   O     0.75520   0.91441   0.56388   0.00000  Uiso   1.00
O765   O     0.68936   0.83821   0.55191   0.00000  Uiso   1.00
O766   O     0.81065   0.82845   0.44809   0.00000  Uiso   1.00
O767   O     0.68090   0.82843   0.44810   0.00000  Uiso   1.00
O768   O     0.81910   0.83824   0.55190   0.00000  Uiso   1.00
N769   N     0.53637   0.69016   0.42776   0.00000  Uiso   1.00
H770   H     0.56462   0.68507   0.45475   0.00000  Uiso   1.00
C771   C     0.50838   0.97532   0.40787   0.00000  Uiso   1.00
H772   H     0.52988   0.94193   0.39386   0.00000  Uiso   1.00
H773   H     0.98500   0.97713   0.36758   0.00000  Uiso   1.00
H774   H     0.98906   0.96783   0.44594   0.00000  Uiso   1.00
N775   N     0.96363   0.97650   0.57224   0.00000  Uiso   1.00
H776   H     0.93538   0.98160   0.54525   0.00000  Uiso   1.00
C777   C     0.99162   0.69135   0.59213   0.00000  Uiso   1.00
H778   H     0.97012   0.72473   0.60614   0.00000  Uiso   1.00
H779   H     0.51094   0.69884   0.55406   0.00000  Uiso   1.00
H780   H     0.51500   0.68954   0.63242   0.00000  Uiso   1.00
N781   N     0.78139   0.98959   0.42820   0.00000  Uiso   1.00
H782   H     0.76431   0.96145   0.39387   0.00000  Uiso   1.00
C783   C     0.82794   0.98081   0.44350   0.00000  Uiso   1.00
H784   H     0.84456   0.68238   0.47600   0.00000  Uiso   1.00
H785   H     0.83053   0.94615   0.46457   0.00000  Uiso   1.00
H786   H     0.84588   0.97361   0.40098   0.00000  Uiso   1.00
N787   N     0.71861   0.67708   0.57180   0.00000  Uiso   1.00
H788   H     0.73569   0.70522   0.60613   0.00000  Uiso   1.00
C789   C     0.67206   0.68586   0.55650   0.00000  Uiso   1.00
H790   H     0.65412   0.69306   0.59902   0.00000  Uiso   1.00
H791   H     0.65544   0.98428   0.52400   0.00000  Uiso   1.00
H792   H     0.66947   0.72052   0.53542   0.00000  Uiso   1.00
C793   C     0.24980   0.06702   0.81838   0.00000  Uiso   1.00
C794   C     0.25020   0.26632   0.84828   0.00000  Uiso   1.00
C795   C     0.01617   0.07255   0.78124   0.00000  Uiso   1.00
C796   C     0.48383   0.26078   0.88543   0.00000  Uiso   1.00
C797   C     0.25655   0.01271   0.81171   0.00000  Uiso   1.00
C798   C     0.24345   0.32063   0.85495   0.00000  Uiso   1.00
C799   C     0.16453   0.16603   0.83408   0.00000  Uiso   1.00
C800   C     0.33547   0.16731   0.83258   0.00000  Uiso   1.00
C801   C     0.40973   0.21308   0.86011   0.00000  Uiso   1.00
C802   C     0.09027   0.12025   0.80656   0.00000  Uiso   1.00
C803   C     0.38357   0.16809   0.83079   0.00000  Uiso   1.00
C804   C     0.11643   0.16525   0.83588   0.00000  Uiso   1.00
C805   C     0.40311   0.12338   0.80112   0.00000  Uiso   1.00
C806   C     0.09689   0.20995   0.86555   0.00000  Uiso   1.00
C807   C     0.44966   0.12216   0.80323   0.00000  Uiso   1.00
C808   C     0.05034   0.21118   0.86344   0.00000  Uiso   1.00
C809   C     0.47661   0.16749   0.83238   0.00000  Uiso   1.00
C810   C     0.02339   0.16584   0.83429   0.00000  Uiso   1.00
C811   C     0.45662   0.21438   0.85933   0.00000  Uiso   1.00
C812   C     0.04338   0.11896   0.80733   0.00000  Uiso   1.00
C813   C     0.46921   0.07564   0.77798   0.00000  Uiso   1.00
C814   C     0.03079   0.25769   0.88869   0.00000  Uiso   1.00
Cu815  Cu    0.25501   0.17246   0.89479   0.00000  Uiso   1.00
Cu816  Cu    0.24500   0.16087   0.77187   0.00000  Uiso   1.00
H817   H     0.39288   0.24646   0.88357   0.00000  Uiso   1.00
H818   H     0.10712   0.08688   0.78309   0.00000  Uiso   1.00
H819   H     0.38198   0.08899   0.77848   0.00000  Uiso   1.00
H820   H     0.11802   0.24434   0.88818   0.00000  Uiso   1.00
H821   H     0.44721   0.04155   0.75747   0.00000  Uiso   1.00
H822   H     0.05279   0.29178   0.90919   0.00000  Uiso   1.00
H823   H     0.21380   0.12768   0.98326   0.00000  Uiso   1.00
H824   H     0.28620   0.20565   0.68341   0.00000  Uiso   1.00
N825   N     0.23745   0.15214   0.67951   0.00000  Uiso   1.00
N826   N     0.26256   0.18119   0.98716   0.00000  Uiso   1.00
O827   O     0.25326   0.09538   0.87326   0.00000  Uiso   1.00
O828   O     0.24675   0.23796   0.79341   0.00000  Uiso   1.00
O829   O     0.24480   0.08559   0.76945   0.00000  Uiso   1.00
O830   O     0.25520   0.24774   0.89721   0.00000  Uiso   1.00
O831   O     0.18936   0.17155   0.88524   0.00000  Uiso   1.00
O832   O     0.31065   0.16179   0.78143   0.00000  Uiso   1.00
O833   O     0.18090   0.16176   0.78143   0.00000  Uiso   1.00
O834   O     0.31910   0.17157   0.88523   0.00000  Uiso   1.00
N835   N     0.03637   0.02350   0.76109   0.00000  Uiso   1.00
H836   H     0.06462   0.01840   0.78808   0.00000  Uiso   1.00
C837   C     0.00838   0.30865   0.74120   0.00000  Uiso   1.00
H838   H     0.02988   0.27527   0.72720   0.00000  Uiso   1.00
H839   H     0.48500   0.31046   0.70091   0.00000  Uiso   1.00
H840   H     0.48906   0.30116   0.77927   0.00000  Uiso   1.00
N841   N     0.46363   0.30984   0.90558   0.00000  Uiso   1.00
H842   H     0.43538   0.31493   0.87859   0.00000  Uiso   1.00
C843   C     0.49162   0.02468   0.92546   0.00000  Uiso   1.00
H844   H     0.47012   0.05807   0.93947   0.00000  Uiso   1.00
H845   H     0.01094   0.03217   0.88739   0.00000  Uiso   1.00
H846   H     0.01500   0.02287   0.96575   0.00000  Uiso   1.00
N847   N     0.28139   0.32293   0.76153   0.00000  Uiso   1.00
H848   H     0.26431   0.29478   0.72721   0.00000  Uiso   1.00
C849   C     0.32794   0.31414   0.77683   0.00000  Uiso   1.00
H850   H     0.34456   0.01572   0.80934   0.00000  Uiso   1.00
H851   H     0.33053   0.27948   0.79791   0.00000  Uiso   1.00
H852   H     0.34588   0.30695   0.73431   0.00000  Uiso   1.00
N853   N     0.21861   0.01041   0.90513   0.00000  Uiso   1.00
H854   H     0.23569   0.03855   0.93946   0.00000  Uiso   1.00
C855   C     0.17206   0.01919   0.88984   0.00000  Uiso   1.00
H856   H     0.15412   0.02639   0.93235   0.00000  Uiso   1.00
H857   H     0.15544   0.31762   0.85734   0.00000  Uiso   1.00
H858   H     0.16947   0.05385   0.86876   0.00000  Uiso   1.00
C859   C     0.74980   0.06702   0.81838   0.00000  Uiso   1.00
C860   C     0.75020   0.26632   0.84828   0.00000  Uiso   1.00
C861   C     0.51617   0.07255   0.78124   0.00000  Uiso   1.00
C862   C     0.98383   0.26078   0.88543   0.00000  Uiso   1.00
C863   C     0.75655   0.01271   0.81171   0.00000  Uiso   1.00
C864   C     0.74345   0.32063   0.85495   0.00000  Uiso   1.00
C865   C     0.66453   0.16603   0.83408   0.00000  Uiso   1.00
C866   C     0.83547   0.16731   0.83258   0.00000  Uiso   1.00
C867   C     0.90973   0.21308   0.86011   0.00000  Uiso   1.00
C868   C     0.59027   0.12025   0.80656   0.00000  Uiso   1.00
C869   C     0.88357   0.16809   0.83079   0.00000  Uiso   1.00
C870   C     0.61643   0.16525   0.83588   0.00000  Uiso   1.00
C871   C     0.90311   0.12338   0.80112   0.00000  Uiso   1.00
C872   C     0.59689   0.20995   0.86555   0.00000  Uiso   1.00
C873   C     0.94966   0.12216   0.80323   0.00000  Uiso   1.00
C874   C     0.55034   0.21118   0.86344   0.00000  Uiso   1.00
C875   C     0.97661   0.16749   0.83238   0.00000  Uiso   1.00
C876   C     0.52339   0.16584   0.83429   0.00000  Uiso   1.00
C877   C     0.95662   0.21438   0.85933   0.00000  Uiso   1.00
C878   C     0.54338   0.11896   0.80733   0.00000  Uiso   1.00
C879   C     0.96921   0.07564   0.77798   0.00000  Uiso   1.00
C880   C     0.53079   0.25769   0.88869   0.00000  Uiso   1.00
Cu881  Cu    0.75501   0.17246   0.89479   0.00000  Uiso   1.00
Cu882  Cu    0.74500   0.16087   0.77187   0.00000  Uiso   1.00
H883   H     0.89288   0.24646   0.88357   0.00000  Uiso   1.00
H884   H     0.60712   0.08688   0.78309   0.00000  Uiso   1.00
H885   H     0.88198   0.08899   0.77848   0.00000  Uiso   1.00
H886   H     0.61802   0.24434   0.88818   0.00000  Uiso   1.00
H887   H     0.94721   0.04155   0.75747   0.00000  Uiso   1.00
H888   H     0.55279   0.29178   0.90919   0.00000  Uiso   1.00
H889   H     0.71380   0.12768   0.98326   0.00000  Uiso   1.00
H890   H     0.78620   0.20565   0.68341   0.00000  Uiso   1.00
N891   N     0.73745   0.15214   0.67951   0.00000  Uiso   1.00
N892   N     0.76256   0.18119   0.98716   0.00000  Uiso   1.00
O893   O     0.75326   0.09538   0.87326   0.00000  Uiso   1.00
O894   O     0.74675   0.23796   0.79341   0.00000  Uiso   1.00
O895   O     0.74480   0.08559   0.76945   0.00000  Uiso   1.00
O896   O     0.75520   0.24774   0.89721   0.00000  Uiso   1.00
O897   O     0.68936   0.17155   0.88524   0.00000  Uiso   1.00
O898   O     0.81065   0.16179   0.78143   0.00000  Uiso   1.00
O899   O     0.68090   0.16176   0.78143   0.00000  Uiso   1.00
O900   O     0.81910   0.17157   0.88523   0.00000  Uiso   1.00
N901   N     0.53637   0.02350   0.76109   0.00000  Uiso   1.00
H902   H     0.56462   0.01840   0.78808   0.00000  Uiso   1.00
C903   C     0.50838   0.30865   0.74120   0.00000  Uiso   1.00
H904   H     0.52988   0.27527   0.72720   0.00000  Uiso   1.00
H905   H     0.98500   0.31046   0.70091   0.00000  Uiso   1.00
H906   H     0.98906   0.30116   0.77927   0.00000  Uiso   1.00
N907   N     0.96363   0.30984   0.90558   0.00000  Uiso   1.00
H908   H     0.93538   0.31493   0.87859   0.00000  Uiso   1.00
C909   C     0.99162   0.02468   0.92546   0.00000  Uiso   1.00
H910   H     0.97012   0.05807   0.93947   0.00000  Uiso   1.00
H911   H     0.51094   0.03217   0.88739   0.00000  Uiso   1.00
H912   H     0.51500   0.02287   0.96575   0.00000  Uiso   1.00
N913   N     0.78139   0.32293   0.76153   0.00000  Uiso   1.00
H914   H     0.76431   0.29478   0.72721   0.00000  Uiso   1.00
C915   C     0.82794   0.31414   0.77683   0.00000  Uiso   1.00
H916   H     0.84456   0.01572   0.80934   0.00000  Uiso   1.00
H917   H     0.83053   0.27948   0.79791   0.00000  Uiso   1.00
H918   H     0.84588   0.30695   0.73431   0.00000  Uiso   1.00
N919   N     0.71861   0.01041   0.90513   0.00000  Uiso   1.00
H920   H     0.73569   0.03855   0.93946   0.00000  Uiso   1.00
C921   C     0.67206   0.01919   0.88984   0.00000  Uiso   1.00
H922   H     0.65412   0.02639   0.93235   0.00000  Uiso   1.00
H923   H     0.65544   0.31762   0.85734   0.00000  Uiso   1.00
H924   H     0.66947   0.05385   0.86876   0.00000  Uiso   1.00
C925   C     0.24980   0.40035   0.81838   0.00000  Uiso   1.00
C926   C     0.25020   0.59965   0.84828   0.00000  Uiso   1.00
C927   C     0.01617   0.40588   0.78124   0.00000  Uiso   1.00
C928   C     0.48383   0.59412   0.88543   0.00000  Uiso   1.00
C929   C     0.25655   0.34604   0.81171   0.00000  Uiso   1.00
C930   C     0.24345   0.65396   0.85495   0.00000  Uiso   1.00
C931   C     0.16453   0.49936   0.83408   0.00000  Uiso   1.00
C932   C     0.33547   0.50064   0.83258   0.00000  Uiso   1.00
C933   C     0.40973   0.54641   0.86011   0.00000  Uiso   1.00
C934   C     0.09027   0.45359   0.80656   0.00000  Uiso   1.00
C935   C     0.38357   0.50142   0.83079   0.00000  Uiso   1.00
C936   C     0.11643   0.49858   0.83588   0.00000  Uiso   1.00
C937   C     0.40311   0.45672   0.80112   0.00000  Uiso   1.00
C938   C     0.09689   0.54328   0.86555   0.00000  Uiso   1.00
C939   C     0.44966   0.45549   0.80323   0.00000  Uiso   1.00
C940   C     0.05034   0.54451   0.86344   0.00000  Uiso   1.00
C941   C     0.47661   0.50082   0.83238   0.00000  Uiso   1.00
C942   C     0.02339   0.49918   0.83429   0.00000  Uiso   1.00
C943   C     0.45662   0.54771   0.85933   0.00000  Uiso   1.00
C944   C     0.04338   0.45229   0.80733   0.00000  Uiso   1.00
C945   C     0.46921   0.40897   0.77798   0.00000  Uiso   1.00
C946   C     0.03079   0.59103   0.88869   0.00000  Uiso   1.00
Cu947  Cu    0.25501   0.50579   0.89479   0.00000  Uiso   1.00
Cu948  Cu    0.24500   0.49421   0.77187   0.00000  Uiso   1.00
H949   H     0.39288   0.57979   0.88357   0.00000  Uiso   1.00
H950   H     0.10712   0.42021   0.78309   0.00000  Uiso   1.00
H951   H     0.38198   0.42232   0.77848   0.00000  Uiso   1.00
H952   H     0.11802   0.57768   0.88818   0.00000  Uiso   1.00
H953   H     0.44721   0.37488   0.75747   0.00000  Uiso   1.00
H954   H     0.05279   0.62512   0.90919   0.00000  Uiso   1.00
H955   H     0.21380   0.46102   0.98326   0.00000  Uiso   1.00
H956   H     0.28620   0.53898   0.68341   0.00000  Uiso   1.00
N957   N     0.23745   0.48547   0.67951   0.00000  Uiso   1.00
N958   N     0.26256   0.51453   0.98716   0.00000  Uiso   1.00
O959   O     0.25326   0.42871   0.87326   0.00000  Uiso   1.00
O960   O     0.24675   0.57129   0.79341   0.00000  Uiso   1.00
O961   O     0.24480   0.41892   0.76945   0.00000  Uiso   1.00
O962   O     0.25520   0.58108   0.89721   0.00000  Uiso   1.00
O963   O     0.18936   0.50488   0.88524   0.00000  Uiso   1.00
O964   O     0.31065   0.49512   0.78143   0.00000  Uiso   1.00
O965   O     0.18090   0.49510   0.78143   0.00000  Uiso   1.00
O966   O     0.31910   0.50490   0.88523   0.00000  Uiso   1.00
N967   N     0.03637   0.35683   0.76109   0.00000  Uiso   1.00
H968   H     0.06462   0.35173   0.78808   0.00000  Uiso   1.00
C969   C     0.00838   0.64199   0.74120   0.00000  Uiso   1.00
H970   H     0.02988   0.60860   0.72720   0.00000  Uiso   1.00
H971   H     0.48500   0.64379   0.70091   0.00000  Uiso   1.00
H972   H     0.48906   0.63450   0.77927   0.00000  Uiso   1.00
N973   N     0.46363   0.64317   0.90558   0.00000  Uiso   1.00
H974   H     0.43538   0.64827   0.87859   0.00000  Uiso   1.00
C975   C     0.49162   0.35801   0.92546   0.00000  Uiso   1.00
H976   H     0.47012   0.39140   0.93947   0.00000  Uiso   1.00
H977   H     0.01094   0.36550   0.88739   0.00000  Uiso   1.00
H978   H     0.01500   0.35621   0.96575   0.00000  Uiso   1.00
N979   N     0.28139   0.65626   0.76153   0.00000  Uiso   1.00
H980   H     0.26431   0.62812   0.72721   0.00000  Uiso   1.00
C981   C     0.32794   0.64747   0.77683   0.00000  Uiso   1.00
H982   H     0.34456   0.34905   0.80934   0.00000  Uiso   1.00
H983   H     0.33053   0.61282   0.79791   0.00000  Uiso   1.00
H984   H     0.34588   0.64028   0.73431   0.00000  Uiso   1.00
N985   N     0.21861   0.34374   0.90513   0.00000  Uiso   1.00
H986   H     0.23569   0.37188   0.93946   0.00000  Uiso   1.00
C987   C     0.17206   0.35253   0.88984   0.00000  Uiso   1.00
H988   H     0.15412   0.35972   0.93235   0.00000  Uiso   1.00
H989   H     0.15544   0.65095   0.85734   0.00000  Uiso   1.00
H990   H     0.16947   0.38718   0.86876   0.00000  Uiso   1.00
C991   C     0.74980   0.40035   0.81838   0.00000  Uiso   1.00
C992   C     0.75020   0.59965   0.84828   0.00000  Uiso   1.00
C993   C     0.51617   0.40588   0.78124   0.00000  Uiso   1.00
C994   C     0.98383   0.59412   0.88543   0.00000  Uiso   1.00
C995   C     0.75655   0.34604   0.81171   0.00000  Uiso   1.00
C996   C     0.74345   0.65396   0.85495   0.00000  Uiso   1.00
C997   C     0.66453   0.49936   0.83408   0.00000  Uiso   1.00
C998   C     0.83547   0.50064   0.83258   0.00000  Uiso   1.00
C999   C     0.90973   0.54641   0.86011   0.00000  Uiso   1.00
C1000  C     0.59027   0.45359   0.80656   0.00000  Uiso   1.00
C1001  C     0.88357   0.50142   0.83079   0.00000  Uiso   1.00
C1002  C     0.61643   0.49858   0.83588   0.00000  Uiso   1.00
C1003  C     0.90311   0.45672   0.80112   0.00000  Uiso   1.00
C1004  C     0.59689   0.54328   0.86555   0.00000  Uiso   1.00
C1005  C     0.94966   0.45549   0.80323   0.00000  Uiso   1.00
C1006  C     0.55034   0.54451   0.86344   0.00000  Uiso   1.00
C1007  C     0.97661   0.50082   0.83238   0.00000  Uiso   1.00
C1008  C     0.52339   0.49918   0.83429   0.00000  Uiso   1.00
C1009  C     0.95662   0.54771   0.85933   0.00000  Uiso   1.00
C1010  C     0.54338   0.45229   0.80733   0.00000  Uiso   1.00
C1011  C     0.96921   0.40897   0.77798   0.00000  Uiso   1.00
C1012  C     0.53079   0.59103   0.88869   0.00000  Uiso   1.00
Cu1013 Cu    0.75501   0.50579   0.89479   0.00000  Uiso   1.00
Cu1014 Cu    0.74500   0.49421   0.77187   0.00000  Uiso   1.00
H1015  H     0.89288   0.57979   0.88357   0.00000  Uiso   1.00
H1016  H     0.60712   0.42021   0.78309   0.00000  Uiso   1.00
H1017  H     0.88198   0.42232   0.77848   0.00000  Uiso   1.00
H1018  H     0.61802   0.57768   0.88818   0.00000  Uiso   1.00
H1019  H     0.94721   0.37488   0.75747   0.00000  Uiso   1.00
H1020  H     0.55279   0.62512   0.90919   0.00000  Uiso   1.00
H1021  H     0.71380   0.46102   0.98326   0.00000  Uiso   1.00
H1022  H     0.78620   0.53898   0.68341   0.00000  Uiso   1.00
N1023  N     0.73745   0.48547   0.67951   0.00000  Uiso   1.00
N1024  N     0.76256   0.51453   0.98716   0.00000  Uiso   1.00
O1025  O     0.75326   0.42871   0.87326   0.00000  Uiso   1.00
O1026  O     0.74675   0.57129   0.79341   0.00000  Uiso   1.00
O1027  O     0.74480   0.41892   0.76945   0.00000  Uiso   1.00
O1028  O     0.75520   0.58108   0.89721   0.00000  Uiso   1.00
O1029  O     0.68936   0.50488   0.88524   0.00000  Uiso   1.00
O1030  O     0.81065   0.49512   0.78143   0.00000  Uiso   1.00
O1031  O     0.68090   0.49510   0.78143   0.00000  Uiso   1.00
O1032  O     0.81910   0.50490   0.88523   0.00000  Uiso   1.00
N1033  N     0.53637   0.35683   0.76109   0.00000  Uiso   1.00
H1034  H     0.56462   0.35173   0.78808   0.00000  Uiso   1.00
C1035  C     0.50838   0.64199   0.74120   0.00000  Uiso   1.00
H1036  H     0.52988   0.60860   0.72720   0.00000  Uiso   1.00
H1037  H     0.98500   0.64379   0.70091   0.00000  Uiso   1.00
H1038  H     0.98906   0.63450   0.77927   0.00000  Uiso   1.00
N1039  N     0.96363   0.64317   0.90558   0.00000  Uiso   1.00
H1040  H     0.93538   0.64827   0.87859   0.00000  Uiso   1.00
C1041  C     0.99162   0.35801   0.92546   0.00000  Uiso   1.00
H1042  H     0.97012   0.39140   0.93947   0.00000  Uiso   1.00
H1043  H     0.51094   0.36550   0.88739   0.00000  Uiso   1.00
H1044  H     0.51500   0.35621   0.96575   0.00000  Uiso   1.00
N1045  N     0.78139   0.65626   0.76153   0.00000  Uiso   1.00
H1046  H     0.76431   0.62812   0.72721   0.00000  Uiso   1.00
C1047  C     0.82794   0.64747   0.77683   0.00000  Uiso   1.00
H1048  H     0.84456   0.34905   0.80934   0.00000  Uiso   1.00
H1049  H     0.83053   0.61282   0.79791   0.00000  Uiso   1.00
H1050  H     0.84588   0.64028   0.73431   0.00000  Uiso   1.00
N1051  N     0.71861   0.34374   0.90513   0.00000  Uiso   1.00
H1052  H     0.73569   0.37188   0.93946   0.00000  Uiso   1.00
C1053  C     0.67206   0.35253   0.88984   0.00000  Uiso   1.00
H1054  H     0.65412   0.35972   0.93235   0.00000  Uiso   1.00
H1055  H     0.65544   0.65095   0.85734   0.00000  Uiso   1.00
H1056  H     0.66947   0.38718   0.86876   0.00000  Uiso   1.00
C1057  C     0.24980   0.73368   0.81838   0.00000  Uiso   1.00
C1058  C     0.25020   0.93298   0.84828   0.00000  Uiso   1.00
C1059  C     0.01617   0.73922   0.78124   0.00000  Uiso   1.00
C1060  C     0.48383   0.92745   0.88543   0.00000  Uiso   1.00
C1061  C     0.25655   0.67937   0.81171   0.00000  Uiso   1.00
C1062  C     0.24345   0.98729   0.85495   0.00000  Uiso   1.00
C1063  C     0.16453   0.83270   0.83408   0.00000  Uiso   1.00
C1064  C     0.33547   0.83397   0.83258   0.00000  Uiso   1.00
C1065  C     0.40973   0.87975   0.86011   0.00000  Uiso   1.00
C1066  C     0.09027   0.78692   0.80656   0.00000  Uiso   1.00
C1067  C     0.38357   0.83475   0.83079   0.00000  Uiso   1.00
C1068  C     0.11643   0.83191   0.83588   0.00000  Uiso   1.00
C1069  C     0.40311   0.79005   0.80112   0.00000  Uiso   1.00
C1070  C     0.09689   0.87662   0.86555   0.00000  Uiso   1.00
C1071  C     0.44966   0.78882   0.80323   0.00000  Uiso   1.00
C1072  C     0.05034   0.87784   0.86344   0.00000  Uiso   1.00
C1073  C     0.47661   0.83416   0.83238   0.00000  Uiso   1.00
C1074  C     0.02339   0.83251   0.83429   0.00000  Uiso   1.00
C1075  C     0.45662   0.88104   0.85933   0.00000  Uiso   1.00
C1076  C     0.04338   0.78562   0.80733   0.00000  Uiso   1.00
C1077  C     0.46921   0.74231   0.77798   0.00000  Uiso   1.00
C1078  C     0.03079   0.92436   0.88869   0.00000  Uiso   1.00
Cu1079 Cu    0.25501   0.83913   0.89479   0.00000  Uiso   1.00
Cu1080 Cu    0.24500   0.82754   0.77187   0.00000  Uiso   1.00
H1081  H     0.39288   0.91312   0.88357   0.00000  Uiso   1.00
H1082  H     0.10712   0.75354   0.78309   0.00000  Uiso   1.00
H1083  H     0.38198   0.75566   0.77848   0.00000  Uiso   1.00
H1084  H     0.11802   0.91101   0.88818   0.00000  Uiso   1.00
H1085  H     0.44721   0.70822   0.75747   0.00000  Uiso   1.00
H1086  H     0.05279   0.95845   0.90919   0.00000  Uiso   1.00
H1087  H     0.21380   0.79435   0.98326   0.00000  Uiso   1.00
H1088  H     0.28620   0.87232   0.68341   0.00000  Uiso   1.00
N1089  N     0.23745   0.81881   0.67951   0.00000  Uiso   1.00
N1090  N     0.26256   0.84786   0.98716   0.00000  Uiso   1.00
O1091  O     0.25326   0.76204   0.87326   0.00000  Uiso   1.00
O1092  O     0.24675   0.90462   0.79341   0.00000  Uiso   1.00
O1093  O     0.24480   0.75226   0.76945   0.00000  Uiso   1.00
O1094  O     0.25520   0.91441   0.89721   0.00000  Uiso   1.00
O1095  O     0.18936   0.83821   0.88524   0.00000  Uiso   1.00
O1096  O     0.31065   0.82845   0.78143   0.00000  Uiso   1.00
O1097  O     0.18090   0.82843   0.78143   0.00000  Uiso   1.00
O1098  O     0.31910   0.83824   0.88523   0.00000  Uiso   1.00
N1099  N     0.03637   0.69016   0.76109   0.00000  Uiso   1.00
H1100  H     0.06462   0.68507   0.78808   0.00000  Uiso   1.00
C1101  C     0.00838   0.97532   0.74120   0.00000  Uiso   1.00
H1102  H     0.02988   0.94193   0.72720   0.00000  Uiso   1.00
H1103  H     0.48500   0.97713   0.70091   0.00000  Uiso   1.00
H1104  H     0.48906   0.96783   0.77927   0.00000  Uiso   1.00
N1105  N     0.46363   0.97650   0.90558   0.00000  Uiso   1.00
H1106  H     0.43538   0.98160   0.87859   0.00000  Uiso   1.00
C1107  C     0.49162   0.69135   0.92546   0.00000  Uiso   1.00
H1108  H     0.47012   0.72473   0.93947   0.00000  Uiso   1.00
H1109  H     0.01094   0.69884   0.88739   0.00000  Uiso   1.00
H1110  H     0.01500   0.68954   0.96575   0.00000  Uiso   1.00
N1111  N     0.28139   0.98959   0.76153   0.00000  Uiso   1.00
H1112  H     0.26431   0.96145   0.72721   0.00000  Uiso   1.00
C1113  C     0.32794   0.98081   0.77683   0.00000  Uiso   1.00
H1114  H     0.34456   0.68238   0.80934   0.00000  Uiso   1.00
H1115  H     0.33053   0.94615   0.79791   0.00000  Uiso   1.00
H1116  H     0.34588   0.97361   0.73431   0.00000  Uiso   1.00
N1117  N     0.21861   0.67708   0.90513   0.00000  Uiso   1.00
H1118  H     0.23569   0.70522   0.93946   0.00000  Uiso   1.00
C1119  C     0.17206   0.68586   0.88984   0.00000  Uiso   1.00
H1120  H     0.15412   0.69306   0.93235   0.00000  Uiso   1.00
H1121  H     0.15544   0.98428   0.85734   0.00000  Uiso   1.00
H1122  H     0.16947   0.72052   0.86876   0.00000  Uiso   1.00
C1123  C     0.74980   0.73368   0.81838   0.00000  Uiso   1.00
C1124  C     0.75020   0.93298   0.84828   0.00000  Uiso   1.00
C1125  C     0.51617   0.73922   0.78124   0.00000  Uiso   1.00
C1126  C     0.98383   0.92745   0.88543   0.00000  Uiso   1.00
C1127  C     0.75655   0.67937   0.81171   0.00000  Uiso   1.00
C1128  C     0.74345   0.98729   0.85495   0.00000  Uiso   1.00
C1129  C     0.66453   0.83270   0.83408   0.00000  Uiso   1.00
C1130  C     0.83547   0.83397   0.83258   0.00000  Uiso   1.00
C1131  C     0.90973   0.87975   0.86011   0.00000  Uiso   1.00
C1132  C     0.59027   0.78692   0.80656   0.00000  Uiso   1.00
C1133  C     0.88357   0.83475   0.83079   0.00000  Uiso   1.00
C1134  C     0.61643   0.83191   0.83588   0.00000  Uiso   1.00
C1135  C     0.90311   0.79005   0.80112   0.00000  Uiso   1.00
C1136  C     0.59689   0.87662   0.86555   0.00000  Uiso   1.00
C1137  C     0.94966   0.78882   0.80323   0.00000  Uiso   1.00
C1138  C     0.55034   0.87784   0.86344   0.00000  Uiso   1.00
C1139  C     0.97661   0.83416   0.83238   0.00000  Uiso   1.00
C1140  C     0.52339   0.83251   0.83429   0.00000  Uiso   1.00
C1141  C     0.95662   0.88104   0.85933   0.00000  Uiso   1.00
C1142  C     0.54338   0.78562   0.80733   0.00000  Uiso   1.00
C1143  C     0.96921   0.74231   0.77798   0.00000  Uiso   1.00
C1144  C     0.53079   0.92436   0.88869   0.00000  Uiso   1.00
Cu1145 Cu    0.75501   0.83913   0.89479   0.00000  Uiso   1.00
Cu1146 Cu    0.74500   0.82754   0.77187   0.00000  Uiso   1.00
H1147  H     0.89288   0.91312   0.88357   0.00000  Uiso   1.00
H1148  H     0.60712   0.75354   0.78309   0.00000  Uiso   1.00
H1149  H     0.88198   0.75566   0.77848   0.00000  Uiso   1.00
H1150  H     0.61802   0.91101   0.88818   0.00000  Uiso   1.00
H1151  H     0.94721   0.70822   0.75747   0.00000  Uiso   1.00
H1152  H     0.55279   0.95845   0.90919   0.00000  Uiso   1.00
H1153  H     0.71380   0.79435   0.98326   0.00000  Uiso   1.00
H1154  H     0.78620   0.87232   0.68341   0.00000  Uiso   1.00
N1155  N     0.73745   0.81881   0.67951   0.00000  Uiso   1.00
N1156  N     0.76256   0.84786   0.98716   0.00000  Uiso   1.00
O1157  O     0.75326   0.76204   0.87326   0.00000  Uiso   1.00
O1158  O     0.74675   0.90462   0.79341   0.00000  Uiso   1.00
O1159  O     0.74480   0.75226   0.76945   0.00000  Uiso   1.00
O1160  O     0.75520   0.91441   0.89721   0.00000  Uiso   1.00
O1161  O     0.68936   0.83821   0.88524   0.00000  Uiso   1.00
O1162  O     0.81065   0.82845   0.78143   0.00000  Uiso   1.00
O1163  O     0.68090   0.82843   0.78143   0.00000  Uiso   1.00
O1164  O     0.81910   0.83824   0.88523   0.00000  Uiso   1.00
N1165  N     0.53637   0.69016   0.76109   0.00000  Uiso   1.00
H1166  H     0.56462   0.68507   0.78808   0.00000  Uiso   1.00
C1167  C     0.50838   0.97532   0.74120   0.00000  Uiso   1.00
H1168  H     0.52988   0.94193   0.72720   0.00000  Uiso   1.00
H1169  H     0.98500   0.97713   0.70091   0.00000  Uiso   1.00
H1170  H     0.98906   0.96783   0.77927   0.00000  Uiso   1.00
N1171  N     0.96363   0.97650   0.90558   0.00000  Uiso   1.00
H1172  H     0.93538   0.98160   0.87859   0.00000  Uiso   1.00
C1173  C     0.99162   0.69135   0.92546   0.00000  Uiso   1.00
H1174  H     0.97012   0.72473   0.93947   0.00000  Uiso   1.00
H1175  H     0.51094   0.69884   0.88739   0.00000  Uiso   1.00
H1176  H     0.51500   0.68954   0.96575   0.00000  Uiso   1.00
N1177  N     0.78139   0.98959   0.76153   0.00000  Uiso   1.00
H1178  H     0.76431   0.96145   0.72721   0.00000  Uiso   1.00
C1179  C     0.82794   0.98081   0.77683   0.00000  Uiso   1.00
H1180  H     0.84456   0.68238   0.80934   0.00000  Uiso   1.00
H1181  H     0.83053   0.94615   0.79791   0.00000  Uiso   1.00
H1182  H     0.84588   0.97361   0.73431   0.00000  Uiso   1.00
N1183  N     0.71861   0.67708   0.90513   0.00000  Uiso   1.00
H1184  H     0.73569   0.70522   0.93946   0.00000  Uiso   1.00
C1185  C     0.67206   0.68586   0.88984   0.00000  Uiso   1.00
H1186  H     0.65412   0.69306   0.93235   0.00000  Uiso   1.00
H1187  H     0.65544   0.98428   0.85734   0.00000  Uiso   1.00
H1188  H     0.66947   0.72052   0.86876   0.00000  Uiso   1.00
loop_
_geom_bond_atom_site_label_1
_geom_bond_atom_site_label_2
_geom_bond_distance
_geom_bond_site_symmetry_2
_ccdc_geom_bond_type
C1     O37     1.288   .     A
C1     C5      1.421   .     S
C1     O35     1.285   .     A
C2     O38     1.288   .     A
C2     C6      1.421   .     S
C2     O36     1.285   .     A
C3     C20     1.422   .     A
C3     N43     1.440   .     S
C3     C87     1.407   1_455 S
C4     N49     1.440   .     S
C4     C19     1.422   .     A
C4     C88     1.407   .     S
C5     C270    1.354   1_545 S
C5     N319    1.430   1_545 S
C6     C137    1.354   .     S
C6     N193    1.430   .     S
C7     C12     1.441   .     S
C7     O39     1.293   .     A
C7     O41     1.292   .     A
C8     C11     1.441   .     S
C8     O42     1.292   .     A
C8     O40     1.293   .     A
C9     H25     1.082   .     S
C9     C11     1.394   .     A
C9     C19     1.403   .     A
C10    H26     1.082   .     S
C10    C12     1.394   .     A
C10    C20     1.403   .     A
C11    C13     1.390   .     A
C12    C14     1.390   .     A
C13    C15     1.391   .     A
C13    H27     1.084   .     S
C14    H28     1.084   .     S
C14    C16     1.391   .     A
C15    C21     1.398   .     A
C15    C17     1.412   .     A
C16    C18     1.412   .     A
C16    C22     1.398   .     A
C17    C19     1.423   .     A
C17    C84     1.399   .     S
C18    C20     1.423   .     A
C18    C83     1.399   1_455 S
C21    H29     1.082   .     S
C21    C69     1.407   .     S
C22    H30     1.082   .     S
C22    C70     1.407   1_455 S
Cu23   O38     1.958   .     S
Cu23   O42     1.945   .     S
Cu23   O35     1.968   .     S
Cu23   Cu24    2.689   .     S
Cu23   N34     2.021   .     S
Cu23   O39     1.957   .     S
Cu24   N33     2.021   .     S
Cu24   O37     1.958   .     S
Cu24   O41     1.945   .     S
Cu24   O36     1.968   .     S
Cu24   O40     1.957   .     S
H31    N429    1.029   .     S
H32    N826    1.029   1_554 S
N33    H823    1.029   1_554 S
N33    N826    1.293   1_554 S
N34    N429    1.293   .     S
N34    H428    1.029   .     S
N43    H44     1.031   .     S
N43    C309    1.450   1_545 S
C45    H46     1.111   .     S
C45    N175    1.450   .     S
C45    H113    1.108   1_455 S
C45    H114    1.109   1_455 S
H47    C111    1.108   .     S
H48    C111    1.109   .     S
N49    H50     1.031   .     S
N49    C183    1.450   .     S
C51    H52     1.111   .     S
C51    N313    1.450   1_545 S
C51    H119    1.109   .     S
C51    H120    1.108   .     S
H53    C117    1.109   1_455 S
H54    C117    1.108   1_455 S
N55    H56     1.030   .     S
N55    C57     1.448   .     S
N55    C137    1.430   .     S
C57    H60     1.110   .     S
C57    H59     1.109   .     S
C57    H190    1.111   .     S
H58    C321    1.111   1_545 S
N61    H62     1.030   .     S
N61    C63     1.448   .     S
N61    C270    1.430   1_545 S
C63    H66     1.109   .     S
C63    H64     1.110   .     S
C63    H329    1.111   1_545 S
H65    C195    1.111   .     S
C67    O103    1.288   .     A
C67    C71     1.421   .     S
C67    O101    1.285   .     A
C68    O104    1.288   .     A
C68    C72     1.421   .     S
C68    O102    1.285   .     A
C69    C86     1.422   .     A
C69    N109    1.440   .     S
C70    N115    1.440   .     S
C70    C85     1.422   .     A
C70    C22     1.407   1_655 S
C71    C336    1.354   1_545 S
C71    N385    1.430   1_545 S
C72    C203    1.354   .     S
C72    N259    1.430   .     S
C73    C78     1.441   .     S
C73    O105    1.293   .     A
C73    O107    1.292   .     A
C74    C77     1.441   .     S
C74    O108    1.292   .     A
C74    O106    1.293   .     A
C75    H91     1.082   .     S
C75    C77     1.394   .     A
C75    C85     1.403   .     A
C76    H92     1.082   .     S
C76    C78     1.394   .     A
C76    C86     1.403   .     A
C77    C79     1.390   .     A
C78    C80     1.390   .     A
C79    C81     1.391   .     A
C79    H93     1.084   .     S
C80    H94     1.084   .     S
C80    C82     1.391   .     A
C81    C87     1.398   .     A
C81    C83     1.412   .     A
C82    C84     1.412   .     A
C82    C88     1.398   .     A
C83    C85     1.423   .     A
C83    C18     1.399   1_655 S
C84    C86     1.423   .     A
C87    H95     1.082   .     S
C87    C3      1.407   1_655 S
C88    H96     1.082   .     S
Cu89   O104    1.958   .     S
Cu89   O108    1.945   .     S
Cu89   O101    1.968   .     S
Cu89   Cu90    2.689   .     S
Cu89   N100    2.021   .     S
Cu89   O105    1.957   .     S
Cu90   N99     2.021   .     S
Cu90   O103    1.958   .     S
Cu90   O107    1.945   .     S
Cu90   O102    1.968   .     S
Cu90   O106    1.957   .     S
H97    N495    1.029   .     S
H98    N892    1.029   1_554 S
N99    H889    1.029   1_554 S
N99    N892    1.293   1_554 S
N100   N495    1.293   .     S
N100   H494    1.029   .     S
N109   H110    1.031   .     S
N109   C375    1.450   1_545 S
C111   H112    1.111   .     S
C111   N241    1.450   .     S
H113   C45     1.108   1_655 S
H114   C45     1.109   1_655 S
N115   H116    1.031   .     S
N115   C249    1.450   .     S
C117   H118    1.111   .     S
C117   N379    1.450   1_545 S
C117   H53     1.109   1_655 S
C117   H54     1.108   1_655 S
N121   H122    1.030   .     S
N121   C123    1.448   .     S
N121   C203    1.430   .     S
C123   H126    1.110   .     S
C123   H125    1.109   .     S
C123   H256    1.111   .     S
H124   C387    1.111   1_545 S
N127   H128    1.030   .     S
N127   C129    1.448   .     S
N127   C336    1.430   1_545 S
C129   H132    1.109   .     S
C129   H130    1.110   .     S
C129   H395    1.111   1_545 S
H131   C261    1.111   .     S
C133   O169    1.288   .     A
C133   C137    1.421   .     S
C133   O167    1.285   .     A
C134   O170    1.288   .     A
C134   C138    1.421   .     S
C134   O168    1.285   .     A
C135   C152    1.422   .     A
C135   N175    1.440   .     S
C135   C219    1.407   1_455 S
C136   N181    1.440   .     S
C136   C151    1.422   .     A
C136   C220    1.407   .     S
C138   C269    1.354   .     S
C138   N325    1.430   .     S
C139   C144    1.441   .     S
C139   O171    1.293   .     A
C139   O173    1.292   .     A
C140   C143    1.441   .     S
C140   O174    1.292   .     A
C140   O172    1.293   .     A
C141   H157    1.082   .     S
C141   C143    1.394   .     A
C141   C151    1.403   .     A
C142   H158    1.082   .     S
C142   C144    1.394   .     A
C142   C152    1.403   .     A
C143   C145    1.390   .     A
C144   C146    1.390   .     A
C145   C147    1.391   .     A
C145   H159    1.084   .     S
C146   H160    1.084   .     S
C146   C148    1.391   .     A
C147   C153    1.398   .     A
C147   C149    1.412   .     A
C148   C150    1.412   .     A
C148   C154    1.398   .     A
C149   C151    1.423   .     A
C149   C216    1.399   .     S
C150   C152    1.423   .     A
C150   C215    1.399   1_455 S
C153   H161    1.082   .     S
C153   C201    1.407   .     S
C154   H162    1.082   .     S
C154   C202    1.407   1_455 S
Cu155  O170    1.958   .     S
Cu155  O174    1.945   .     S
Cu155  O167    1.968   .     S
Cu155  Cu156   2.689   .     S
Cu155  N166    2.021   .     S
Cu155  O171    1.957   .     S
Cu156  N165    2.021   .     S
Cu156  O169    1.958   .     S
Cu156  O173    1.945   .     S
Cu156  O168    1.968   .     S
Cu156  O172    1.957   .     S
H163   N561    1.029   .     S
H164   N958    1.029   1_554 S
N165   H955    1.029   1_554 S
N165   N958    1.293   1_554 S
N166   N561    1.293   .     S
N166   H560    1.029   .     S
N175   H176    1.031   .     S
C177   H178    1.111   .     S
C177   N307    1.450   .     S
C177   H245    1.108   1_455 S
C177   H246    1.109   1_455 S
H179   C243    1.108   .     S
H180   C243    1.109   .     S
N181   H182    1.031   .     S
N181   C315    1.450   .     S
C183   H184    1.111   .     S
C183   H251    1.109   .     S
C183   H252    1.108   .     S
H185   C249    1.109   1_455 S
H186   C249    1.108   1_455 S
N187   H188    1.030   .     S
N187   C189    1.448   .     S
N187   C269    1.430   .     S
C189   H192    1.110   .     S
C189   H191    1.109   .     S
C189   H322    1.111   .     S
N193   H194    1.030   .     S
N193   C195    1.448   .     S
C195   H198    1.109   .     S
C195   H196    1.110   .     S
H197   C327    1.111   .     S
C199   O235    1.288   .     A
C199   C203    1.421   .     S
C199   O233    1.285   .     A
C200   O236    1.288   .     A
C200   C204    1.421   .     S
C200   O234    1.285   .     A
C201   C218    1.422   .     A
C201   N241    1.440   .     S
C202   N247    1.440   .     S
C202   C217    1.422   .     A
C202   C154    1.407   1_655 S
C204   C335    1.354   .     S
C204   N391    1.430   .     S
C205   C210    1.441   .     S
C205   O237    1.293   .     A
C205   O239    1.292   .     A
C206   C209    1.441   .     S
C206   O240    1.292   .     A
C206   O238    1.293   .     A
C207   H223    1.082   .     S
C207   C209    1.394   .     A
C207   C217    1.403   .     A
C208   H224    1.082   .     S
C208   C210    1.394   .     A
C208   C218    1.403   .     A
C209   C211    1.390   .     A
C210   C212    1.390   .     A
C211   C213    1.391   .     A
C211   H225    1.084   .     S
C212   H226    1.084   .     S
C212   C214    1.391   .     A
C213   C219    1.398   .     A
C213   C215    1.412   .     A
C214   C216    1.412   .     A
C214   C220    1.398   .     A
C215   C217    1.423   .     A
C215   C150    1.399   1_655 S
C216   C218    1.423   .     A
C219   H227    1.082   .     S
C219   C135    1.407   1_655 S
C220   H228    1.082   .     S
Cu221  O236    1.958   .     S
Cu221  O240    1.945   .     S
Cu221  O233    1.968   .     S
Cu221  Cu222   2.689   .     S
Cu221  N232    2.021   .     S
Cu221  O237    1.957   .     S
Cu222  N231    2.021   .     S
Cu222  O235    1.958   .     S
Cu222  O239    1.945   .     S
Cu222  O234    1.968   .     S
Cu222  O238    1.957   .     S
H229   N627    1.029   .     S
H230   N1024   1.029   1_554 S
N231   H1021   1.029   1_554 S
N231   N1024   1.293   1_554 S
N232   N627    1.293   .     S
N232   H626    1.029   .     S
N241   H242    1.031   .     S
C243   H244    1.111   .     S
C243   N373    1.450   .     S
H245   C177    1.108   1_655 S
H246   C177    1.109   1_655 S
N247   H248    1.031   .     S
N247   C381    1.450   .     S
C249   H250    1.111   .     S
C249   H185    1.109   1_655 S
C249   H186    1.108   1_655 S
N253   H254    1.030   .     S
N253   C255    1.448   .     S
N253   C335    1.430   .     S
C255   H258    1.110   .     S
C255   H257    1.109   .     S
C255   H388    1.111   .     S
N259   H260    1.030   .     S
N259   C261    1.448   .     S
C261   H264    1.109   .     S
C261   H262    1.110   .     S
H263   C393    1.111   .     S
C265   O301    1.288   .     A
C265   C269    1.421   .     S
C265   O299    1.285   .     A
C266   O302    1.288   .     A
C266   C270    1.421   .     S
C266   O300    1.285   .     A
C267   C284    1.422   .     A
C267   N307    1.440   .     S
C267   C351    1.407   1_455 S
C268   N313    1.440   .     S
C268   C283    1.422   .     A
C268   C352    1.407   .     S
C270   C5      1.354   1_565 S
C270   N61     1.430   1_565 S
C271   C276    1.441   .     S
C271   O303    1.293   .     A
C271   O305    1.292   .     A
C272   C275    1.441   .     S
C272   O306    1.292   .     A
C272   O304    1.293   .     A
C273   H289    1.082   .     S
C273   C275    1.394   .     A
C273   C283    1.403   .     A
C274   H290    1.082   .     S
C274   C276    1.394   .     A
C274   C284    1.403   .     A
C275   C277    1.390   .     A
C276   C278    1.390   .     A
C277   C279    1.391   .     A
C277   H291    1.084   .     S
C278   H292    1.084   .     S
C278   C280    1.391   .     A
C279   C285    1.398   .     A
C279   C281    1.412   .     A
C280   C282    1.412   .     A
C280   C286    1.398   .     A
C281   C283    1.423   .     A
C281   C348    1.399   .     S
C282   C284    1.423   .     A
C282   C347    1.399   1_455 S
C285   H293    1.082   .     S
C285   C333    1.407   .     S
C286   H294    1.082   .     S
C286   C334    1.407   1_455 S
Cu287  O302    1.958   .     S
Cu287  O306    1.945   .     S
Cu287  O299    1.968   .     S
Cu287  Cu288   2.689   .     S
Cu287  N298    2.021   .     S
Cu287  O303    1.957   .     S
Cu288  N297    2.021   .     S
Cu288  O301    1.958   .     S
Cu288  O305    1.945   .     S
Cu288  O300    1.968   .     S
Cu288  O304    1.957   .     S
H295   N693    1.029   .     S
H296   N1090   1.029   1_554 S
N297   H1087   1.029   1_554 S
N297   N1090   1.293   1_554 S
N298   N693    1.293   .     S
N298   H692    1.029   .     S
N307   H308    1.031   .     S
C309   H310    1.111   .     S
C309   N43     1.450   1_565 S
C309   H377    1.108   1_455 S
C309   H378    1.109   1_455 S
H311   C375    1.108   .     S
H312   C375    1.109   .     S
N313   H314    1.031   .     S
N313   C51     1.450   1_565 S
C315   H316    1.111   .     S
C315   H383    1.109   .     S
C315   H384    1.108   .     S
H317   C381    1.109   1_455 S
H318   C381    1.108   1_455 S
N319   H320    1.030   .     S
N319   C321    1.448   .     S
N319   C5      1.430   1_565 S
C321   H324    1.110   .     S
C321   H323    1.109   .     S
C321   H58     1.111   1_565 S
N325   H326    1.030   .     S
N325   C327    1.448   .     S
C327   H330    1.109   .     S
C327   H328    1.110   .     S
H329   C63     1.111   1_565 S
C331   O367    1.288   .     A
C331   C335    1.421   .     S
C331   O365    1.285   .     A
C332   O368    1.288   .     A
C332   C336    1.421   .     S
C332   O366    1.285   .     A
C333   C350    1.422   .     A
C333   N373    1.440   .     S
C334   N379    1.440   .     S
C334   C349    1.422   .     A
C334   C286    1.407   1_655 S
C336   C71     1.354   1_565 S
C336   N127    1.430   1_565 S
C337   C342    1.441   .     S
C337   O369    1.293   .     A
C337   O371    1.292   .     A
C338   C341    1.441   .     S
C338   O372    1.292   .     A
C338   O370    1.293   .     A
C339   H355    1.082   .     S
C339   C341    1.394   .     A
C339   C349    1.403   .     A
C340   H356    1.082   .     S
C340   C342    1.394   .     A
C340   C350    1.403   .     A
C341   C343    1.390   .     A
C342   C344    1.390   .     A
C343   C345    1.391   .     A
C343   H357    1.084   .     S
C344   H358    1.084   .     S
C344   C346    1.391   .     A
C345   C351    1.398   .     A
C345   C347    1.412   .     A
C346   C348    1.412   .     A
C346   C352    1.398   .     A
C347   C349    1.423   .     A
C347   C282    1.399   1_655 S
C348   C350    1.423   .     A
C351   H359    1.082   .     S
C351   C267    1.407   1_655 S
C352   H360    1.082   .     S
Cu353  O368    1.958   .     S
Cu353  O372    1.945   .     S
Cu353  O365    1.968   .     S
Cu353  Cu354   2.689   .     S
Cu353  N364    2.021   .     S
Cu353  O369    1.957   .     S
Cu354  N363    2.021   .     S
Cu354  O367    1.958   .     S
Cu354  O371    1.945   .     S
Cu354  O366    1.968   .     S
Cu354  O370    1.957   .     S
H361   N759    1.029   .     S
H362   N1156   1.029   1_554 S
N363   H1153   1.029   1_554 S
N363   N1156   1.293   1_554 S
N364   N759    1.293   .     S
N364   H758    1.029   .     S
N373   H374    1.031   .     S
C375   H376    1.111   .     S
C375   N109    1.450   1_565 S
H377   C309    1.108   1_655 S
H378   C309    1.109   1_655 S
N379   H380    1.031   .     S
N379   C117    1.450   1_565 S
C381   H382    1.111   .     S
C381   H317    1.109   1_655 S
C381   H318    1.108   1_655 S
N385   H386    1.030   .     S
N385   C387    1.448   .     S
N385   C71     1.430   1_565 S
C387   H390    1.110   .     S
C387   H389    1.109   .     S
C387   H124    1.111   1_565 S
N391   H392    1.030   .     S
N391   C393    1.448   .     S
C393   H396    1.109   .     S
C393   H394    1.110   .     S
H395   C129    1.111   1_565 S
C397   O433    1.288   .     A
C397   C401    1.421   .     S
C397   O431    1.285   .     A
C398   O434    1.288   .     A
C398   C402    1.421   .     S
C398   O432    1.285   .     A
C399   C416    1.422   .     A
C399   N439    1.440   .     S
C399   C483    1.407   1_455 S
C400   N445    1.440   .     S
C400   C415    1.422   .     A
C400   C484    1.407   .     S
C401   C666    1.354   1_545 S
C401   N715    1.430   1_545 S
C402   C533    1.354   .     S
C402   N589    1.430   .     S
C403   C408    1.441   .     S
C403   O435    1.293   .     A
C403   O437    1.292   .     A
C404   C407    1.441   .     S
C404   O438    1.292   .     A
C404   O436    1.293   .     A
C405   H421    1.082   .     S
C405   C407    1.394   .     A
C405   C415    1.403   .     A
C406   H422    1.082   .     S
C406   C408    1.394   .     A
C406   C416    1.403   .     A
C407   C409    1.390   .     A
C408   C410    1.390   .     A
C409   C411    1.391   .     A
C409   H423    1.084   .     S
C410   H424    1.084   .     S
C410   C412    1.391   .     A
C411   C417    1.398   .     A
C411   C413    1.412   .     A
C412   C414    1.412   .     A
C412   C418    1.398   .     A
C413   C415    1.423   .     A
C413   C480    1.399   .     S
C414   C416    1.423   .     A
C414   C479    1.399   1_455 S
C417   H425    1.082   .     S
C417   C465    1.407   .     S
C418   H426    1.082   .     S
C418   C466    1.407   1_455 S
Cu419  O434    1.958   .     S
Cu419  O438    1.945   .     S
Cu419  O431    1.968   .     S
Cu419  Cu420   2.689   .     S
Cu419  N430    2.021   .     S
Cu419  O435    1.957   .     S
Cu420  N429    2.021   .     S
Cu420  O433    1.958   .     S
Cu420  O437    1.945   .     S
Cu420  O432    1.968   .     S
Cu420  O436    1.957   .     S
H427   N825    1.029   .     S
N430   N825    1.293   .     S
N430   H824    1.029   .     S
N439   H440    1.031   .     S
N439   C705    1.450   1_545 S
C441   H442    1.111   .     S
C441   N571    1.450   .     S
C441   H509    1.108   1_455 S
C441   H510    1.109   1_455 S
H443   C507    1.108   .     S
H444   C507    1.109   .     S
N445   H446    1.031   .     S
N445   C579    1.450   .     S
C447   H448    1.111   .     S
C447   N709    1.450   1_545 S
C447   H515    1.109   .     S
C447   H516    1.108   .     S
H449   C513    1.109   1_455 S
H450   C513    1.108   1_455 S
N451   H452    1.030   .     S
N451   C453    1.448   .     S
N451   C533    1.430   .     S
C453   H456    1.110   .     S
C453   H455    1.109   .     S
C453   H586    1.111   .     S
H454   C717    1.111   1_545 S
N457   H458    1.030   .     S
N457   C459    1.448   .     S
N457   C666    1.430   1_545 S
C459   H462    1.109   .     S
C459   H460    1.110   .     S
C459   H725    1.111   1_545 S
H461   C591    1.111   .     S
C463   O499    1.288   .     A
C463   C467    1.421   .     S
C463   O497    1.285   .     A
C464   O500    1.288   .     A
C464   C468    1.421   .     S
C464   O498    1.285   .     A
C465   C482    1.422   .     A
C465   N505    1.440   .     S
C466   N511    1.440   .     S
C466   C481    1.422   .     A
C466   C418    1.407   1_655 S
C467   C732    1.354   1_545 S
C467   N781    1.430   1_545 S
C468   C599    1.354   .     S
C468   N655    1.430   .     S
C469   C474    1.441   .     S
C469   O501    1.293   .     A
C469   O503    1.292   .     A
C470   C473    1.441   .     S
C470   O504    1.292   .     A
C470   O502    1.293   .     A
C471   H487    1.082   .     S
C471   C473    1.394   .     A
C471   C481    1.403   .     A
C472   H488    1.082   .     S
C472   C474    1.394   .     A
C472   C482    1.403   .     A
C473   C475    1.390   .     A
C474   C476    1.390   .     A
C475   C477    1.391   .     A
C475   H489    1.084   .     S
C476   H490    1.084   .     S
C476   C478    1.391   .     A
C477   C483    1.398   .     A
C477   C479    1.412   .     A
C478   C480    1.412   .     A
C478   C484    1.398   .     A
C479   C481    1.423   .     A
C479   C414    1.399   1_655 S
C480   C482    1.423   .     A
C483   H491    1.082   .     S
C483   C399    1.407   1_655 S
C484   H492    1.082   .     S
Cu485  O500    1.958   .     S
Cu485  O504    1.945   .     S
Cu485  O497    1.968   .     S
Cu485  Cu486   2.689   .     S
Cu485  N496    2.021   .     S
Cu485  O501    1.957   .     S
Cu486  N495    2.021   .     S
Cu486  O499    1.958   .     S
Cu486  O503    1.945   .     S
Cu486  O498    1.968   .     S
Cu486  O502    1.957   .     S
H493   N891    1.029   .     S
N496   N891    1.293   .     S
N496   H890    1.029   .     S
N505   H506    1.031   .     S
N505   C771    1.450   1_545 S
C507   H508    1.111   .     S
C507   N637    1.450   .     S
H509   C441    1.108   1_655 S
H510   C441    1.109   1_655 S
N511   H512    1.031   .     S
N511   C645    1.450   .     S
C513   H514    1.111   .     S
C513   N775    1.450   1_545 S
C513   H449    1.109   1_655 S
C513   H450    1.108   1_655 S
N517   H518    1.030   .     S
N517   C519    1.448   .     S
N517   C599    1.430   .     S
C519   H522    1.110   .     S
C519   H521    1.109   .     S
C519   H652    1.111   .     S
H520   C783    1.111   1_545 S
N523   H524    1.030   .     S
N523   C525    1.448   .     S
N523   C732    1.430   1_545 S
C525   H528    1.109   .     S
C525   H526    1.110   .     S
C525   H791    1.111   1_545 S
H527   C657    1.111   .     S
C529   O565    1.288   .     A
C529   C533    1.421   .     S
C529   O563    1.285   .     A
C530   O566    1.288   .     A
C530   C534    1.421   .     S
C530   O564    1.285   .     A
C531   C548    1.422   .     A
C531   N571    1.440   .     S
C531   C615    1.407   1_455 S
C532   N577    1.440   .     S
C532   C547    1.422   .     A
C532   C616    1.407   .     S
C534   C665    1.354   .     S
C534   N721    1.430   .     S
C535   C540    1.441   .     S
C535   O567    1.293   .     A
C535   O569    1.292   .     A
C536   C539    1.441   .     S
C536   O570    1.292   .     A
C536   O568    1.293   .     A
C537   H553    1.082   .     S
C537   C539    1.394   .     A
C537   C547    1.403   .     A
C538   H554    1.082   .     S
C538   C540    1.394   .     A
C538   C548    1.403   .     A
C539   C541    1.390   .     A
C540   C542    1.390   .     A
C541   C543    1.391   .     A
C541   H555    1.084   .     S
C542   H556    1.084   .     S
C542   C544    1.391   .     A
C543   C549    1.398   .     A
C543   C545    1.412   .     A
C544   C546    1.412   .     A
C544   C550    1.398   .     A
C545   C547    1.423   .     A
C545   C612    1.399   .     S
C546   C548    1.423   .     A
C546   C611    1.399   1_455 S
C549   H557    1.082   .     S
C549   C597    1.407   .     S
C550   H558    1.082   .     S
C550   C598    1.407   1_455 S
Cu551  O566    1.958   .     S
Cu551  O570    1.945   .     S
Cu551  O563    1.968   .     S
Cu551  Cu552   2.689   .     S
Cu551  N562    2.021   .     S
Cu551  O567    1.957   .     S
Cu552  N561    2.021   .     S
Cu552  O565    1.958   .     S
Cu552  O569    1.945   .     S
Cu552  O564    1.968   .     S
Cu552  O568    1.957   .     S
H559   N957    1.029   .     S
N562   N957    1.293   .     S
N562   H956    1.029   .     S
N571   H572    1.031   .     S
C573   H574    1.111   .     S
C573   N703    1.450   .     S
C573   H641    1.108   1_455 S
C573   H642    1.109   1_455 S
H575   C639    1.108   .     S
H576   C639    1.109   .     S
N577   H578    1.031   .     S
N577   C711    1.450   .     S
C579   H580    1.111   .     S
C579   H647    1.109   .     S
C579   H648    1.108   .     S
H581   C645    1.109   1_455 S
H582   C645    1.108   1_455 S
N583   H584    1.030   .     S
N583   C585    1.448   .     S
N583   C665    1.430   .     S
C585   H588    1.110   .     S
C585   H587    1.109   .     S
C585   H718    1.111   .     S
N589   H590    1.030   .     S
N589   C591    1.448   .     S
C591   H594    1.109   .     S
C591   H592    1.110   .     S
H593   C723    1.111   .     S
C595   O631    1.288   .     A
C595   C599    1.421   .     S
C595   O629    1.285   .     A
C596   O632    1.288   .     A
C596   C600    1.421   .     S
C596   O630    1.285   .     A
C597   C614    1.422   .     A
C597   N637    1.440   .     S
C598   N643    1.440   .     S
C598   C613    1.422   .     A
C598   C550    1.407   1_655 S
C600   C731    1.354   .     S
C600   N787    1.430   .     S
C601   C606    1.441   .     S
C601   O633    1.293   .     A
C601   O635    1.292   .     A
C602   C605    1.441   .     S
C602   O636    1.292   .     A
C602   O634    1.293   .     A
C603   H619    1.082   .     S
C603   C605    1.394   .     A
C603   C613    1.403   .     A
C604   H620    1.082   .     S
C604   C606    1.394   .     A
C604   C614    1.403   .     A
C605   C607    1.390   .     A
C606   C608    1.390   .     A
C607   C609    1.391   .     A
C607   H621    1.084   .     S
C608   H622    1.084   .     S
C608   C610    1.391   .     A
C609   C615    1.398   .     A
C609   C611    1.412   .     A
C610   C612    1.412   .     A
C610   C616    1.398   .     A
C611   C613    1.423   .     A
C611   C546    1.399   1_655 S
C612   C614    1.423   .     A
C615   H623    1.082   .     S
C615   C531    1.407   1_655 S
C616   H624    1.082   .     S
Cu617  O632    1.958   .     S
Cu617  O636    1.945   .     S
Cu617  O629    1.968   .     S
Cu617  Cu618   2.689   .     S
Cu617  N628    2.021   .     S
Cu617  O633    1.957   .     S
Cu618  N627    2.021   .     S
Cu618  O631    1.958   .     S
Cu618  O635    1.945   .     S
Cu618  O630    1.968   .     S
Cu618  O634    1.957   .     S
H625   N1023   1.029   .     S
N628   N1023   1.293   .     S
N628   H1022   1.029   .     S
N637   H638    1.031   .     S
C639   H640    1.111   .     S
C639   N769    1.450   .     S
H641   C573    1.108   1_655 S
H642   C573    1.109   1_655 S
N643   H644    1.031   .     S
N643   C777    1.450   .     S
C645   H646    1.111   .     S
C645   H581    1.109   1_655 S
C645   H582    1.108   1_655 S
N649   H650    1.030   .     S
N649   C651    1.448   .     S
N649   C731    1.430   .     S
C651   H654    1.110   .     S
C651   H653    1.109   .     S
C651   H784    1.111   .     S
N655   H656    1.030   .     S
N655   C657    1.448   .     S
C657   H660    1.109   .     S
C657   H658    1.110   .     S
H659   C789    1.111   .     S
C661   O697    1.288   .     A
C661   C665    1.421   .     S
C661   O695    1.285   .     A
C662   O698    1.288   .     A
C662   C666    1.421   .     S
C662   O696    1.285   .     A
C663   C680    1.422   .     A
C663   N703    1.440   .     S
C663   C747    1.407   1_455 S
C664   N709    1.440   .     S
C664   C679    1.422   .     A
C664   C748    1.407   .     S
C666   C401    1.354   1_565 S
C666   N457    1.430   1_565 S
C667   C672    1.441   .     S
C667   O699    1.293   .     A
C667   O701    1.292   .     A
C668   C671    1.441   .     S
C668   O702    1.292   .     A
C668   O700    1.293   .     A
C669   H685    1.082   .     S
C669   C671    1.394   .     A
C669   C679    1.403   .     A
C670   H686    1.082   .     S
C670   C672    1.394   .     A
C670   C680    1.403   .     A
C671   C673    1.390   .     A
C672   C674    1.390   .     A
C673   C675    1.391   .     A
C673   H687    1.084   .     S
C674   H688    1.084   .     S
C674   C676    1.391   .     A
C675   C681    1.398   .     A
C675   C677    1.412   .     A
C676   C678    1.412   .     A
C676   C682    1.398   .     A
C677   C679    1.423   .     A
C677   C744    1.399   .     S
C678   C680    1.423   .     A
C678   C743    1.399   1_455 S
C681   H689    1.082   .     S
C681   C729    1.407   .     S
C682   H690    1.082   .     S
C682   C730    1.407   1_455 S
Cu683  O698    1.958   .     S
Cu683  O702    1.945   .     S
Cu683  O695    1.968   .     S
Cu683  Cu684   2.689   .     S
Cu683  N694    2.021   .     S
Cu683  O699    1.957   .     S
Cu684  N693    2.021   .     S
Cu684  O697    1.958   .     S
Cu684  O701    1.945   .     S
Cu684  O696    1.968   .     S
Cu684  O700    1.957   .     S
H691   N1089   1.029   .     S
N694   N1089   1.293   .     S
N694   H1088   1.029   .     S
N703   H704    1.031   .     S
C705   H706    1.111   .     S
C705   N439    1.450   1_565 S
C705   H773    1.108   1_455 S
C705   H774    1.109   1_455 S
H707   C771    1.108   .     S
H708   C771    1.109   .     S
N709   H710    1.031   .     S
N709   C447    1.450   1_565 S
C711   H712    1.111   .     S
C711   H779    1.109   .     S
C711   H780    1.108   .     S
H713   C777    1.109   1_455 S
H714   C777    1.108   1_455 S
N715   H716    1.030   .     S
N715   C717    1.448   .     S
N715   C401    1.430   1_565 S
C717   H720    1.110   .     S
C717   H719    1.109   .     S
C717   H454    1.111   1_565 S
N721   H722    1.030   .     S
N721   C723    1.448   .     S
C723   H726    1.109   .     S
C723   H724    1.110   .     S
H725   C459    1.111   1_565 S
C727   O763    1.288   .     A
C727   C731    1.421   .     S
C727   O761    1.285   .     A
C728   O764    1.288   .     A
C728   C732    1.421   .     S
C728   O762    1.285   .     A
C729   C746    1.422   .     A
C729   N769    1.440   .     S
C730   N775    1.440   .     S
C730   C745    1.422   .     A
C730   C682    1.407   1_655 S
C732   C467    1.354   1_565 S
C732   N523    1.430   1_565 S
C733   C738    1.441   .     S
C733   O765    1.293   .     A
C733   O767    1.292   .     A
C734   C737    1.441   .     S
C734   O768    1.292   .     A
C734   O766    1.293   .     A
C735   H751    1.082   .     S
C735   C737    1.394   .     A
C735   C745    1.403   .     A
C736   H752    1.082   .     S
C736   C738    1.394   .     A
C736   C746    1.403   .     A
C737   C739    1.390   .     A
C738   C740    1.390   .     A
C739   C741    1.391   .     A
C739   H753    1.084   .     S
C740   H754    1.084   .     S
C740   C742    1.391   .     A
C741   C747    1.398   .     A
C741   C743    1.412   .     A
C742   C744    1.412   .     A
C742   C748    1.398   .     A
C743   C745    1.423   .     A
C743   C678    1.399   1_655 S
C744   C746    1.423   .     A
C747   H755    1.082   .     S
C747   C663    1.407   1_655 S
C748   H756    1.082   .     S
Cu749  O764    1.958   .     S
Cu749  O768    1.945   .     S
Cu749  O761    1.968   .     S
Cu749  Cu750   2.689   .     S
Cu749  N760    2.021   .     S
Cu749  O765    1.957   .     S
Cu750  N759    2.021   .     S
Cu750  O763    1.958   .     S
Cu750  O767    1.945   .     S
Cu750  O762    1.968   .     S
Cu750  O766    1.957   .     S
H757   N1155   1.029   .     S
N760   N1155   1.293   .     S
N760   H1154   1.029   .     S
N769   H770    1.031   .     S
C771   H772    1.111   .     S
C771   N505    1.450   1_565 S
H773   C705    1.108   1_655 S
H774   C705    1.109   1_655 S
N775   H776    1.031   .     S
N775   C513    1.450   1_565 S
C777   H778    1.111   .     S
C777   H713    1.109   1_655 S
C777   H714    1.108   1_655 S
N781   H782    1.030   .     S
N781   C783    1.448   .     S
N781   C467    1.430   1_565 S
C783   H786    1.110   .     S
C783   H785    1.109   .     S
C783   H520    1.111   1_565 S
N787   H788    1.030   .     S
N787   C789    1.448   .     S
C789   H792    1.109   .     S
C789   H790    1.110   .     S
H791   C525    1.111   1_565 S
C793   O829    1.288   .     A
C793   C797    1.421   .     S
C793   O827    1.285   .     A
C794   O830    1.288   .     A
C794   C798    1.421   .     S
C794   O828    1.285   .     A
C795   C812    1.422   .     A
C795   N835    1.440   .     S
C795   C879    1.407   1_455 S
C796   N841    1.440   .     S
C796   C811    1.422   .     A
C796   C880    1.407   .     S
C797   C1062   1.354   1_545 S
C797   N1111   1.430   1_545 S
C798   C929    1.354   .     S
C798   N985    1.430   .     S
C799   C804    1.441   .     S
C799   O831    1.293   .     A
C799   O833    1.292   .     A
C800   C803    1.441   .     S
C800   O834    1.292   .     A
C800   O832    1.293   .     A
C801   H817    1.082   .     S
C801   C803    1.394   .     A
C801   C811    1.403   .     A
C802   H818    1.082   .     S
C802   C804    1.394   .     A
C802   C812    1.403   .     A
C803   C805    1.390   .     A
C804   C806    1.390   .     A
C805   C807    1.391   .     A
C805   H819    1.084   .     S
C806   H820    1.084   .     S
C806   C808    1.391   .     A
C807   C813    1.398   .     A
C807   C809    1.412   .     A
C808   C810    1.412   .     A
C808   C814    1.398   .     A
C809   C811    1.423   .     A
C809   C876    1.399   .     S
C810   C812    1.423   .     A
C810   C875    1.399   1_455 S
C813   H821    1.082   .     S
C813   C861    1.407   .     S
C814   H822    1.082   .     S
C814   C862    1.407   1_455 S
Cu815  O830    1.958   .     S
Cu815  O834    1.945   .     S
Cu815  O827    1.968   .     S
Cu815  Cu816   2.689   .     S
Cu815  N826    2.021   .     S
Cu815  O831    1.957   .     S
Cu816  N825    2.021   .     S
Cu816  O829    1.958   .     S
Cu816  O833    1.945   .     S
Cu816  O828    1.968   .     S
Cu816  O832    1.957   .     S
H823   N33     1.029   1_556 S
N826   N33     1.293   1_556 S
N826   H32     1.029   1_556 S
N835   H836    1.031   .     S
N835   C1101   1.450   1_545 S
C837   H838    1.111   .     S
C837   N967    1.450   .     S
C837   H905    1.108   1_455 S
C837   H906    1.109   1_455 S
H839   C903    1.108   .     S
H840   C903    1.109   .     S
N841   H842    1.031   .     S
N841   C975    1.450   .     S
C843   H844    1.111   .     S
C843   N1105   1.450   1_545 S
C843   H911    1.109   .     S
C843   H912    1.108   .     S
H845   C909    1.109   1_455 S
H846   C909    1.108   1_455 S
N847   H848    1.030   .     S
N847   C849    1.448   .     S
N847   C929    1.430   .     S
C849   H852    1.110   .     S
C849   H851    1.109   .     S
C849   H982    1.111   .     S
H850   C1113   1.111   1_545 S
N853   H854    1.030   .     S
N853   C855    1.448   .     S
N853   C1062   1.430   1_545 S
C855   H858    1.109   .     S
C855   H856    1.110   .     S
C855   H1121   1.111   1_545 S
H857   C987    1.111   .     S
C859   O895    1.288   .     A
C859   C863    1.421   .     S
C859   O893    1.285   .     A
C860   O896    1.288   .     A
C860   C864    1.421   .     S
C860   O894    1.285   .     A
C861   C878    1.422   .     A
C861   N901    1.440   .     S
C862   N907    1.440   .     S
C862   C877    1.422   .     A
C862   C814    1.407   1_655 S
C863   C1128   1.354   1_545 S
C863   N1177   1.430   1_545 S
C864   C995    1.354   .     S
C864   N1051   1.430   .     S
C865   C870    1.441   .     S
C865   O897    1.293   .     A
C865   O899    1.292   .     A
C866   C869    1.441   .     S
C866   O900    1.292   .     A
C866   O898    1.293   .     A
C867   H883    1.082   .     S
C867   C869    1.394   .     A
C867   C877    1.403   .     A
C868   H884    1.082   .     S
C868   C870    1.394   .     A
C868   C878    1.403   .     A
C869   C871    1.390   .     A
C870   C872    1.390   .     A
C871   C873    1.391   .     A
C871   H885    1.084   .     S
C872   H886    1.084   .     S
C872   C874    1.391   .     A
C873   C879    1.398   .     A
C873   C875    1.412   .     A
C874   C876    1.412   .     A
C874   C880    1.398   .     A
C875   C877    1.423   .     A
C875   C810    1.399   1_655 S
C876   C878    1.423   .     A
C879   H887    1.082   .     S
C879   C795    1.407   1_655 S
C880   H888    1.082   .     S
Cu881  O896    1.958   .     S
Cu881  O900    1.945   .     S
Cu881  O893    1.968   .     S
Cu881  Cu882   2.689   .     S
Cu881  N892    2.021   .     S
Cu881  O897    1.957   .     S
Cu882  N891    2.021   .     S
Cu882  O895    1.958   .     S
Cu882  O899    1.945   .     S
Cu882  O894    1.968   .     S
Cu882  O898    1.957   .     S
H889   N99     1.029   1_556 S
N892   N99     1.293   1_556 S
N892   H98     1.029   1_556 S
N901   H902    1.031   .     S
N901   C1167   1.450   1_545 S
C903   H904    1.111   .     S
C903   N1033   1.450   .     S
H905   C837    1.108   1_655 S
H906   C837    1.109   1_655 S
N907   H908    1.031   .     S
N907   C1041   1.450   .     S
C909   H910    1.111   .     S
C909   N1171   1.450   1_545 S
C909   H845    1.109   1_655 S
C909   H846    1.108   1_655 S
N913   H914    1.030   .     S
N913   C915    1.448   .     S
N913   C995    1.430   .     S
C915   H918    1.110   .     S
C915   H917    1.109   .     S
C915   H1048   1.111   .     S
H916   C1179   1.111   1_545 S
N919   H920    1.030   .     S
N919   C921    1.448   .     S
N919   C1128   1.430   1_545 S
C921   H924    1.109   .     S
C921   H922    1.110   .     S
C921   H1187   1.111   1_545 S
H923   C1053   1.111   .     S
C925   O961    1.288   .     A
C925   C929    1.421   .     S
C925   O959    1.285   .     A
C926   O962    1.288   .     A
C926   C930    1.421   .     S
C926   O960    1.285   .     A
C927   C944    1.422   .     A
C927   N967    1.440   .     S
C927   C1011   1.407   1_455 S
C928   N973    1.440   .     S
C928   C943    1.422   .     A
C928   C1012   1.407   .     S
C930   C1061   1.354   .     S
C930   N1117   1.430   .     S
C931   C936    1.441   .     S
C931   O963    1.293   .     A
C931   O965    1.292   .     A
C932   C935    1.441   .     S
C932   O966    1.292   .     A
C932   O964    1.293   .     A
C933   H949    1.082   .     S
C933   C935    1.394   .     A
C933   C943    1.403   .     A
C934   H950    1.082   .     S
C934   C936    1.394   .     A
C934   C944    1.403   .     A
C935   C937    1.390   .     A
C936   C938    1.390   .     A
C937   C939    1.391   .     A
C937   H951    1.084   .     S
C938   H952    1.084   .     S
C938   C940    1.391   .     A
C939   C945    1.398   .     A
C939   C941    1.412   .     A
C940   C942    1.412   .     A
C940   C946    1.398   .     A
C941   C943    1.423   .     A
C941   C1008   1.399   .     S
C942   C944    1.423   .     A
C942   C1007   1.399   1_455 S
C945   H953    1.082   .     S
C945   C993    1.407   .     S
C946   H954    1.082   .     S
C946   C994    1.407   1_455 S
Cu947  O962    1.958   .     S
Cu947  O966    1.945   .     S
Cu947  O959    1.968   .     S
Cu947  Cu948   2.689   .     S
Cu947  N958    2.021   .     S
Cu947  O963    1.957   .     S
Cu948  N957    2.021   .     S
Cu948  O961    1.958   .     S
Cu948  O965    1.945   .     S
Cu948  O960    1.968   .     S
Cu948  O964    1.957   .     S
H955   N165    1.029   1_556 S
N958   N165    1.293   1_556 S
N958   H164    1.029   1_556 S
N967   H968    1.031   .     S
C969   H970    1.111   .     S
C969   N1099   1.450   .     S
C969   H1037   1.108   1_455 S
C969   H1038   1.109   1_455 S
H971   C1035   1.108   .     S
H972   C1035   1.109   .     S
N973   H974    1.031   .     S
N973   C1107   1.450   .     S
C975   H976    1.111   .     S
C975   H1043   1.109   .     S
C975   H1044   1.108   .     S
H977   C1041   1.109   1_455 S
H978   C1041   1.108   1_455 S
N979   H980    1.030   .     S
N979   C981    1.448   .     S
N979   C1061   1.430   .     S
C981   H984    1.110   .     S
C981   H983    1.109   .     S
C981   H1114   1.111   .     S
N985   H986    1.030   .     S
N985   C987    1.448   .     S
C987   H990    1.109   .     S
C987   H988    1.110   .     S
H989   C1119   1.111   .     S
C991   O1027   1.288   .     A
C991   C995    1.421   .     S
C991   O1025   1.285   .     A
C992   O1028   1.288   .     A
C992   C996    1.421   .     S
C992   O1026   1.285   .     A
C993   C1010   1.422   .     A
C993   N1033   1.440   .     S
C994   N1039   1.440   .     S
C994   C1009   1.422   .     A
C994   C946    1.407   1_655 S
C996   C1127   1.354   .     S
C996   N1183   1.430   .     S
C997   C1002   1.441   .     S
C997   O1029   1.293   .     A
C997   O1031   1.292   .     A
C998   C1001   1.441   .     S
C998   O1032   1.292   .     A
C998   O1030   1.293   .     A
C999   H1015   1.082   .     S
C999   C1001   1.394   .     A
C999   C1009   1.403   .     A
C1000  H1016   1.082   .     S
C1000  C1002   1.394   .     A
C1000  C1010   1.403   .     A
C1001  C1003   1.390   .     A
C1002  C1004   1.390   .     A
C1003  C1005   1.391   .     A
C1003  H1017   1.084   .     S
C1004  H1018   1.084   .     S
C1004  C1006   1.391   .     A
C1005  C1011   1.398   .     A
C1005  C1007   1.412   .     A
C1006  C1008   1.412   .     A
C1006  C1012   1.398   .     A
C1007  C1009   1.423   .     A
C1007  C942    1.399   1_655 S
C1008  C1010   1.423   .     A
C1011  H1019   1.082   .     S
C1011  C927    1.407   1_655 S
C1012  H1020   1.082   .     S
Cu1013 O1028   1.958   .     S
Cu1013 O1032   1.945   .     S
Cu1013 O1025   1.968   .     S
Cu1013 Cu1014  2.689   .     S
Cu1013 N1024   2.021   .     S
Cu1013 O1029   1.957   .     S
Cu1014 N1023   2.021   .     S
Cu1014 O1027   1.958   .     S
Cu1014 O1031   1.945   .     S
Cu1014 O1026   1.968   .     S
Cu1014 O1030   1.957   .     S
H1021  N231    1.029   1_556 S
N1024  N231    1.293   1_556 S
N1024  H230    1.029   1_556 S
N1033  H1034   1.031   .     S
C1035  H1036   1.111   .     S
C1035  N1165   1.450   .     S
H1037  C969    1.108   1_655 S
H1038  C969    1.109   1_655 S
N1039  H1040   1.031   .     S
N1039  C1173   1.450   .     S
C1041  H1042   1.111   .     S
C1041  H977    1.109   1_655 S
C1041  H978    1.108   1_655 S
N1045  H1046   1.030   .     S
N1045  C1047   1.448   .     S
N1045  C1127   1.430   .     S
C1047  H1050   1.110   .     S
C1047  H1049   1.109   .     S
C1047  H1180   1.111   .     S
N1051  H1052   1.030   .     S
N1051  C1053   1.448   .     S
C1053  H1056   1.109   .     S
C1053  H1054   1.110   .     S
H1055  C1185   1.111   .     S
C1057  O1093   1.288   .     A
C1057  C1061   1.421   .     S
C1057  O1091   1.285   .     A
C1058  O1094   1.288   .     A
C1058  C1062   1.421   .     S
C1058  O1092   1.285   .     A
C1059  C1076   1.422   .     A
C1059  N1099   1.440   .     S
C1059  C1143   1.407   1_455 S
C1060  N1105   1.440   .     S
C1060  C1075   1.422   .     A
C1060  C1144   1.407   .     S
C1062  C797    1.354   1_565 S
C1062  N853    1.430   1_565 S
C1063  C1068   1.441   .     S
C1063  O1095   1.293   .     A
C1063  O1097   1.292   .     A
C1064  C1067   1.441   .     S
C1064  O1098   1.292   .     A
C1064  O1096   1.293   .     A
C1065  H1081   1.082   .     S
C1065  C1067   1.394   .     A
C1065  C1075   1.403   .     A
C1066  H1082   1.082   .     S
C1066  C1068   1.394   .     A
C1066  C1076   1.403   .     A
C1067  C1069   1.390   .     A
C1068  C1070   1.390   .     A
C1069  C1071   1.391   .     A
C1069  H1083   1.084   .     S
C1070  H1084   1.084   .     S
C1070  C1072   1.391   .     A
C1071  C1077   1.398   .     A
C1071  C1073   1.412   .     A
C1072  C1074   1.412   .     A
C1072  C1078   1.398   .     A
C1073  C1075   1.423   .     A
C1073  C1140   1.399   .     S
C1074  C1076   1.423   .     A
C1074  C1139   1.399   1_455 S
C1077  H1085   1.082   .     S
C1077  C1125   1.407   .     S
C1078  H1086   1.082   .     S
C1078  C1126   1.407   1_455 S
Cu1079 O1094   1.958   .     S
Cu1079 O1098   1.945   .     S
Cu1079 O1091   1.968   .     S
Cu1079 Cu1080  2.689   .     S
Cu1079 N1090   2.021   .     S
Cu1079 O1095   1.957   .     S
Cu1080 N1089   2.021   .     S
Cu1080 O1093   1.958   .     S
Cu1080 O1097   1.945   .     S
Cu1080 O1092   1.968   .     S
Cu1080 O1096   1.957   .     S
H1087  N297    1.029   1_556 S
N1090  N297    1.293   1_556 S
N1090  H296    1.029   1_556 S
N1099  H1100   1.031   .     S
C1101  H1102   1.111   .     S
C1101  N835    1.450   1_565 S
C1101  H1169   1.108   1_455 S
C1101  H1170   1.109   1_455 S
H1103  C1167   1.108   .     S
H1104  C1167   1.109   .     S
N1105  H1106   1.031   .     S
N1105  C843    1.450   1_565 S
C1107  H1108   1.111   .     S
C1107  H1175   1.109   .     S
C1107  H1176   1.108   .     S
H1109  C1173   1.109   1_455 S
H1110  C1173   1.108   1_455 S
N1111  H1112   1.030   .     S
N1111  C1113   1.448   .     S
N1111  C797    1.430   1_565 S
C1113  H1116   1.110   .     S
C1113  H1115   1.109   .     S
C1113  H850    1.111   1_565 S
N1117  H1118   1.030   .     S
N1117  C1119   1.448   .     S
C1119  H1122   1.109   .     S
C1119  H1120   1.110   .     S
H1121  C855    1.111   1_565 S
C1123  O1159   1.288   .     A
C1123  C1127   1.421   .     S
C1123  O1157   1.285   .     A
C1124  O1160   1.288   .     A
C1124  C1128   1.421   .     S
C1124  O1158   1.285   .     A
C1125  C1142   1.422   .     A
C1125  N1165   1.440   .     S
C1126  N1171   1.440   .     S
C1126  C1141   1.422   .     A
C1126  C1078   1.407   1_655 S
C1128  C863    1.354   1_565 S
C1128  N919    1.430   1_565 S
C1129  C1134   1.441   .     S
C1129  O1161   1.293   .     A
C1129  O1163   1.292   .     A
C1130  C1133   1.441   .     S
C1130  O1164   1.292   .     A
C1130  O1162   1.293   .     A
C1131  H1147   1.082   .     S
C1131  C1133   1.394   .     A
C1131  C1141   1.403   .     A
C1132  H1148   1.082   .     S
C1132  C1134   1.394   .     A
C1132  C1142   1.403   .     A
C1133  C1135   1.390   .     A
C1134  C1136   1.390   .     A
C1135  C1137   1.391   .     A
C1135  H1149   1.084   .     S
C1136  H1150   1.084   .     S
C1136  C1138   1.391   .     A
C1137  C1143   1.398   .     A
C1137  C1139   1.412   .     A
C1138  C1140   1.412   .     A
C1138  C1144   1.398   .     A
C1139  C1141   1.423   .     A
C1139  C1074   1.399   1_655 S
C1140  C1142   1.423   .     A
C1143  H1151   1.082   .     S
C1143  C1059   1.407   1_655 S
C1144  H1152   1.082   .     S
Cu1145 O1160   1.958   .     S
Cu1145 O1164   1.945   .     S
Cu1145 O1157   1.968   .     S
Cu1145 Cu1146  2.689   .     S
Cu1145 N1156   2.021   .     S
Cu1145 O1161   1.957   .     S
Cu1146 N1155   2.021   .     S
Cu1146 O1159   1.958   .     S
Cu1146 O1163   1.945   .     S
Cu1146 O1158   1.968   .     S
Cu1146 O1162   1.957   .     S
H1153  N363    1.029   1_556 S
N1156  N363    1.293   1_556 S
N1156  H362    1.029   1_556 S
N1165  H1166   1.031   .     S
C1167  H1168   1.111   .     S
C1167  N901    1.450   1_565 S
H1169  C1101   1.108   1_655 S
H1170  C1101   1.109   1_655 S
N1171  H1172   1.031   .     S
N1171  C909    1.450   1_565 S
C1173  H1174   1.111   .     S
C1173  H1109   1.109   1_655 S
C1173  H1110   1.108   1_655 S
N1177  H1178   1.030   .     S
N1177  C1179   1.448   .     S
N1177  C863    1.430   1_565 S
C1179  H1182   1.110   .     S
C1179  H1181   1.109   .     S
C1179  H916    1.111   1_565 S
N1183  H1184   1.030   .     S
N1183  C1185   1.448   .     S
C1185  H1188   1.109   .     S
C1185  H1186   1.110   .     S
H1187  C921    1.111   1_565 S
