data_str_m1_o1_o17_pcu_sym.8
_audit_creation_date              2020-01-03
_audit_creation_method            'Materials Studio'
_symmetry_space_group_name_H-M    'P1'
_symmetry_Int_Tables_number       1
_symmetry_cell_setting            triclinic
loop_
_symmetry_equiv_pos_as_xyz
  x,y,z
_cell_length_a                    36.5685
_cell_length_b                    36.5682
_cell_length_c                    34.4247
_cell_angle_alpha                 90.0030
_cell_angle_beta                  90.0027
_cell_angle_gamma                 89.8398
loop_
_atom_site_label
_atom_site_type_symbol
_atom_site_fract_x
_atom_site_fract_y
_atom_site_fract_z
_atom_site_U_iso_or_equiv
_atom_site_adp_type
_atom_site_occupancy
C1     C     0.01660   0.27884   0.41817   0.00000  Uiso   1.00
C2     C     0.27261   0.47548   0.08157   0.00000  Uiso   1.00
C3     C     0.22275   0.48031   0.54105   0.00000  Uiso   1.00
C4     C     0.02058   0.27672   0.45893   0.00000  Uiso   1.00
C5     C     0.48018   0.22280   0.54105   0.00000  Uiso   1.00
C6     C     0.22317   0.47958   0.45893   0.00000  Uiso   1.00
C7     C     0.27731   0.01968   0.54105   0.00000  Uiso   1.00
C8     C     0.27626   0.47878   0.95894   0.00000  Uiso   1.00
C9     C     0.22369   0.02115   0.04095   0.00000  Uiso   1.00
C10    C     0.02126   0.22378   0.95894   0.00000  Uiso   1.00
C11    C     0.47881   0.27628   0.04095   0.00000  Uiso   1.00
C12    C     0.22374   0.02122   0.95894   0.00000  Uiso   1.00
C13    C     0.47535   0.27248   0.91833   0.00000  Uiso   1.00
C14    C     0.27631   0.47885   0.04095   0.00000  Uiso   1.00
C15    C     0.47875   0.27623   0.95894   0.00000  Uiso   1.00
C16    C     0.02119   0.22372   0.04095   0.00000  Uiso   1.00
C17    C     0.09808   0.34809   0.25004   0.00000  Uiso   1.00
C18    C     0.40176   0.15207   0.75019   0.00000  Uiso   1.00
C19    C     0.15194   0.09806   0.25009   0.00000  Uiso   1.00
C20    C     0.34806   0.40193   0.75004   0.00000  Uiso   1.00
C21    C     0.40192   0.15191   0.25004   0.00000  Uiso   1.00
C22    C     0.09824   0.34793   0.75020   0.00000  Uiso   1.00
C23    C     0.34806   0.40194   0.25009   0.00000  Uiso   1.00
C24    C     0.02455   0.22742   0.08158   0.00000  Uiso   1.00
C25    C     0.15194   0.09807   0.75004   0.00000  Uiso   1.00
C26    C     0.09807   0.15194   0.75004   0.00000  Uiso   1.00
C27    C     0.40194   0.34806   0.25009   0.00000  Uiso   1.00
C28    C     0.15207   0.40176   0.75020   0.00000  Uiso   1.00
C29    C     0.34809   0.09808   0.25004   0.00000  Uiso   1.00
C30    C     0.40193   0.34806   0.75004   0.00000  Uiso   1.00
C31    C     0.09806   0.15194   0.25009   0.00000  Uiso   1.00
C32    C     0.34793   0.09824   0.75019   0.00000  Uiso   1.00
C33    C     0.15191   0.40192   0.25004   0.00000  Uiso   1.00
C34    C     0.00000   0.24998   0.47944   0.00000  Uiso   1.00
C35    C     0.27251   0.47538   0.91833   0.00000  Uiso   1.00
C36    C     0.00000   0.24998   0.52047   0.00000  Uiso   1.00
C37    C     0.25003   0.49999   0.47944   0.00000  Uiso   1.00
C38    C     0.25003   0.49999   0.52047   0.00000  Uiso   1.00
C39    C     0.25000   0.00000   0.97946   0.00000  Uiso   1.00
C40    C     0.25000   0.00000   0.02044   0.00000  Uiso   1.00
C41    C     0.00001   0.25000   0.97946   0.00000  Uiso   1.00
C42    C     0.00000   0.25000   0.02044   0.00000  Uiso   1.00
C43    C     0.22739   0.02452   0.08158   0.00000  Uiso   1.00
C44    C     0.02466   0.22753   0.91833   0.00000  Uiso   1.00
C45    C     0.47545   0.27256   0.08158   0.00000  Uiso   1.00
C46    C     0.00000   0.24999   0.39817   0.00000  Uiso   1.00
C47    C    -0.00000   0.24999   0.60178   0.00000  Uiso   1.00
C48    C     0.25001   0.00000   0.39817   0.00000  Uiso   1.00
C49    C     0.48485   0.22045   0.58168   0.00000  Uiso   1.00
C50    C     0.25002   0.00000   0.60178   0.00000  Uiso   1.00
C51    C     0.25000   0.00000   0.89822   0.00000  Uiso   1.00
C52    C     0.25000   0.00000   0.10171   0.00000  Uiso   1.00
C53    C     0.00000   0.25000   0.89822   0.00000  Uiso   1.00
C54    C     0.00000   0.25000   0.10171   0.00000  Uiso   1.00
C55    C     0.45510   0.20039   0.47978   0.00000  Uiso   1.00
C56    C     0.04427   0.30005   0.52055   0.00000  Uiso   1.00
C57    C     0.29989   0.04461   0.47978   0.00000  Uiso   1.00
C58    C     0.19973   0.45599   0.52053   0.00000  Uiso   1.00
C59    C     0.04491   0.29957   0.47979   0.00000  Uiso   1.00
C60    C     0.22106   0.48358   0.41816   0.00000  Uiso   1.00
C61    C     0.45574   0.19991   0.52054   0.00000  Uiso   1.00
C62    C     0.20018   0.45537   0.47977   0.00000  Uiso   1.00
C63    C     0.30034   0.04399   0.52054   0.00000  Uiso   1.00
C64    C     0.30567   0.46266   0.97956   0.00000  Uiso   1.00
C65    C     0.19429   0.03728   0.02031   0.00000  Uiso   1.00
C66    C     0.03742   0.19439   0.97956   0.00000  Uiso   1.00
C67    C     0.46264   0.30565   0.02031   0.00000  Uiso   1.00
C68    C     0.19433   0.03734   0.97956   0.00000  Uiso   1.00
C69    C     0.30571   0.46273   0.02031   0.00000  Uiso   1.00
C70    C     0.46259   0.30562   0.97957   0.00000  Uiso   1.00
C71    C     0.27964   0.01501   0.58169   0.00000  Uiso   1.00
C72    C     0.03735   0.19434   0.02031   0.00000  Uiso   1.00
C73    C     0.25000   0.00000   0.35582   0.00000  Uiso   1.00
C74    C     0.25000  -0.00000   0.64416   0.00000  Uiso   1.00
C75    C     0.00000   0.25000   0.35582   0.00000  Uiso   1.00
C76    C    -0.00000   0.25000   0.64416   0.00000  Uiso   1.00
C77    C     0.00000   0.25000   0.85585   0.00000  Uiso   1.00
C78    C     0.00000   0.25000   0.14413   0.00000  Uiso   1.00
C79    C     0.25000   0.00000   0.85585   0.00000  Uiso   1.00
C80    C     0.25000   0.00000   0.14413   0.00000  Uiso   1.00
C81    C     0.17999   0.06998   0.25003   0.00000  Uiso   1.00
C82    C     0.48340   0.22114   0.41816   0.00000  Uiso   1.00
C83    C     0.31999   0.43000   0.75001   0.00000  Uiso   1.00
C84    C     0.42999   0.17998   0.25001   0.00000  Uiso   1.00
C85    C     0.07008   0.31996   0.75009   0.00000  Uiso   1.00
C86    C     0.32001   0.43002   0.25003   0.00000  Uiso   1.00
C87    C     0.18001   0.07000   0.75001   0.00000  Uiso   1.00
C88    C     0.07001   0.32002   0.25001   0.00000  Uiso   1.00
C89    C     0.42992   0.18004   0.75009   0.00000  Uiso   1.00
C90    C     0.18004   0.42992   0.75009   0.00000  Uiso   1.00
C91    C     0.32002   0.07001   0.25001   0.00000  Uiso   1.00
C92    C     0.43000   0.32000   0.75001   0.00000  Uiso   1.00
C93    C     0.01514   0.27953   0.58168   0.00000  Uiso   1.00
C94    C     0.06998   0.17999   0.25003   0.00000  Uiso   1.00
C95    C     0.31996   0.07008   0.75009   0.00000  Uiso   1.00
C96    C     0.17998   0.42999   0.25001   0.00000  Uiso   1.00
C97    C     0.07000   0.18000   0.75001   0.00000  Uiso   1.00
C98    C     0.43002   0.32001   0.25003   0.00000  Uiso   1.00
C99    C     0.11513   0.41185   0.25598   0.00000  Uiso   1.00
C100   C     0.36385   0.10922   0.71489   0.00000  Uiso   1.00
C101   C     0.09802   0.12510   0.27929   0.00000  Uiso   1.00
C102   C     0.41179   0.38477   0.74395   0.00000  Uiso   1.00
C103   C     0.38487   0.08815   0.25598   0.00000  Uiso   1.00
C104   C     0.27897   0.01642   0.41816   0.00000  Uiso   1.00
C105   C     0.13580   0.39112   0.71496   0.00000  Uiso   1.00
C106   C     0.40197   0.37489   0.27931   0.00000  Uiso   1.00
C107   C     0.08821   0.11523   0.74394   0.00000  Uiso   1.00
C108   C     0.11523   0.08821   0.74394   0.00000  Uiso   1.00
C109   C     0.37489   0.40197   0.27931   0.00000  Uiso   1.00
C110   C     0.10887   0.36419   0.71496   0.00000  Uiso   1.00
C111   C     0.41185   0.11513   0.25598   0.00000  Uiso   1.00
C112   C     0.38477   0.41179   0.74395   0.00000  Uiso   1.00
C113   C     0.12510   0.09802   0.27929   0.00000  Uiso   1.00
C114   C     0.39077   0.13615   0.71489   0.00000  Uiso   1.00
C115   C     0.22041   0.48499   0.58168   0.00000  Uiso   1.00
C116   C     0.08815   0.38487   0.25598   0.00000  Uiso   1.00
C117   C     0.38570   0.14128   0.78553   0.00000  Uiso   1.00
C118   C     0.13487   0.33815   0.24417   0.00000  Uiso   1.00
C119   C     0.33821   0.36523   0.75617   0.00000  Uiso   1.00
C120   C     0.15211   0.12505   0.22106   0.00000  Uiso   1.00
C121   C     0.11465   0.35837   0.78548   0.00000  Uiso   1.00
C122   C     0.36513   0.16185   0.24417   0.00000  Uiso   1.00
C123   C     0.16179   0.13477   0.75618   0.00000  Uiso   1.00
C124   C     0.34790   0.37496   0.22104   0.00000  Uiso   1.00
C125   C     0.37496   0.34790   0.22104   0.00000  Uiso   1.00
C126   C     0.22749   0.02463   0.91833   0.00000  Uiso   1.00
C127   C     0.13477   0.16179   0.75618   0.00000  Uiso   1.00
C128   C     0.33815   0.13487   0.24417   0.00000  Uiso   1.00
C129   C     0.14163   0.38535   0.78548   0.00000  Uiso   1.00
C130   C     0.12505   0.15211   0.22106   0.00000  Uiso   1.00
C131   C     0.36523   0.33821   0.75617   0.00000  Uiso   1.00
C132   C     0.16185   0.36513   0.24417   0.00000  Uiso   1.00
C133   C     0.35872   0.11431   0.78553   0.00000  Uiso   1.00
C134   C     0.47943   0.22325   0.45893   0.00000  Uiso   1.00
C135   C     0.01982   0.27716   0.54105   0.00000  Uiso   1.00
C136   C     0.27688   0.02041   0.45893   0.00000  Uiso   1.00
Cl137  Cl    0.41889   0.17683   0.45635   0.00000  Uiso   1.00
Cl138  Cl    0.15371   0.05169   0.04421   0.00000  Uiso   1.00
Cl139  Cl    0.05205   0.15392   0.95559   0.00000  Uiso   1.00
Cl140  Cl    0.44815   0.34620   0.04422   0.00000  Uiso   1.00
Cl141  Cl    0.15384   0.05191   0.95560   0.00000  Uiso   1.00
Cl142  Cl    0.34630   0.44831   0.04422   0.00000  Uiso   1.00
Cl143  Cl    0.44798   0.34610   0.95560   0.00000  Uiso   1.00
Cl144  Cl    0.05181   0.15377   0.04421   0.00000  Uiso   1.00
Cl145  Cl    0.10283   0.45791   0.26525   0.00000  Uiso   1.00
Cl146  Cl    0.35147   0.08823   0.67051   0.00000  Uiso   1.00
Cl147  Cl    0.06377   0.12515   0.31558   0.00000  Uiso   1.00
Cl148  Cl    0.07919   0.32473   0.54487   0.00000  Uiso   1.00
Cl149  Cl    0.45780   0.39692   0.73454   0.00000  Uiso   1.00
Cl150  Cl    0.39717   0.04209   0.26525   0.00000  Uiso   1.00
Cl151  Cl    0.14779   0.41252   0.67067   0.00000  Uiso   1.00
Cl152  Cl    0.43621   0.37483   0.31561   0.00000  Uiso   1.00
Cl153  Cl    0.04220   0.10309   0.73452   0.00000  Uiso   1.00
Cl154  Cl    0.10309   0.04220   0.73452   0.00000  Uiso   1.00
Cl155  Cl    0.37483   0.43621   0.31561   0.00000  Uiso   1.00
Cl156  Cl    0.08747   0.35220   0.67068   0.00000  Uiso   1.00
Cl157  Cl    0.45791   0.10283   0.26525   0.00000  Uiso   1.00
Cl158  Cl    0.39692   0.45780   0.73454   0.00000  Uiso   1.00
Cl159  Cl    0.32367   0.08067   0.45635   0.00000  Uiso   1.00
Cl160  Cl    0.12516   0.06377   0.31558   0.00000  Uiso   1.00
Cl161  Cl    0.41170   0.14857   0.67049   0.00000  Uiso   1.00
Cl162  Cl    0.04209   0.39717   0.26525   0.00000  Uiso   1.00
Cl163  Cl    0.39788   0.16275   0.82979   0.00000  Uiso   1.00
Cl164  Cl    0.14719   0.29208   0.23501   0.00000  Uiso   1.00
Cl165  Cl    0.29221   0.35310   0.76566   0.00000  Uiso   1.00
Cl166  Cl    0.18675   0.12546   0.18523   0.00000  Uiso   1.00
Cl167  Cl    0.10287   0.33647   0.82962   0.00000  Uiso   1.00
Cl168  Cl    0.35281   0.20792   0.23501   0.00000  Uiso   1.00
Cl169  Cl    0.20779   0.14689   0.76568   0.00000  Uiso   1.00
Cl170  Cl    0.17488   0.42117   0.54484   0.00000  Uiso   1.00
Cl171  Cl    0.31327   0.37456   0.18519   0.00000  Uiso   1.00
Cl172  Cl    0.37456   0.31327   0.18520   0.00000  Uiso   1.00
Cl173  Cl    0.14689   0.20779   0.76568   0.00000  Uiso   1.00
Cl174  Cl    0.29208   0.14719   0.23501   0.00000  Uiso   1.00
Cl175  Cl    0.16353   0.39714   0.82962   0.00000  Uiso   1.00
Cl176  Cl    0.12546   0.18675   0.18523   0.00000  Uiso   1.00
Cl177  Cl    0.35310   0.29221   0.76566   0.00000  Uiso   1.00
Cl178  Cl    0.20792   0.35280   0.23501   0.00000  Uiso   1.00
Cl179  Cl    0.33725   0.10214   0.82980   0.00000  Uiso   1.00
Cl180  Cl    0.02656   0.31924   0.39157   0.00000  Uiso   1.00
Cl181  Cl    0.08114   0.32312   0.45638   0.00000  Uiso   1.00
Cl182  Cl    0.47814   0.17908   0.60752   0.00000  Uiso   1.00
Cl183  Cl    0.18061   0.47385   0.39155   0.00000  Uiso   1.00
Cl184  Cl    0.32102   0.02156   0.60756   0.00000  Uiso   1.00
Cl185  Cl    0.47343   0.18075   0.39154   0.00000  Uiso   1.00
Cl186  Cl    0.02180   0.32091   0.60749   0.00000  Uiso   1.00
Cl187  Cl    0.31941   0.02615   0.39153   0.00000  Uiso   1.00
Cl188  Cl    0.17900   0.47848   0.60751   0.00000  Uiso   1.00
Cl189  Cl    0.20974   0.06286   0.89258   0.00000  Uiso   1.00
Cl190  Cl    0.29050   0.43733   0.10727   0.00000  Uiso   1.00
Cl191  Cl    0.43710   0.29019   0.89258   0.00000  Uiso   1.00
Cl192  Cl    0.42081   0.17522   0.54484   0.00000  Uiso   1.00
Cl193  Cl    0.06272   0.20958   0.10728   0.00000  Uiso   1.00
Cl194  Cl    0.29026   0.43714   0.89258   0.00000  Uiso   1.00
Cl195  Cl    0.20950   0.06268   0.10727   0.00000  Uiso   1.00
Cl196  Cl    0.06291   0.20983   0.89258   0.00000  Uiso   1.00
Cl197  Cl    0.43727   0.29039   0.10727   0.00000  Uiso   1.00
Cl198  Cl    0.17640   0.41930   0.45634   0.00000  Uiso   1.00
Cl199  Cl    0.32519   0.07882   0.54484   0.00000  Uiso   1.00
Cl200  Cl    0.34616   0.44809   0.95560   0.00000  Uiso   1.00
O201   O     0.25000   0.00000   0.25000   0.00000  Uiso   1.00
O202   O     0.25000   0.46963   0.66245   0.00000  Uiso   1.00
O203   O     0.46963   0.25000   0.33755   0.00000  Uiso   1.00
O204   O     0.03036   0.25000   0.66245   0.00000  Uiso   1.00
O205   O     0.00000   0.21963   0.83755   0.00000  Uiso   1.00
O206   O    -0.00000   0.28037   0.16245   0.00000  Uiso   1.00
O207   O     0.28036   0.00000   0.83755   0.00000  Uiso   1.00
O208   O     0.21963   0.00000   0.16245   0.00000  Uiso   1.00
O209   O     0.00000   0.28036   0.83755   0.00000  Uiso   1.00
O210   O    -0.00000   0.21964   0.16245   0.00000  Uiso   1.00
O211   O     0.21963   0.00000   0.83755   0.00000  Uiso   1.00
O212   O     0.25000   0.00000   0.75000   0.00000  Uiso   1.00
O213   O     0.28036   0.00000   0.16245   0.00000  Uiso   1.00
O214   O     0.20724   0.07308   0.27302   0.00000  Uiso   1.00
O215   O     0.29275   0.42692   0.72698   0.00000  Uiso   1.00
O216   O     0.42692   0.20725   0.27302   0.00000  Uiso   1.00
O217   O     0.07307   0.29275   0.72698   0.00000  Uiso   1.00
O218   O     0.29275   0.42692   0.27302   0.00000  Uiso   1.00
O219   O     0.20724   0.07308   0.72698   0.00000  Uiso   1.00
O220   O     0.07307   0.29275   0.27302   0.00000  Uiso   1.00
O221   O     0.42692   0.20725   0.72698   0.00000  Uiso   1.00
O222   O     0.20724   0.42692   0.72698   0.00000  Uiso   1.00
O223   O     0.00000   0.25000   0.25000   0.00000  Uiso   1.00
O224   O     0.29275   0.07308   0.27302   0.00000  Uiso   1.00
O225   O     0.42692   0.29276   0.72698   0.00000  Uiso   1.00
O226   O     0.07307   0.20724   0.27302   0.00000  Uiso   1.00
O227   O     0.29275   0.07308   0.72698   0.00000  Uiso   1.00
O228   O     0.20724   0.42692   0.27302   0.00000  Uiso   1.00
O229   O     0.07307   0.20724   0.72698   0.00000  Uiso   1.00
O230   O     0.42692   0.29276   0.27302   0.00000  Uiso   1.00
O231   O     0.45724   0.32308   0.77302   0.00000  Uiso   1.00
O232   O     0.04275   0.17692   0.22698   0.00000  Uiso   1.00
O233   O     0.17692   0.45724   0.77302   0.00000  Uiso   1.00
O234   O     0.00000   0.25000   0.75000   0.00000  Uiso   1.00
O235   O     0.32307   0.04276   0.22698   0.00000  Uiso   1.00
O236   O     0.04275   0.17692   0.77302   0.00000  Uiso   1.00
O237   O     0.45724   0.32308   0.22698   0.00000  Uiso   1.00
O238   O     0.32307   0.04276   0.77302   0.00000  Uiso   1.00
O239   O     0.17692   0.45724   0.22698   0.00000  Uiso   1.00
O240   O     0.45724   0.17693   0.22698   0.00000  Uiso   1.00
O241   O     0.04275   0.32307   0.77302   0.00000  Uiso   1.00
O242   O     0.17692   0.04276   0.22698   0.00000  Uiso   1.00
O243   O     0.32307   0.45724   0.77302   0.00000  Uiso   1.00
O244   O     0.04275   0.32307   0.22698   0.00000  Uiso   1.00
O245   O     0.25000   0.46963   0.33755   0.00000  Uiso   1.00
O246   O     0.45724   0.17693   0.77302   0.00000  Uiso   1.00
O247   O     0.32307   0.45724   0.22698   0.00000  Uiso   1.00
O248   O     0.17692   0.04276   0.77302   0.00000  Uiso   1.00
O249   O     0.25000   0.03037   0.66245   0.00000  Uiso   1.00
O250   O     0.03036   0.25000   0.33755   0.00000  Uiso   1.00
O251   O     0.46963   0.25000   0.66245   0.00000  Uiso   1.00
O252   O     0.25000   0.03037   0.33755   0.00000  Uiso   1.00
Zn253  Zn    0.20659   0.00000   0.21735   0.00000  Uiso   1.00
Zn254  Zn    0.04340   0.25000   0.28265   0.00000  Uiso   1.00
Zn255  Zn    0.25000   0.45659   0.71735   0.00000  Uiso   1.00
Zn256  Zn    0.25000   0.04341   0.28265   0.00000  Uiso   1.00
Zn257  Zn    0.04340   0.25000   0.71735   0.00000  Uiso   1.00
Zn258  Zn    0.45659   0.25000   0.28265   0.00000  Uiso   1.00
Zn259  Zn    0.25000   0.04341   0.71735   0.00000  Uiso   1.00
Zn260  Zn    0.25000   0.45659   0.28265   0.00000  Uiso   1.00
Zn261  Zn    0.29340   0.00000   0.78265   0.00000  Uiso   1.00
Zn262  Zn   -0.00000   0.20660   0.21735   0.00000  Uiso   1.00
Zn263  Zn   -0.00000   0.29341   0.78265   0.00000  Uiso   1.00
Zn264  Zn    0.29340   0.00000   0.21735   0.00000  Uiso   1.00
Zn265  Zn    0.20659   0.00000   0.78265   0.00000  Uiso   1.00
Zn266  Zn    0.00000   0.29340   0.21735   0.00000  Uiso   1.00
Zn267  Zn    0.00000   0.20659   0.78265   0.00000  Uiso   1.00
Zn268  Zn    0.45659   0.25000   0.71735   0.00000  Uiso   1.00
C269   C     0.51660   0.27884   0.41817   0.00000  Uiso   1.00
C270   C     0.77261   0.47548   0.08157   0.00000  Uiso   1.00
C271   C     0.72275   0.48031   0.54105   0.00000  Uiso   1.00
C272   C     0.52058   0.27672   0.45893   0.00000  Uiso   1.00
C273   C     0.98018   0.22280   0.54105   0.00000  Uiso   1.00
C274   C     0.72317   0.47958   0.45893   0.00000  Uiso   1.00
C275   C     0.77731   0.01968   0.54105   0.00000  Uiso   1.00
C276   C     0.77626   0.47878   0.95894   0.00000  Uiso   1.00
C277   C     0.72369   0.02115   0.04095   0.00000  Uiso   1.00
C278   C     0.52126   0.22378   0.95894   0.00000  Uiso   1.00
C279   C     0.97881   0.27628   0.04095   0.00000  Uiso   1.00
C280   C     0.72374   0.02122   0.95894   0.00000  Uiso   1.00
C281   C     0.97535   0.27248   0.91833   0.00000  Uiso   1.00
C282   C     0.77631   0.47885   0.04095   0.00000  Uiso   1.00
C283   C     0.97875   0.27623   0.95894   0.00000  Uiso   1.00
C284   C     0.52119   0.22372   0.04095   0.00000  Uiso   1.00
C285   C     0.59808   0.34809   0.25004   0.00000  Uiso   1.00
C286   C     0.90176   0.15207   0.75019   0.00000  Uiso   1.00
C287   C     0.65194   0.09806   0.25009   0.00000  Uiso   1.00
C288   C     0.84806   0.40193   0.75004   0.00000  Uiso   1.00
C289   C     0.90192   0.15191   0.25004   0.00000  Uiso   1.00
C290   C     0.59824   0.34793   0.75020   0.00000  Uiso   1.00
C291   C     0.84806   0.40194   0.25009   0.00000  Uiso   1.00
C292   C     0.52455   0.22742   0.08158   0.00000  Uiso   1.00
C293   C     0.65194   0.09807   0.75004   0.00000  Uiso   1.00
C294   C     0.59807   0.15194   0.75004   0.00000  Uiso   1.00
C295   C     0.90194   0.34806   0.25009   0.00000  Uiso   1.00
C296   C     0.65207   0.40176   0.75020   0.00000  Uiso   1.00
C297   C     0.84809   0.09808   0.25004   0.00000  Uiso   1.00
C298   C     0.90193   0.34806   0.75004   0.00000  Uiso   1.00
C299   C     0.59806   0.15194   0.25009   0.00000  Uiso   1.00
C300   C     0.84793   0.09824   0.75019   0.00000  Uiso   1.00
C301   C     0.65191   0.40192   0.25004   0.00000  Uiso   1.00
C302   C     0.50000   0.24998   0.47944   0.00000  Uiso   1.00
C303   C     0.77251   0.47538   0.91833   0.00000  Uiso   1.00
C304   C     0.50000   0.24998   0.52047   0.00000  Uiso   1.00
C305   C     0.75003   0.49999   0.47944   0.00000  Uiso   1.00
C306   C     0.75003   0.49999   0.52047   0.00000  Uiso   1.00
C307   C     0.75000   0.00000   0.97946   0.00000  Uiso   1.00
C308   C     0.75000   0.00000   0.02044   0.00000  Uiso   1.00
C309   C     0.50001   0.25000   0.97946   0.00000  Uiso   1.00
C310   C     0.50000   0.25000   0.02044   0.00000  Uiso   1.00
C311   C     0.72739   0.02452   0.08158   0.00000  Uiso   1.00
C312   C     0.52466   0.22753   0.91833   0.00000  Uiso   1.00
C313   C     0.97545   0.27256   0.08158   0.00000  Uiso   1.00
C314   C     0.50000   0.24999   0.39817   0.00000  Uiso   1.00
C315   C     0.50000   0.24999   0.60178   0.00000  Uiso   1.00
C316   C     0.75001   0.00000   0.39817   0.00000  Uiso   1.00
C317   C     0.98485   0.22045   0.58168   0.00000  Uiso   1.00
C318   C     0.75002   0.00000   0.60178   0.00000  Uiso   1.00
C319   C     0.75000   0.00000   0.89822   0.00000  Uiso   1.00
C320   C     0.75000   0.00000   0.10171   0.00000  Uiso   1.00
C321   C     0.50000   0.25000   0.89822   0.00000  Uiso   1.00
C322   C     0.50000   0.25000   0.10171   0.00000  Uiso   1.00
C323   C     0.95510   0.20039   0.47978   0.00000  Uiso   1.00
C324   C     0.54427   0.30005   0.52055   0.00000  Uiso   1.00
C325   C     0.79989   0.04461   0.47978   0.00000  Uiso   1.00
C326   C     0.69973   0.45599   0.52053   0.00000  Uiso   1.00
C327   C     0.54491   0.29957   0.47979   0.00000  Uiso   1.00
C328   C     0.72106   0.48358   0.41816   0.00000  Uiso   1.00
C329   C     0.95574   0.19991   0.52054   0.00000  Uiso   1.00
C330   C     0.70018   0.45537   0.47977   0.00000  Uiso   1.00
C331   C     0.80034   0.04399   0.52054   0.00000  Uiso   1.00
C332   C     0.80567   0.46266   0.97956   0.00000  Uiso   1.00
C333   C     0.69429   0.03728   0.02031   0.00000  Uiso   1.00
C334   C     0.53742   0.19439   0.97956   0.00000  Uiso   1.00
C335   C     0.96264   0.30565   0.02031   0.00000  Uiso   1.00
C336   C     0.69433   0.03734   0.97956   0.00000  Uiso   1.00
C337   C     0.80571   0.46273   0.02031   0.00000  Uiso   1.00
C338   C     0.96259   0.30562   0.97957   0.00000  Uiso   1.00
C339   C     0.77964   0.01501   0.58169   0.00000  Uiso   1.00
C340   C     0.53735   0.19434   0.02031   0.00000  Uiso   1.00
C341   C     0.75000   0.00000   0.35582   0.00000  Uiso   1.00
C342   C     0.75000  -0.00000   0.64416   0.00000  Uiso   1.00
C343   C     0.50000   0.25000   0.35582   0.00000  Uiso   1.00
C344   C     0.50000   0.25000   0.64416   0.00000  Uiso   1.00
C345   C     0.50000   0.25000   0.85585   0.00000  Uiso   1.00
C346   C     0.50000   0.25000   0.14413   0.00000  Uiso   1.00
C347   C     0.75000   0.00000   0.85585   0.00000  Uiso   1.00
C348   C     0.75000   0.00000   0.14413   0.00000  Uiso   1.00
C349   C     0.67999   0.06998   0.25003   0.00000  Uiso   1.00
C350   C     0.98340   0.22114   0.41816   0.00000  Uiso   1.00
C351   C     0.81999   0.43000   0.75001   0.00000  Uiso   1.00
C352   C     0.92999   0.17998   0.25001   0.00000  Uiso   1.00
C353   C     0.57008   0.31996   0.75009   0.00000  Uiso   1.00
C354   C     0.82001   0.43002   0.25003   0.00000  Uiso   1.00
C355   C     0.68001   0.07000   0.75001   0.00000  Uiso   1.00
C356   C     0.57001   0.32002   0.25001   0.00000  Uiso   1.00
C357   C     0.92992   0.18004   0.75009   0.00000  Uiso   1.00
C358   C     0.68004   0.42992   0.75009   0.00000  Uiso   1.00
C359   C     0.82002   0.07001   0.25001   0.00000  Uiso   1.00
C360   C     0.93000   0.32000   0.75001   0.00000  Uiso   1.00
C361   C     0.51514   0.27953   0.58168   0.00000  Uiso   1.00
C362   C     0.56998   0.17999   0.25003   0.00000  Uiso   1.00
C363   C     0.81996   0.07008   0.75009   0.00000  Uiso   1.00
C364   C     0.67998   0.42999   0.25001   0.00000  Uiso   1.00
C365   C     0.57000   0.18000   0.75001   0.00000  Uiso   1.00
C366   C     0.93002   0.32001   0.25003   0.00000  Uiso   1.00
C367   C     0.61513   0.41185   0.25598   0.00000  Uiso   1.00
C368   C     0.86385   0.10922   0.71489   0.00000  Uiso   1.00
C369   C     0.59802   0.12510   0.27929   0.00000  Uiso   1.00
C370   C     0.91179   0.38477   0.74395   0.00000  Uiso   1.00
C371   C     0.88487   0.08815   0.25598   0.00000  Uiso   1.00
C372   C     0.77897   0.01642   0.41816   0.00000  Uiso   1.00
C373   C     0.63580   0.39112   0.71496   0.00000  Uiso   1.00
C374   C     0.90197   0.37489   0.27931   0.00000  Uiso   1.00
C375   C     0.58821   0.11523   0.74394   0.00000  Uiso   1.00
C376   C     0.61523   0.08821   0.74394   0.00000  Uiso   1.00
C377   C     0.87489   0.40197   0.27931   0.00000  Uiso   1.00
C378   C     0.60887   0.36419   0.71496   0.00000  Uiso   1.00
C379   C     0.91185   0.11513   0.25598   0.00000  Uiso   1.00
C380   C     0.88477   0.41179   0.74395   0.00000  Uiso   1.00
C381   C     0.62510   0.09802   0.27929   0.00000  Uiso   1.00
C382   C     0.89077   0.13615   0.71489   0.00000  Uiso   1.00
C383   C     0.72041   0.48499   0.58168   0.00000  Uiso   1.00
C384   C     0.58815   0.38487   0.25598   0.00000  Uiso   1.00
C385   C     0.88570   0.14128   0.78553   0.00000  Uiso   1.00
C386   C     0.63487   0.33815   0.24417   0.00000  Uiso   1.00
C387   C     0.83821   0.36523   0.75617   0.00000  Uiso   1.00
C388   C     0.65211   0.12505   0.22106   0.00000  Uiso   1.00
C389   C     0.61465   0.35837   0.78548   0.00000  Uiso   1.00
C390   C     0.86513   0.16185   0.24417   0.00000  Uiso   1.00
C391   C     0.66179   0.13477   0.75618   0.00000  Uiso   1.00
C392   C     0.84790   0.37496   0.22104   0.00000  Uiso   1.00
C393   C     0.87496   0.34790   0.22104   0.00000  Uiso   1.00
C394   C     0.72749   0.02463   0.91833   0.00000  Uiso   1.00
C395   C     0.63477   0.16179   0.75618   0.00000  Uiso   1.00
C396   C     0.83815   0.13487   0.24417   0.00000  Uiso   1.00
C397   C     0.64163   0.38535   0.78548   0.00000  Uiso   1.00
C398   C     0.62505   0.15211   0.22106   0.00000  Uiso   1.00
C399   C     0.86523   0.33821   0.75617   0.00000  Uiso   1.00
C400   C     0.66185   0.36513   0.24417   0.00000  Uiso   1.00
C401   C     0.85872   0.11431   0.78553   0.00000  Uiso   1.00
C402   C     0.97943   0.22325   0.45893   0.00000  Uiso   1.00
C403   C     0.51982   0.27716   0.54105   0.00000  Uiso   1.00
C404   C     0.77688   0.02041   0.45893   0.00000  Uiso   1.00
Cl405  Cl    0.91889   0.17683   0.45635   0.00000  Uiso   1.00
Cl406  Cl    0.65371   0.05169   0.04421   0.00000  Uiso   1.00
Cl407  Cl    0.55205   0.15392   0.95559   0.00000  Uiso   1.00
Cl408  Cl    0.94815   0.34620   0.04422   0.00000  Uiso   1.00
Cl409  Cl    0.65384   0.05191   0.95560   0.00000  Uiso   1.00
Cl410  Cl    0.84630   0.44831   0.04422   0.00000  Uiso   1.00
Cl411  Cl    0.94798   0.34610   0.95560   0.00000  Uiso   1.00
Cl412  Cl    0.55181   0.15377   0.04421   0.00000  Uiso   1.00
Cl413  Cl    0.60283   0.45791   0.26525   0.00000  Uiso   1.00
Cl414  Cl    0.85147   0.08823   0.67051   0.00000  Uiso   1.00
Cl415  Cl    0.56377   0.12515   0.31558   0.00000  Uiso   1.00
Cl416  Cl    0.57919   0.32473   0.54487   0.00000  Uiso   1.00
Cl417  Cl    0.95780   0.39692   0.73454   0.00000  Uiso   1.00
Cl418  Cl    0.89717   0.04209   0.26525   0.00000  Uiso   1.00
Cl419  Cl    0.64779   0.41252   0.67067   0.00000  Uiso   1.00
Cl420  Cl    0.93621   0.37483   0.31561   0.00000  Uiso   1.00
Cl421  Cl    0.54220   0.10309   0.73452   0.00000  Uiso   1.00
Cl422  Cl    0.60309   0.04220   0.73452   0.00000  Uiso   1.00
Cl423  Cl    0.87483   0.43621   0.31561   0.00000  Uiso   1.00
Cl424  Cl    0.58747   0.35220   0.67068   0.00000  Uiso   1.00
Cl425  Cl    0.95791   0.10283   0.26525   0.00000  Uiso   1.00
Cl426  Cl    0.89692   0.45780   0.73454   0.00000  Uiso   1.00
Cl427  Cl    0.82367   0.08067   0.45635   0.00000  Uiso   1.00
Cl428  Cl    0.62516   0.06377   0.31558   0.00000  Uiso   1.00
Cl429  Cl    0.91170   0.14857   0.67049   0.00000  Uiso   1.00
Cl430  Cl    0.54209   0.39717   0.26525   0.00000  Uiso   1.00
Cl431  Cl    0.89788   0.16275   0.82979   0.00000  Uiso   1.00
Cl432  Cl    0.64719   0.29208   0.23501   0.00000  Uiso   1.00
Cl433  Cl    0.79221   0.35310   0.76566   0.00000  Uiso   1.00
Cl434  Cl    0.68675   0.12546   0.18523   0.00000  Uiso   1.00
Cl435  Cl    0.60287   0.33647   0.82962   0.00000  Uiso   1.00
Cl436  Cl    0.85281   0.20792   0.23501   0.00000  Uiso   1.00
Cl437  Cl    0.70779   0.14689   0.76568   0.00000  Uiso   1.00
Cl438  Cl    0.67488   0.42117   0.54484   0.00000  Uiso   1.00
Cl439  Cl    0.81327   0.37456   0.18519   0.00000  Uiso   1.00
Cl440  Cl    0.87456   0.31327   0.18520   0.00000  Uiso   1.00
Cl441  Cl    0.64689   0.20779   0.76568   0.00000  Uiso   1.00
Cl442  Cl    0.79208   0.14719   0.23501   0.00000  Uiso   1.00
Cl443  Cl    0.66353   0.39714   0.82962   0.00000  Uiso   1.00
Cl444  Cl    0.62546   0.18675   0.18523   0.00000  Uiso   1.00
Cl445  Cl    0.85310   0.29221   0.76566   0.00000  Uiso   1.00
Cl446  Cl    0.70792   0.35280   0.23501   0.00000  Uiso   1.00
Cl447  Cl    0.83725   0.10214   0.82980   0.00000  Uiso   1.00
Cl448  Cl    0.52656   0.31924   0.39157   0.00000  Uiso   1.00
Cl449  Cl    0.58114   0.32312   0.45638   0.00000  Uiso   1.00
Cl450  Cl    0.97814   0.17908   0.60752   0.00000  Uiso   1.00
Cl451  Cl    0.68061   0.47385   0.39155   0.00000  Uiso   1.00
Cl452  Cl    0.82102   0.02156   0.60756   0.00000  Uiso   1.00
Cl453  Cl    0.97343   0.18075   0.39154   0.00000  Uiso   1.00
Cl454  Cl    0.52180   0.32091   0.60749   0.00000  Uiso   1.00
Cl455  Cl    0.81941   0.02615   0.39153   0.00000  Uiso   1.00
Cl456  Cl    0.67900   0.47848   0.60751   0.00000  Uiso   1.00
Cl457  Cl    0.70974   0.06286   0.89258   0.00000  Uiso   1.00
Cl458  Cl    0.79050   0.43733   0.10727   0.00000  Uiso   1.00
Cl459  Cl    0.93710   0.29019   0.89258   0.00000  Uiso   1.00
Cl460  Cl    0.92081   0.17522   0.54484   0.00000  Uiso   1.00
Cl461  Cl    0.56272   0.20958   0.10728   0.00000  Uiso   1.00
Cl462  Cl    0.79026   0.43714   0.89258   0.00000  Uiso   1.00
Cl463  Cl    0.70950   0.06268   0.10727   0.00000  Uiso   1.00
Cl464  Cl    0.56291   0.20983   0.89258   0.00000  Uiso   1.00
Cl465  Cl    0.93727   0.29039   0.10727   0.00000  Uiso   1.00
Cl466  Cl    0.67640   0.41930   0.45634   0.00000  Uiso   1.00
Cl467  Cl    0.82519   0.07882   0.54484   0.00000  Uiso   1.00
Cl468  Cl    0.84616   0.44809   0.95560   0.00000  Uiso   1.00
O469   O     0.75000   0.00000   0.25000   0.00000  Uiso   1.00
O470   O     0.75000   0.46963   0.66245   0.00000  Uiso   1.00
O471   O     0.96963   0.25000   0.33755   0.00000  Uiso   1.00
O472   O     0.53036   0.25000   0.66245   0.00000  Uiso   1.00
O473   O     0.50000   0.21963   0.83755   0.00000  Uiso   1.00
O474   O     0.50000   0.28037   0.16245   0.00000  Uiso   1.00
O475   O     0.78036   0.00000   0.83755   0.00000  Uiso   1.00
O476   O     0.71963   0.00000   0.16245   0.00000  Uiso   1.00
O477   O     0.50000   0.28036   0.83755   0.00000  Uiso   1.00
O478   O     0.50000   0.21964   0.16245   0.00000  Uiso   1.00
O479   O     0.71963   0.00000   0.83755   0.00000  Uiso   1.00
O480   O     0.75000   0.00000   0.75000   0.00000  Uiso   1.00
O481   O     0.78036   0.00000   0.16245   0.00000  Uiso   1.00
O482   O     0.70724   0.07308   0.27302   0.00000  Uiso   1.00
O483   O     0.79275   0.42692   0.72698   0.00000  Uiso   1.00
O484   O     0.92692   0.20725   0.27302   0.00000  Uiso   1.00
O485   O     0.57307   0.29275   0.72698   0.00000  Uiso   1.00
O486   O     0.79275   0.42692   0.27302   0.00000  Uiso   1.00
O487   O     0.70724   0.07308   0.72698   0.00000  Uiso   1.00
O488   O     0.57307   0.29275   0.27302   0.00000  Uiso   1.00
O489   O     0.92692   0.20725   0.72698   0.00000  Uiso   1.00
O490   O     0.70724   0.42692   0.72698   0.00000  Uiso   1.00
O491   O     0.50000   0.25000   0.25000   0.00000  Uiso   1.00
O492   O     0.79275   0.07308   0.27302   0.00000  Uiso   1.00
O493   O     0.92692   0.29276   0.72698   0.00000  Uiso   1.00
O494   O     0.57307   0.20724   0.27302   0.00000  Uiso   1.00
O495   O     0.79275   0.07308   0.72698   0.00000  Uiso   1.00
O496   O     0.70724   0.42692   0.27302   0.00000  Uiso   1.00
O497   O     0.57307   0.20724   0.72698   0.00000  Uiso   1.00
O498   O     0.92692   0.29276   0.27302   0.00000  Uiso   1.00
O499   O     0.95724   0.32308   0.77302   0.00000  Uiso   1.00
O500   O     0.54275   0.17692   0.22698   0.00000  Uiso   1.00
O501   O     0.67692   0.45724   0.77302   0.00000  Uiso   1.00
O502   O     0.50000   0.25000   0.75000   0.00000  Uiso   1.00
O503   O     0.82307   0.04276   0.22698   0.00000  Uiso   1.00
O504   O     0.54275   0.17692   0.77302   0.00000  Uiso   1.00
O505   O     0.95724   0.32308   0.22698   0.00000  Uiso   1.00
O506   O     0.82307   0.04276   0.77302   0.00000  Uiso   1.00
O507   O     0.67692   0.45724   0.22698   0.00000  Uiso   1.00
O508   O     0.95724   0.17693   0.22698   0.00000  Uiso   1.00
O509   O     0.54275   0.32307   0.77302   0.00000  Uiso   1.00
O510   O     0.67692   0.04276   0.22698   0.00000  Uiso   1.00
O511   O     0.82307   0.45724   0.77302   0.00000  Uiso   1.00
O512   O     0.54275   0.32307   0.22698   0.00000  Uiso   1.00
O513   O     0.75000   0.46963   0.33755   0.00000  Uiso   1.00
O514   O     0.95724   0.17693   0.77302   0.00000  Uiso   1.00
O515   O     0.82307   0.45724   0.22698   0.00000  Uiso   1.00
O516   O     0.67692   0.04276   0.77302   0.00000  Uiso   1.00
O517   O     0.75000   0.03037   0.66245   0.00000  Uiso   1.00
O518   O     0.53036   0.25000   0.33755   0.00000  Uiso   1.00
O519   O     0.96963   0.25000   0.66245   0.00000  Uiso   1.00
O520   O     0.75000   0.03037   0.33755   0.00000  Uiso   1.00
Zn521  Zn    0.70659   0.00000   0.21735   0.00000  Uiso   1.00
Zn522  Zn    0.54340   0.25000   0.28265   0.00000  Uiso   1.00
Zn523  Zn    0.75000   0.45659   0.71735   0.00000  Uiso   1.00
Zn524  Zn    0.75000   0.04341   0.28265   0.00000  Uiso   1.00
Zn525  Zn    0.54340   0.25000   0.71735   0.00000  Uiso   1.00
Zn526  Zn    0.95659   0.25000   0.28265   0.00000  Uiso   1.00
Zn527  Zn    0.75000   0.04341   0.71735   0.00000  Uiso   1.00
Zn528  Zn    0.75000   0.45659   0.28265   0.00000  Uiso   1.00
Zn529  Zn    0.79340   0.00000   0.78265   0.00000  Uiso   1.00
Zn530  Zn    0.50000   0.20660   0.21735   0.00000  Uiso   1.00
Zn531  Zn    0.50000   0.29341   0.78265   0.00000  Uiso   1.00
Zn532  Zn    0.79340   0.00000   0.21735   0.00000  Uiso   1.00
Zn533  Zn    0.70659   0.00000   0.78265   0.00000  Uiso   1.00
Zn534  Zn    0.50000   0.29340   0.21735   0.00000  Uiso   1.00
Zn535  Zn    0.50000   0.20659   0.78265   0.00000  Uiso   1.00
Zn536  Zn    0.95659   0.25000   0.71735   0.00000  Uiso   1.00
C537   C     0.01660   0.77884   0.41817   0.00000  Uiso   1.00
C538   C     0.27261   0.97548   0.08157   0.00000  Uiso   1.00
C539   C     0.22275   0.98031   0.54105   0.00000  Uiso   1.00
C540   C     0.02058   0.77672   0.45893   0.00000  Uiso   1.00
C541   C     0.48018   0.72280   0.54105   0.00000  Uiso   1.00
C542   C     0.22317   0.97958   0.45893   0.00000  Uiso   1.00
C543   C     0.27731   0.51968   0.54105   0.00000  Uiso   1.00
C544   C     0.27626   0.97878   0.95894   0.00000  Uiso   1.00
C545   C     0.22369   0.52115   0.04095   0.00000  Uiso   1.00
C546   C     0.02126   0.72378   0.95894   0.00000  Uiso   1.00
C547   C     0.47881   0.77628   0.04095   0.00000  Uiso   1.00
C548   C     0.22374   0.52122   0.95894   0.00000  Uiso   1.00
C549   C     0.47535   0.77248   0.91833   0.00000  Uiso   1.00
C550   C     0.27631   0.97885   0.04095   0.00000  Uiso   1.00
C551   C     0.47875   0.77623   0.95894   0.00000  Uiso   1.00
C552   C     0.02119   0.72372   0.04095   0.00000  Uiso   1.00
C553   C     0.09808   0.84809   0.25004   0.00000  Uiso   1.00
C554   C     0.40176   0.65207   0.75019   0.00000  Uiso   1.00
C555   C     0.15194   0.59806   0.25009   0.00000  Uiso   1.00
C556   C     0.34806   0.90193   0.75004   0.00000  Uiso   1.00
C557   C     0.40192   0.65191   0.25004   0.00000  Uiso   1.00
C558   C     0.09824   0.84793   0.75020   0.00000  Uiso   1.00
C559   C     0.34806   0.90194   0.25009   0.00000  Uiso   1.00
C560   C     0.02455   0.72742   0.08158   0.00000  Uiso   1.00
C561   C     0.15194   0.59807   0.75004   0.00000  Uiso   1.00
C562   C     0.09807   0.65194   0.75004   0.00000  Uiso   1.00
C563   C     0.40194   0.84806   0.25009   0.00000  Uiso   1.00
C564   C     0.15207   0.90176   0.75020   0.00000  Uiso   1.00
C565   C     0.34809   0.59808   0.25004   0.00000  Uiso   1.00
C566   C     0.40193   0.84806   0.75004   0.00000  Uiso   1.00
C567   C     0.09806   0.65194   0.25009   0.00000  Uiso   1.00
C568   C     0.34793   0.59824   0.75019   0.00000  Uiso   1.00
C569   C     0.15191   0.90192   0.25004   0.00000  Uiso   1.00
C570   C     0.00000   0.74998   0.47944   0.00000  Uiso   1.00
C571   C     0.27251   0.97538   0.91833   0.00000  Uiso   1.00
C572   C     0.00000   0.74998   0.52047   0.00000  Uiso   1.00
C573   C     0.25003   0.99999   0.47944   0.00000  Uiso   1.00
C574   C     0.25003   0.99999   0.52047   0.00000  Uiso   1.00
C575   C     0.25000   0.50000   0.97946   0.00000  Uiso   1.00
C576   C     0.25000   0.50000   0.02044   0.00000  Uiso   1.00
C577   C     0.00001   0.75000   0.97946   0.00000  Uiso   1.00
C578   C     0.00000   0.75000   0.02044   0.00000  Uiso   1.00
C579   C     0.22739   0.52452   0.08158   0.00000  Uiso   1.00
C580   C     0.02466   0.72753   0.91833   0.00000  Uiso   1.00
C581   C     0.47545   0.77256   0.08158   0.00000  Uiso   1.00
C582   C     0.00000   0.74999   0.39817   0.00000  Uiso   1.00
C583   C    -0.00000   0.74999   0.60178   0.00000  Uiso   1.00
C584   C     0.25001   0.50000   0.39817   0.00000  Uiso   1.00
C585   C     0.48485   0.72045   0.58168   0.00000  Uiso   1.00
C586   C     0.25002   0.50000   0.60178   0.00000  Uiso   1.00
C587   C     0.25000   0.50000   0.89822   0.00000  Uiso   1.00
C588   C     0.25000   0.50000   0.10171   0.00000  Uiso   1.00
C589   C     0.00000   0.75000   0.89822   0.00000  Uiso   1.00
C590   C     0.00000   0.75000   0.10171   0.00000  Uiso   1.00
C591   C     0.45510   0.70039   0.47978   0.00000  Uiso   1.00
C592   C     0.04427   0.80005   0.52055   0.00000  Uiso   1.00
C593   C     0.29989   0.54461   0.47978   0.00000  Uiso   1.00
C594   C     0.19973   0.95599   0.52053   0.00000  Uiso   1.00
C595   C     0.04491   0.79957   0.47979   0.00000  Uiso   1.00
C596   C     0.22106   0.98358   0.41816   0.00000  Uiso   1.00
C597   C     0.45574   0.69991   0.52054   0.00000  Uiso   1.00
C598   C     0.20018   0.95537   0.47977   0.00000  Uiso   1.00
C599   C     0.30034   0.54399   0.52054   0.00000  Uiso   1.00
C600   C     0.30567   0.96266   0.97956   0.00000  Uiso   1.00
C601   C     0.19429   0.53728   0.02031   0.00000  Uiso   1.00
C602   C     0.03742   0.69439   0.97956   0.00000  Uiso   1.00
C603   C     0.46264   0.80565   0.02031   0.00000  Uiso   1.00
C604   C     0.19433   0.53734   0.97956   0.00000  Uiso   1.00
C605   C     0.30571   0.96273   0.02031   0.00000  Uiso   1.00
C606   C     0.46259   0.80562   0.97957   0.00000  Uiso   1.00
C607   C     0.27964   0.51501   0.58169   0.00000  Uiso   1.00
C608   C     0.03735   0.69434   0.02031   0.00000  Uiso   1.00
C609   C     0.25000   0.50000   0.35582   0.00000  Uiso   1.00
C610   C     0.25000   0.50000   0.64416   0.00000  Uiso   1.00
C611   C     0.00000   0.75000   0.35582   0.00000  Uiso   1.00
C612   C    -0.00000   0.75000   0.64416   0.00000  Uiso   1.00
C613   C     0.00000   0.75000   0.85585   0.00000  Uiso   1.00
C614   C     0.00000   0.75000   0.14413   0.00000  Uiso   1.00
C615   C     0.25000   0.50000   0.85585   0.00000  Uiso   1.00
C616   C     0.25000   0.50000   0.14413   0.00000  Uiso   1.00
C617   C     0.17999   0.56998   0.25003   0.00000  Uiso   1.00
C618   C     0.48340   0.72114   0.41816   0.00000  Uiso   1.00
C619   C     0.31999   0.93000   0.75001   0.00000  Uiso   1.00
C620   C     0.42999   0.67998   0.25001   0.00000  Uiso   1.00
C621   C     0.07008   0.81996   0.75009   0.00000  Uiso   1.00
C622   C     0.32001   0.93002   0.25003   0.00000  Uiso   1.00
C623   C     0.18001   0.57000   0.75001   0.00000  Uiso   1.00
C624   C     0.07001   0.82002   0.25001   0.00000  Uiso   1.00
C625   C     0.42992   0.68004   0.75009   0.00000  Uiso   1.00
C626   C     0.18004   0.92992   0.75009   0.00000  Uiso   1.00
C627   C     0.32002   0.57001   0.25001   0.00000  Uiso   1.00
C628   C     0.43000   0.82000   0.75001   0.00000  Uiso   1.00
C629   C     0.01514   0.77953   0.58168   0.00000  Uiso   1.00
C630   C     0.06998   0.67999   0.25003   0.00000  Uiso   1.00
C631   C     0.31996   0.57008   0.75009   0.00000  Uiso   1.00
C632   C     0.17998   0.92999   0.25001   0.00000  Uiso   1.00
C633   C     0.07000   0.68000   0.75001   0.00000  Uiso   1.00
C634   C     0.43002   0.82001   0.25003   0.00000  Uiso   1.00
C635   C     0.11513   0.91185   0.25598   0.00000  Uiso   1.00
C636   C     0.36385   0.60922   0.71489   0.00000  Uiso   1.00
C637   C     0.09802   0.62510   0.27929   0.00000  Uiso   1.00
C638   C     0.41179   0.88477   0.74395   0.00000  Uiso   1.00
C639   C     0.38487   0.58815   0.25598   0.00000  Uiso   1.00
C640   C     0.27897   0.51642   0.41816   0.00000  Uiso   1.00
C641   C     0.13580   0.89112   0.71496   0.00000  Uiso   1.00
C642   C     0.40197   0.87489   0.27931   0.00000  Uiso   1.00
C643   C     0.08821   0.61523   0.74394   0.00000  Uiso   1.00
C644   C     0.11523   0.58821   0.74394   0.00000  Uiso   1.00
C645   C     0.37489   0.90197   0.27931   0.00000  Uiso   1.00
C646   C     0.10887   0.86419   0.71496   0.00000  Uiso   1.00
C647   C     0.41185   0.61513   0.25598   0.00000  Uiso   1.00
C648   C     0.38477   0.91179   0.74395   0.00000  Uiso   1.00
C649   C     0.12510   0.59802   0.27929   0.00000  Uiso   1.00
C650   C     0.39077   0.63615   0.71489   0.00000  Uiso   1.00
C651   C     0.22041   0.98499   0.58168   0.00000  Uiso   1.00
C652   C     0.08815   0.88487   0.25598   0.00000  Uiso   1.00
C653   C     0.38570   0.64128   0.78553   0.00000  Uiso   1.00
C654   C     0.13487   0.83815   0.24417   0.00000  Uiso   1.00
C655   C     0.33821   0.86523   0.75617   0.00000  Uiso   1.00
C656   C     0.15211   0.62505   0.22106   0.00000  Uiso   1.00
C657   C     0.11465   0.85837   0.78548   0.00000  Uiso   1.00
C658   C     0.36513   0.66185   0.24417   0.00000  Uiso   1.00
C659   C     0.16179   0.63477   0.75618   0.00000  Uiso   1.00
C660   C     0.34790   0.87496   0.22104   0.00000  Uiso   1.00
C661   C     0.37496   0.84790   0.22104   0.00000  Uiso   1.00
C662   C     0.22749   0.52463   0.91833   0.00000  Uiso   1.00
C663   C     0.13477   0.66179   0.75618   0.00000  Uiso   1.00
C664   C     0.33815   0.63487   0.24417   0.00000  Uiso   1.00
C665   C     0.14163   0.88535   0.78548   0.00000  Uiso   1.00
C666   C     0.12505   0.65211   0.22106   0.00000  Uiso   1.00
C667   C     0.36523   0.83821   0.75617   0.00000  Uiso   1.00
C668   C     0.16185   0.86513   0.24417   0.00000  Uiso   1.00
C669   C     0.35872   0.61431   0.78553   0.00000  Uiso   1.00
C670   C     0.47943   0.72325   0.45893   0.00000  Uiso   1.00
C671   C     0.01982   0.77716   0.54105   0.00000  Uiso   1.00
C672   C     0.27688   0.52041   0.45893   0.00000  Uiso   1.00
Cl673  Cl    0.41889   0.67683   0.45635   0.00000  Uiso   1.00
Cl674  Cl    0.15371   0.55169   0.04421   0.00000  Uiso   1.00
Cl675  Cl    0.05205   0.65392   0.95559   0.00000  Uiso   1.00
Cl676  Cl    0.44815   0.84620   0.04422   0.00000  Uiso   1.00
Cl677  Cl    0.15384   0.55191   0.95560   0.00000  Uiso   1.00
Cl678  Cl    0.34630   0.94831   0.04422   0.00000  Uiso   1.00
Cl679  Cl    0.44798   0.84610   0.95560   0.00000  Uiso   1.00
Cl680  Cl    0.05181   0.65377   0.04421   0.00000  Uiso   1.00
Cl681  Cl    0.10283   0.95791   0.26525   0.00000  Uiso   1.00
Cl682  Cl    0.35147   0.58823   0.67051   0.00000  Uiso   1.00
Cl683  Cl    0.06377   0.62515   0.31558   0.00000  Uiso   1.00
Cl684  Cl    0.07919   0.82473   0.54487   0.00000  Uiso   1.00
Cl685  Cl    0.45780   0.89692   0.73454   0.00000  Uiso   1.00
Cl686  Cl    0.39717   0.54209   0.26525   0.00000  Uiso   1.00
Cl687  Cl    0.14779   0.91252   0.67067   0.00000  Uiso   1.00
Cl688  Cl    0.43621   0.87483   0.31561   0.00000  Uiso   1.00
Cl689  Cl    0.04220   0.60309   0.73452   0.00000  Uiso   1.00
Cl690  Cl    0.10309   0.54220   0.73452   0.00000  Uiso   1.00
Cl691  Cl    0.37483   0.93621   0.31561   0.00000  Uiso   1.00
Cl692  Cl    0.08747   0.85220   0.67068   0.00000  Uiso   1.00
Cl693  Cl    0.45791   0.60283   0.26525   0.00000  Uiso   1.00
Cl694  Cl    0.39692   0.95780   0.73454   0.00000  Uiso   1.00
Cl695  Cl    0.32367   0.58067   0.45635   0.00000  Uiso   1.00
Cl696  Cl    0.12516   0.56377   0.31558   0.00000  Uiso   1.00
Cl697  Cl    0.41170   0.64857   0.67049   0.00000  Uiso   1.00
Cl698  Cl    0.04209   0.89717   0.26525   0.00000  Uiso   1.00
Cl699  Cl    0.39788   0.66275   0.82979   0.00000  Uiso   1.00
Cl700  Cl    0.14719   0.79208   0.23501   0.00000  Uiso   1.00
Cl701  Cl    0.29221   0.85310   0.76566   0.00000  Uiso   1.00
Cl702  Cl    0.18675   0.62546   0.18523   0.00000  Uiso   1.00
Cl703  Cl    0.10287   0.83647   0.82962   0.00000  Uiso   1.00
Cl704  Cl    0.35281   0.70792   0.23501   0.00000  Uiso   1.00
Cl705  Cl    0.20779   0.64689   0.76568   0.00000  Uiso   1.00
Cl706  Cl    0.17488   0.92117   0.54484   0.00000  Uiso   1.00
Cl707  Cl    0.31327   0.87456   0.18519   0.00000  Uiso   1.00
Cl708  Cl    0.37456   0.81327   0.18520   0.00000  Uiso   1.00
Cl709  Cl    0.14689   0.70779   0.76568   0.00000  Uiso   1.00
Cl710  Cl    0.29208   0.64719   0.23501   0.00000  Uiso   1.00
Cl711  Cl    0.16353   0.89714   0.82962   0.00000  Uiso   1.00
Cl712  Cl    0.12546   0.68675   0.18523   0.00000  Uiso   1.00
Cl713  Cl    0.35310   0.79221   0.76566   0.00000  Uiso   1.00
Cl714  Cl    0.20792   0.85280   0.23501   0.00000  Uiso   1.00
Cl715  Cl    0.33725   0.60214   0.82980   0.00000  Uiso   1.00
Cl716  Cl    0.02656   0.81924   0.39157   0.00000  Uiso   1.00
Cl717  Cl    0.08114   0.82312   0.45638   0.00000  Uiso   1.00
Cl718  Cl    0.47814   0.67908   0.60752   0.00000  Uiso   1.00
Cl719  Cl    0.18061   0.97385   0.39155   0.00000  Uiso   1.00
Cl720  Cl    0.32102   0.52156   0.60756   0.00000  Uiso   1.00
Cl721  Cl    0.47343   0.68075   0.39154   0.00000  Uiso   1.00
Cl722  Cl    0.02180   0.82091   0.60749   0.00000  Uiso   1.00
Cl723  Cl    0.31941   0.52615   0.39153   0.00000  Uiso   1.00
Cl724  Cl    0.17900   0.97848   0.60751   0.00000  Uiso   1.00
Cl725  Cl    0.20974   0.56286   0.89258   0.00000  Uiso   1.00
Cl726  Cl    0.29050   0.93733   0.10727   0.00000  Uiso   1.00
Cl727  Cl    0.43710   0.79019   0.89258   0.00000  Uiso   1.00
Cl728  Cl    0.42081   0.67522   0.54484   0.00000  Uiso   1.00
Cl729  Cl    0.06272   0.70958   0.10728   0.00000  Uiso   1.00
Cl730  Cl    0.29026   0.93714   0.89258   0.00000  Uiso   1.00
Cl731  Cl    0.20950   0.56268   0.10727   0.00000  Uiso   1.00
Cl732  Cl    0.06291   0.70983   0.89258   0.00000  Uiso   1.00
Cl733  Cl    0.43727   0.79039   0.10727   0.00000  Uiso   1.00
Cl734  Cl    0.17640   0.91930   0.45634   0.00000  Uiso   1.00
Cl735  Cl    0.32519   0.57882   0.54484   0.00000  Uiso   1.00
Cl736  Cl    0.34616   0.94809   0.95560   0.00000  Uiso   1.00
O737   O     0.25000   0.50000   0.25000   0.00000  Uiso   1.00
O738   O     0.25000   0.96963   0.66245   0.00000  Uiso   1.00
O739   O     0.46963   0.75000   0.33755   0.00000  Uiso   1.00
O740   O     0.03036   0.75000   0.66245   0.00000  Uiso   1.00
O741   O     0.00000   0.71963   0.83755   0.00000  Uiso   1.00
O742   O    -0.00000   0.78037   0.16245   0.00000  Uiso   1.00
O743   O     0.28036   0.50000   0.83755   0.00000  Uiso   1.00
O744   O     0.21963   0.50000   0.16245   0.00000  Uiso   1.00
O745   O     0.00000   0.78036   0.83755   0.00000  Uiso   1.00
O746   O    -0.00000   0.71964   0.16245   0.00000  Uiso   1.00
O747   O     0.21963   0.50000   0.83755   0.00000  Uiso   1.00
O748   O     0.25000   0.50000   0.75000   0.00000  Uiso   1.00
O749   O     0.28036   0.50000   0.16245   0.00000  Uiso   1.00
O750   O     0.20724   0.57308   0.27302   0.00000  Uiso   1.00
O751   O     0.29275   0.92692   0.72698   0.00000  Uiso   1.00
O752   O     0.42692   0.70725   0.27302   0.00000  Uiso   1.00
O753   O     0.07307   0.79275   0.72698   0.00000  Uiso   1.00
O754   O     0.29275   0.92692   0.27302   0.00000  Uiso   1.00
O755   O     0.20724   0.57308   0.72698   0.00000  Uiso   1.00
O756   O     0.07307   0.79275   0.27302   0.00000  Uiso   1.00
O757   O     0.42692   0.70725   0.72698   0.00000  Uiso   1.00
O758   O     0.20724   0.92692   0.72698   0.00000  Uiso   1.00
O759   O     0.00000   0.75000   0.25000   0.00000  Uiso   1.00
O760   O     0.29275   0.57308   0.27302   0.00000  Uiso   1.00
O761   O     0.42692   0.79276   0.72698   0.00000  Uiso   1.00
O762   O     0.07307   0.70724   0.27302   0.00000  Uiso   1.00
O763   O     0.29275   0.57308   0.72698   0.00000  Uiso   1.00
O764   O     0.20724   0.92692   0.27302   0.00000  Uiso   1.00
O765   O     0.07307   0.70724   0.72698   0.00000  Uiso   1.00
O766   O     0.42692   0.79276   0.27302   0.00000  Uiso   1.00
O767   O     0.45724   0.82308   0.77302   0.00000  Uiso   1.00
O768   O     0.04275   0.67692   0.22698   0.00000  Uiso   1.00
O769   O     0.17692   0.95724   0.77302   0.00000  Uiso   1.00
O770   O     0.00000   0.75000   0.75000   0.00000  Uiso   1.00
O771   O     0.32307   0.54276   0.22698   0.00000  Uiso   1.00
O772   O     0.04275   0.67692   0.77302   0.00000  Uiso   1.00
O773   O     0.45724   0.82308   0.22698   0.00000  Uiso   1.00
O774   O     0.32307   0.54276   0.77302   0.00000  Uiso   1.00
O775   O     0.17692   0.95724   0.22698   0.00000  Uiso   1.00
O776   O     0.45724   0.67693   0.22698   0.00000  Uiso   1.00
O777   O     0.04275   0.82307   0.77302   0.00000  Uiso   1.00
O778   O     0.17692   0.54276   0.22698   0.00000  Uiso   1.00
O779   O     0.32307   0.95724   0.77302   0.00000  Uiso   1.00
O780   O     0.04275   0.82307   0.22698   0.00000  Uiso   1.00
O781   O     0.25000   0.96963   0.33755   0.00000  Uiso   1.00
O782   O     0.45724   0.67693   0.77302   0.00000  Uiso   1.00
O783   O     0.32307   0.95724   0.22698   0.00000  Uiso   1.00
O784   O     0.17692   0.54276   0.77302   0.00000  Uiso   1.00
O785   O     0.25000   0.53037   0.66245   0.00000  Uiso   1.00
O786   O     0.03036   0.75000   0.33755   0.00000  Uiso   1.00
O787   O     0.46963   0.75000   0.66245   0.00000  Uiso   1.00
O788   O     0.25000   0.53037   0.33755   0.00000  Uiso   1.00
Zn789  Zn    0.20659   0.50000   0.21735   0.00000  Uiso   1.00
Zn790  Zn    0.04340   0.75000   0.28265   0.00000  Uiso   1.00
Zn791  Zn    0.25000   0.95659   0.71735   0.00000  Uiso   1.00
Zn792  Zn    0.25000   0.54341   0.28265   0.00000  Uiso   1.00
Zn793  Zn    0.04340   0.75000   0.71735   0.00000  Uiso   1.00
Zn794  Zn    0.45659   0.75000   0.28265   0.00000  Uiso   1.00
Zn795  Zn    0.25000   0.54341   0.71735   0.00000  Uiso   1.00
Zn796  Zn    0.25000   0.95659   0.28265   0.00000  Uiso   1.00
Zn797  Zn    0.29340   0.50000   0.78265   0.00000  Uiso   1.00
Zn798  Zn   -0.00000   0.70660   0.21735   0.00000  Uiso   1.00
Zn799  Zn   -0.00000   0.79341   0.78265   0.00000  Uiso   1.00
Zn800  Zn    0.29340   0.50000   0.21735   0.00000  Uiso   1.00
Zn801  Zn    0.20659   0.50000   0.78265   0.00000  Uiso   1.00
Zn802  Zn    0.00000   0.79340   0.21735   0.00000  Uiso   1.00
Zn803  Zn    0.00000   0.70659   0.78265   0.00000  Uiso   1.00
Zn804  Zn    0.45659   0.75000   0.71735   0.00000  Uiso   1.00
C805   C     0.51660   0.77884   0.41817   0.00000  Uiso   1.00
C806   C     0.77261   0.97548   0.08157   0.00000  Uiso   1.00
C807   C     0.72275   0.98031   0.54105   0.00000  Uiso   1.00
C808   C     0.52058   0.77672   0.45893   0.00000  Uiso   1.00
C809   C     0.98018   0.72280   0.54105   0.00000  Uiso   1.00
C810   C     0.72317   0.97958   0.45893   0.00000  Uiso   1.00
C811   C     0.77731   0.51968   0.54105   0.00000  Uiso   1.00
C812   C     0.77626   0.97878   0.95894   0.00000  Uiso   1.00
C813   C     0.72369   0.52115   0.04095   0.00000  Uiso   1.00
C814   C     0.52126   0.72378   0.95894   0.00000  Uiso   1.00
C815   C     0.97881   0.77628   0.04095   0.00000  Uiso   1.00
C816   C     0.72374   0.52122   0.95894   0.00000  Uiso   1.00
C817   C     0.97535   0.77248   0.91833   0.00000  Uiso   1.00
C818   C     0.77631   0.97885   0.04095   0.00000  Uiso   1.00
C819   C     0.97875   0.77623   0.95894   0.00000  Uiso   1.00
C820   C     0.52119   0.72372   0.04095   0.00000  Uiso   1.00
C821   C     0.59808   0.84809   0.25004   0.00000  Uiso   1.00
C822   C     0.90176   0.65207   0.75019   0.00000  Uiso   1.00
C823   C     0.65194   0.59806   0.25009   0.00000  Uiso   1.00
C824   C     0.84806   0.90193   0.75004   0.00000  Uiso   1.00
C825   C     0.90192   0.65191   0.25004   0.00000  Uiso   1.00
C826   C     0.59824   0.84793   0.75020   0.00000  Uiso   1.00
C827   C     0.84806   0.90194   0.25009   0.00000  Uiso   1.00
C828   C     0.52455   0.72742   0.08158   0.00000  Uiso   1.00
C829   C     0.65194   0.59807   0.75004   0.00000  Uiso   1.00
C830   C     0.59807   0.65194   0.75004   0.00000  Uiso   1.00
C831   C     0.90194   0.84806   0.25009   0.00000  Uiso   1.00
C832   C     0.65207   0.90176   0.75020   0.00000  Uiso   1.00
C833   C     0.84809   0.59808   0.25004   0.00000  Uiso   1.00
C834   C     0.90193   0.84806   0.75004   0.00000  Uiso   1.00
C835   C     0.59806   0.65194   0.25009   0.00000  Uiso   1.00
C836   C     0.84793   0.59824   0.75019   0.00000  Uiso   1.00
C837   C     0.65191   0.90192   0.25004   0.00000  Uiso   1.00
C838   C     0.50000   0.74998   0.47944   0.00000  Uiso   1.00
C839   C     0.77251   0.97538   0.91833   0.00000  Uiso   1.00
C840   C     0.50000   0.74998   0.52047   0.00000  Uiso   1.00
C841   C     0.75003   0.99999   0.47944   0.00000  Uiso   1.00
C842   C     0.75003   0.99999   0.52047   0.00000  Uiso   1.00
C843   C     0.75000   0.50000   0.97946   0.00000  Uiso   1.00
C844   C     0.75000   0.50000   0.02044   0.00000  Uiso   1.00
C845   C     0.50001   0.75000   0.97946   0.00000  Uiso   1.00
C846   C     0.50000   0.75000   0.02044   0.00000  Uiso   1.00
C847   C     0.72739   0.52452   0.08158   0.00000  Uiso   1.00
C848   C     0.52466   0.72753   0.91833   0.00000  Uiso   1.00
C849   C     0.97545   0.77256   0.08158   0.00000  Uiso   1.00
C850   C     0.50000   0.74999   0.39817   0.00000  Uiso   1.00
C851   C     0.50000   0.74999   0.60178   0.00000  Uiso   1.00
C852   C     0.75001   0.50000   0.39817   0.00000  Uiso   1.00
C853   C     0.98485   0.72045   0.58168   0.00000  Uiso   1.00
C854   C     0.75002   0.50000   0.60178   0.00000  Uiso   1.00
C855   C     0.75000   0.50000   0.89822   0.00000  Uiso   1.00
C856   C     0.75000   0.50000   0.10171   0.00000  Uiso   1.00
C857   C     0.50000   0.75000   0.89822   0.00000  Uiso   1.00
C858   C     0.50000   0.75000   0.10171   0.00000  Uiso   1.00
C859   C     0.95510   0.70039   0.47978   0.00000  Uiso   1.00
C860   C     0.54427   0.80005   0.52055   0.00000  Uiso   1.00
C861   C     0.79989   0.54461   0.47978   0.00000  Uiso   1.00
C862   C     0.69973   0.95599   0.52053   0.00000  Uiso   1.00
C863   C     0.54491   0.79957   0.47979   0.00000  Uiso   1.00
C864   C     0.72106   0.98358   0.41816   0.00000  Uiso   1.00
C865   C     0.95574   0.69991   0.52054   0.00000  Uiso   1.00
C866   C     0.70018   0.95537   0.47977   0.00000  Uiso   1.00
C867   C     0.80034   0.54399   0.52054   0.00000  Uiso   1.00
C868   C     0.80567   0.96266   0.97956   0.00000  Uiso   1.00
C869   C     0.69429   0.53728   0.02031   0.00000  Uiso   1.00
C870   C     0.53742   0.69439   0.97956   0.00000  Uiso   1.00
C871   C     0.96264   0.80565   0.02031   0.00000  Uiso   1.00
C872   C     0.69433   0.53734   0.97956   0.00000  Uiso   1.00
C873   C     0.80571   0.96273   0.02031   0.00000  Uiso   1.00
C874   C     0.96259   0.80562   0.97957   0.00000  Uiso   1.00
C875   C     0.77964   0.51501   0.58169   0.00000  Uiso   1.00
C876   C     0.53735   0.69434   0.02031   0.00000  Uiso   1.00
C877   C     0.75000   0.50000   0.35582   0.00000  Uiso   1.00
C878   C     0.75000   0.50000   0.64416   0.00000  Uiso   1.00
C879   C     0.50000   0.75000   0.35582   0.00000  Uiso   1.00
C880   C     0.50000   0.75000   0.64416   0.00000  Uiso   1.00
C881   C     0.50000   0.75000   0.85585   0.00000  Uiso   1.00
C882   C     0.50000   0.75000   0.14413   0.00000  Uiso   1.00
C883   C     0.75000   0.50000   0.85585   0.00000  Uiso   1.00
C884   C     0.75000   0.50000   0.14413   0.00000  Uiso   1.00
C885   C     0.67999   0.56998   0.25003   0.00000  Uiso   1.00
C886   C     0.98340   0.72114   0.41816   0.00000  Uiso   1.00
C887   C     0.81999   0.93000   0.75001   0.00000  Uiso   1.00
C888   C     0.92999   0.67998   0.25001   0.00000  Uiso   1.00
C889   C     0.57008   0.81996   0.75009   0.00000  Uiso   1.00
C890   C     0.82001   0.93002   0.25003   0.00000  Uiso   1.00
C891   C     0.68001   0.57000   0.75001   0.00000  Uiso   1.00
C892   C     0.57001   0.82002   0.25001   0.00000  Uiso   1.00
C893   C     0.92992   0.68004   0.75009   0.00000  Uiso   1.00
C894   C     0.68004   0.92992   0.75009   0.00000  Uiso   1.00
C895   C     0.82002   0.57001   0.25001   0.00000  Uiso   1.00
C896   C     0.93000   0.82000   0.75001   0.00000  Uiso   1.00
C897   C     0.51514   0.77953   0.58168   0.00000  Uiso   1.00
C898   C     0.56998   0.67999   0.25003   0.00000  Uiso   1.00
C899   C     0.81996   0.57008   0.75009   0.00000  Uiso   1.00
C900   C     0.67998   0.92999   0.25001   0.00000  Uiso   1.00
C901   C     0.57000   0.68000   0.75001   0.00000  Uiso   1.00
C902   C     0.93002   0.82001   0.25003   0.00000  Uiso   1.00
C903   C     0.61513   0.91185   0.25598   0.00000  Uiso   1.00
C904   C     0.86385   0.60922   0.71489   0.00000  Uiso   1.00
C905   C     0.59802   0.62510   0.27929   0.00000  Uiso   1.00
C906   C     0.91179   0.88477   0.74395   0.00000  Uiso   1.00
C907   C     0.88487   0.58815   0.25598   0.00000  Uiso   1.00
C908   C     0.77897   0.51642   0.41816   0.00000  Uiso   1.00
C909   C     0.63580   0.89112   0.71496   0.00000  Uiso   1.00
C910   C     0.90197   0.87489   0.27931   0.00000  Uiso   1.00
C911   C     0.58821   0.61523   0.74394   0.00000  Uiso   1.00
C912   C     0.61523   0.58821   0.74394   0.00000  Uiso   1.00
C913   C     0.87489   0.90197   0.27931   0.00000  Uiso   1.00
C914   C     0.60887   0.86419   0.71496   0.00000  Uiso   1.00
C915   C     0.91185   0.61513   0.25598   0.00000  Uiso   1.00
C916   C     0.88477   0.91179   0.74395   0.00000  Uiso   1.00
C917   C     0.62510   0.59802   0.27929   0.00000  Uiso   1.00
C918   C     0.89077   0.63615   0.71489   0.00000  Uiso   1.00
C919   C     0.72041   0.98499   0.58168   0.00000  Uiso   1.00
C920   C     0.58815   0.88487   0.25598   0.00000  Uiso   1.00
C921   C     0.88570   0.64128   0.78553   0.00000  Uiso   1.00
C922   C     0.63487   0.83815   0.24417   0.00000  Uiso   1.00
C923   C     0.83821   0.86523   0.75617   0.00000  Uiso   1.00
C924   C     0.65211   0.62505   0.22106   0.00000  Uiso   1.00
C925   C     0.61465   0.85837   0.78548   0.00000  Uiso   1.00
C926   C     0.86513   0.66185   0.24417   0.00000  Uiso   1.00
C927   C     0.66179   0.63477   0.75618   0.00000  Uiso   1.00
C928   C     0.84790   0.87496   0.22104   0.00000  Uiso   1.00
C929   C     0.87496   0.84790   0.22104   0.00000  Uiso   1.00
C930   C     0.72749   0.52463   0.91833   0.00000  Uiso   1.00
C931   C     0.63477   0.66179   0.75618   0.00000  Uiso   1.00
C932   C     0.83815   0.63487   0.24417   0.00000  Uiso   1.00
C933   C     0.64163   0.88535   0.78548   0.00000  Uiso   1.00
C934   C     0.62505   0.65211   0.22106   0.00000  Uiso   1.00
C935   C     0.86523   0.83821   0.75617   0.00000  Uiso   1.00
C936   C     0.66185   0.86513   0.24417   0.00000  Uiso   1.00
C937   C     0.85872   0.61431   0.78553   0.00000  Uiso   1.00
C938   C     0.97943   0.72325   0.45893   0.00000  Uiso   1.00
C939   C     0.51982   0.77716   0.54105   0.00000  Uiso   1.00
C940   C     0.77688   0.52041   0.45893   0.00000  Uiso   1.00
Cl941  Cl    0.91889   0.67683   0.45635   0.00000  Uiso   1.00
Cl942  Cl    0.65371   0.55169   0.04421   0.00000  Uiso   1.00
Cl943  Cl    0.55205   0.65392   0.95559   0.00000  Uiso   1.00
Cl944  Cl    0.94815   0.84620   0.04422   0.00000  Uiso   1.00
Cl945  Cl    0.65384   0.55191   0.95560   0.00000  Uiso   1.00
Cl946  Cl    0.84630   0.94831   0.04422   0.00000  Uiso   1.00
Cl947  Cl    0.94798   0.84610   0.95560   0.00000  Uiso   1.00
Cl948  Cl    0.55181   0.65377   0.04421   0.00000  Uiso   1.00
Cl949  Cl    0.60283   0.95791   0.26525   0.00000  Uiso   1.00
Cl950  Cl    0.85147   0.58823   0.67051   0.00000  Uiso   1.00
Cl951  Cl    0.56377   0.62515   0.31558   0.00000  Uiso   1.00
Cl952  Cl    0.57919   0.82473   0.54487   0.00000  Uiso   1.00
Cl953  Cl    0.95780   0.89692   0.73454   0.00000  Uiso   1.00
Cl954  Cl    0.89717   0.54209   0.26525   0.00000  Uiso   1.00
Cl955  Cl    0.64779   0.91252   0.67067   0.00000  Uiso   1.00
Cl956  Cl    0.93621   0.87483   0.31561   0.00000  Uiso   1.00
Cl957  Cl    0.54220   0.60309   0.73452   0.00000  Uiso   1.00
Cl958  Cl    0.60309   0.54220   0.73452   0.00000  Uiso   1.00
Cl959  Cl    0.87483   0.93621   0.31561   0.00000  Uiso   1.00
Cl960  Cl    0.58747   0.85220   0.67068   0.00000  Uiso   1.00
Cl961  Cl    0.95791   0.60283   0.26525   0.00000  Uiso   1.00
Cl962  Cl    0.89692   0.95780   0.73454   0.00000  Uiso   1.00
Cl963  Cl    0.82367   0.58067   0.45635   0.00000  Uiso   1.00
Cl964  Cl    0.62516   0.56377   0.31558   0.00000  Uiso   1.00
Cl965  Cl    0.91170   0.64857   0.67049   0.00000  Uiso   1.00
Cl966  Cl    0.54209   0.89717   0.26525   0.00000  Uiso   1.00
Cl967  Cl    0.89788   0.66275   0.82979   0.00000  Uiso   1.00
Cl968  Cl    0.64719   0.79208   0.23501   0.00000  Uiso   1.00
Cl969  Cl    0.79221   0.85310   0.76566   0.00000  Uiso   1.00
Cl970  Cl    0.68675   0.62546   0.18523   0.00000  Uiso   1.00
Cl971  Cl    0.60287   0.83647   0.82962   0.00000  Uiso   1.00
Cl972  Cl    0.85281   0.70792   0.23501   0.00000  Uiso   1.00
Cl973  Cl    0.70779   0.64689   0.76568   0.00000  Uiso   1.00
Cl974  Cl    0.67488   0.92117   0.54484   0.00000  Uiso   1.00
Cl975  Cl    0.81327   0.87456   0.18519   0.00000  Uiso   1.00
Cl976  Cl    0.87456   0.81327   0.18520   0.00000  Uiso   1.00
Cl977  Cl    0.64689   0.70779   0.76568   0.00000  Uiso   1.00
Cl978  Cl    0.79208   0.64719   0.23501   0.00000  Uiso   1.00
Cl979  Cl    0.66353   0.89714   0.82962   0.00000  Uiso   1.00
Cl980  Cl    0.62546   0.68675   0.18523   0.00000  Uiso   1.00
Cl981  Cl    0.85310   0.79221   0.76566   0.00000  Uiso   1.00
Cl982  Cl    0.70792   0.85280   0.23501   0.00000  Uiso   1.00
Cl983  Cl    0.83725   0.60214   0.82980   0.00000  Uiso   1.00
Cl984  Cl    0.52656   0.81924   0.39157   0.00000  Uiso   1.00
Cl985  Cl    0.58114   0.82312   0.45638   0.00000  Uiso   1.00
Cl986  Cl    0.97814   0.67908   0.60752   0.00000  Uiso   1.00
Cl987  Cl    0.68061   0.97385   0.39155   0.00000  Uiso   1.00
Cl988  Cl    0.82102   0.52156   0.60756   0.00000  Uiso   1.00
Cl989  Cl    0.97343   0.68075   0.39154   0.00000  Uiso   1.00
Cl990  Cl    0.52180   0.82091   0.60749   0.00000  Uiso   1.00
Cl991  Cl    0.81941   0.52615   0.39153   0.00000  Uiso   1.00
Cl992  Cl    0.67900   0.97848   0.60751   0.00000  Uiso   1.00
Cl993  Cl    0.70974   0.56286   0.89258   0.00000  Uiso   1.00
Cl994  Cl    0.79050   0.93733   0.10727   0.00000  Uiso   1.00
Cl995  Cl    0.93710   0.79019   0.89258   0.00000  Uiso   1.00
Cl996  Cl    0.92081   0.67522   0.54484   0.00000  Uiso   1.00
Cl997  Cl    0.56272   0.70958   0.10728   0.00000  Uiso   1.00
Cl998  Cl    0.79026   0.93714   0.89258   0.00000  Uiso   1.00
Cl999  Cl    0.70950   0.56268   0.10727   0.00000  Uiso   1.00
Cl1000 Cl    0.56291   0.70983   0.89258   0.00000  Uiso   1.00
Cl1001 Cl    0.93727   0.79039   0.10727   0.00000  Uiso   1.00
Cl1002 Cl    0.67640   0.91930   0.45634   0.00000  Uiso   1.00
Cl1003 Cl    0.82519   0.57882   0.54484   0.00000  Uiso   1.00
Cl1004 Cl    0.84616   0.94809   0.95560   0.00000  Uiso   1.00
O1005  O     0.75000   0.50000   0.25000   0.00000  Uiso   1.00
O1006  O     0.75000   0.96963   0.66245   0.00000  Uiso   1.00
O1007  O     0.96963   0.75000   0.33755   0.00000  Uiso   1.00
O1008  O     0.53036   0.75000   0.66245   0.00000  Uiso   1.00
O1009  O     0.50000   0.71963   0.83755   0.00000  Uiso   1.00
O1010  O     0.50000   0.78037   0.16245   0.00000  Uiso   1.00
O1011  O     0.78036   0.50000   0.83755   0.00000  Uiso   1.00
O1012  O     0.71963   0.50000   0.16245   0.00000  Uiso   1.00
O1013  O     0.50000   0.78036   0.83755   0.00000  Uiso   1.00
O1014  O     0.50000   0.71964   0.16245   0.00000  Uiso   1.00
O1015  O     0.71963   0.50000   0.83755   0.00000  Uiso   1.00
O1016  O     0.75000   0.50000   0.75000   0.00000  Uiso   1.00
O1017  O     0.78036   0.50000   0.16245   0.00000  Uiso   1.00
O1018  O     0.70724   0.57308   0.27302   0.00000  Uiso   1.00
O1019  O     0.79275   0.92692   0.72698   0.00000  Uiso   1.00
O1020  O     0.92692   0.70725   0.27302   0.00000  Uiso   1.00
O1021  O     0.57307   0.79275   0.72698   0.00000  Uiso   1.00
O1022  O     0.79275   0.92692   0.27302   0.00000  Uiso   1.00
O1023  O     0.70724   0.57308   0.72698   0.00000  Uiso   1.00
O1024  O     0.57307   0.79275   0.27302   0.00000  Uiso   1.00
O1025  O     0.92692   0.70725   0.72698   0.00000  Uiso   1.00
O1026  O     0.70724   0.92692   0.72698   0.00000  Uiso   1.00
O1027  O     0.50000   0.75000   0.25000   0.00000  Uiso   1.00
O1028  O     0.79275   0.57308   0.27302   0.00000  Uiso   1.00
O1029  O     0.92692   0.79276   0.72698   0.00000  Uiso   1.00
O1030  O     0.57307   0.70724   0.27302   0.00000  Uiso   1.00
O1031  O     0.79275   0.57308   0.72698   0.00000  Uiso   1.00
O1032  O     0.70724   0.92692   0.27302   0.00000  Uiso   1.00
O1033  O     0.57307   0.70724   0.72698   0.00000  Uiso   1.00
O1034  O     0.92692   0.79276   0.27302   0.00000  Uiso   1.00
O1035  O     0.95724   0.82308   0.77302   0.00000  Uiso   1.00
O1036  O     0.54275   0.67692   0.22698   0.00000  Uiso   1.00
O1037  O     0.67692   0.95724   0.77302   0.00000  Uiso   1.00
O1038  O     0.50000   0.75000   0.75000   0.00000  Uiso   1.00
O1039  O     0.82307   0.54276   0.22698   0.00000  Uiso   1.00
O1040  O     0.54275   0.67692   0.77302   0.00000  Uiso   1.00
O1041  O     0.95724   0.82308   0.22698   0.00000  Uiso   1.00
O1042  O     0.82307   0.54276   0.77302   0.00000  Uiso   1.00
O1043  O     0.67692   0.95724   0.22698   0.00000  Uiso   1.00
O1044  O     0.95724   0.67693   0.22698   0.00000  Uiso   1.00
O1045  O     0.54275   0.82307   0.77302   0.00000  Uiso   1.00
O1046  O     0.67692   0.54276   0.22698   0.00000  Uiso   1.00
O1047  O     0.82307   0.95724   0.77302   0.00000  Uiso   1.00
O1048  O     0.54275   0.82307   0.22698   0.00000  Uiso   1.00
O1049  O     0.75000   0.96963   0.33755   0.00000  Uiso   1.00
O1050  O     0.95724   0.67693   0.77302   0.00000  Uiso   1.00
O1051  O     0.82307   0.95724   0.22698   0.00000  Uiso   1.00
O1052  O     0.67692   0.54276   0.77302   0.00000  Uiso   1.00
O1053  O     0.75000   0.53037   0.66245   0.00000  Uiso   1.00
O1054  O     0.53036   0.75000   0.33755   0.00000  Uiso   1.00
O1055  O     0.96963   0.75000   0.66245   0.00000  Uiso   1.00
O1056  O     0.75000   0.53037   0.33755   0.00000  Uiso   1.00
Zn1057 Zn    0.70659   0.50000   0.21735   0.00000  Uiso   1.00
Zn1058 Zn    0.54340   0.75000   0.28265   0.00000  Uiso   1.00
Zn1059 Zn    0.75000   0.95659   0.71735   0.00000  Uiso   1.00
Zn1060 Zn    0.75000   0.54341   0.28265   0.00000  Uiso   1.00
Zn1061 Zn    0.54340   0.75000   0.71735   0.00000  Uiso   1.00
Zn1062 Zn    0.95659   0.75000   0.28265   0.00000  Uiso   1.00
Zn1063 Zn    0.75000   0.54341   0.71735   0.00000  Uiso   1.00
Zn1064 Zn    0.75000   0.95659   0.28265   0.00000  Uiso   1.00
Zn1065 Zn    0.79340   0.50000   0.78265   0.00000  Uiso   1.00
Zn1066 Zn    0.50000   0.70660   0.21735   0.00000  Uiso   1.00
Zn1067 Zn    0.50000   0.79341   0.78265   0.00000  Uiso   1.00
Zn1068 Zn    0.79340   0.50000   0.21735   0.00000  Uiso   1.00
Zn1069 Zn    0.70659   0.50000   0.78265   0.00000  Uiso   1.00
Zn1070 Zn    0.50000   0.79340   0.21735   0.00000  Uiso   1.00
Zn1071 Zn    0.50000   0.70659   0.78265   0.00000  Uiso   1.00
Zn1072 Zn    0.95659   0.75000   0.71735   0.00000  Uiso   1.00
loop_
_geom_bond_atom_site_label_1
_geom_bond_atom_site_label_2
_geom_bond_distance
_geom_bond_site_symmetry_2
_ccdc_geom_bond_type
C1     Cl180   1.777   .     S
C1     C46     1.400   .     A
C1     C4      1.413   .     A
C2     C14     1.410   .     A
C2     Cl190   1.775   .     S
C2     C588    1.401   .     S
C3     C38     1.421   .     A
C3     C115    1.412   .     A
C3     C58     1.415   .     A
C4     C59     1.418   .     A
C4     C34     1.423   .     A
C5     C49     1.412   .     A
C5     C61     1.415   .     A
C5     C304    1.421   .     S
C6     C60     1.413   .     A
C6     C37     1.423   .     A
C6     C62     1.418   .     A
C7     C71     1.412   .     A
C7     C63     1.415   .     A
C7     C574    1.421   1_545 S
C8     C64     1.416   .     A
C8     C35     1.410   .     A
C8     C575    1.421   .     S
C9     C43     1.410   .     A
C9     C40     1.421   .     A
C9     C65     1.416   .     A
C10    C41     1.421   .     A
C10    C66     1.416   .     A
C10    C44     1.410   .     A
C11    C67     1.416   .     A
C11    C45     1.410   .     A
C11    C310    1.421   .     S
C12    C68     1.416   .     A
C12    C126    1.410   .     A
C12    C39     1.421   .     A
C13    C15     1.410   .     A
C13    Cl191   1.777   .     S
C13    C321    1.401   .     S
C14    C69     1.416   .     A
C14    C576    1.421   .     S
C15    C70     1.416   .     A
C15    C309    1.421   .     S
C16    C72     1.416   .     A
C16    C24     1.410   .     A
C16    C42     1.421   .     A
C17    C88     1.453   .     S
C17    C118    1.407   .     A
C17    C116    1.407   .     A
C18    C114    1.407   .     A
C18    C89     1.453   .     S
C18    C117    1.408   .     A
C19    C113    1.405   .     A
C19    C120    1.405   .     A
C19    C81     1.449   .     S
C20    C112    1.407   .     A
C20    C83     1.449   .     S
C20    C119    1.407   .     A
C21    C122    1.407   .     A
C21    C111    1.407   .     A
C21    C84     1.453   .     S
C22    C85     1.453   .     S
C22    C110    1.407   .     A
C22    C121    1.408   .     A
C23    C124    1.405   .     A
C23    C86     1.449   .     S
C23    C109    1.405   .     A
C24    C54     1.401   .     A
C24    Cl193   1.775   .     S
C25    C123    1.407   .     A
C25    C87     1.449   .     S
C25    C108    1.407   .     A
C26    C107    1.407   .     A
C26    C127    1.407   .     A
C26    C97     1.449   .     S
C27    C98     1.449   .     S
C27    C125    1.405   .     A
C27    C106    1.405   .     A
C28    C105    1.407   .     A
C28    C129    1.408   .     A
C28    C90     1.453   .     S
C29    C128    1.407   .     A
C29    C103    1.407   .     A
C29    C91     1.453   .     S
C30    C131    1.407   .     A
C30    C92     1.449   .     S
C30    C102    1.407   .     A
C31    C101    1.405   .     A
C31    C130    1.405   .     A
C31    C94     1.449   .     S
C32    C133    1.408   .     A
C32    C100    1.407   .     A
C32    C95     1.453   .     S
C33    C96     1.453   .     S
C33    C132    1.407   .     A
C33    C99     1.407   .     A
C34    C36     1.412   .     A
C34    C402    1.423   1_455 S
C35    Cl194   1.777   .     S
C35    C587    1.401   .     S
C36    C135    1.421   .     A
C36    C273    1.421   1_455 S
C37    C38     1.412   .     A
C37    C672    1.423   .     S
C38    C543    1.421   .     S
C39    C544    1.421   1_545 S
C39    C40     1.411   1_556 S
C40    C550    1.421   1_545 S
C40    C39     1.411   1_554 S
C41    C283    1.421   1_455 S
C41    C42     1.411   1_556 S
C42    C279    1.421   1_455 S
C42    C41     1.411   1_554 S
C43    Cl195   1.775   .     S
C43    C52     1.401   .     A
C44    Cl196   1.777   .     S
C44    C53     1.401   .     A
C45    Cl197   1.775   .     S
C45    C322    1.401   .     S
C46    C75     1.458   .     S
C46    C350    1.400   1_455 S
C47    C317    1.399   1_455 A
C47    C76     1.459   .     S
C47    C93     1.399   .     S
C48    C104    1.400   .     A
C48    C73     1.458   .     S
C48    C596    1.400   1_545 S
C49    C315    1.399   .     A
C49    Cl182   1.773   .     S
C50    C71     1.399   .     A
C50    C74     1.459   .     S
C50    C651    1.399   1_545 S
C51    C79     1.459   .     S
C51    C126    1.401   .     A
C51    C571    1.401   1_545 S
C52    C80     1.460   .     S
C52    C538    1.401   1_545 S
C53    C77     1.459   .     S
C53    C281    1.401   1_455 S
C54    C78     1.460   .     S
C54    C313    1.401   1_455 S
C55    C134    1.418   .     A
C55    Cl137   1.776   .     S
C55    C61     1.403   .     A
C56    Cl148   1.776   .     S
C56    C135    1.415   .     A
C56    C59     1.403   .     A
C57    C136    1.418   .     A
C57    Cl159   1.776   .     S
C57    C63     1.403   .     A
C58    C62     1.403   .     A
C58    Cl170   1.776   .     S
C59    Cl181   1.776   .     S
C60    Cl183   1.777   .     S
C60    C584    1.400   .     S
C61    Cl192   1.776   .     S
C62    Cl198   1.776   .     S
C63    Cl199   1.776   .     S
C64    Cl200   1.776   .     S
C64    C69     1.403   1_556 S
C65    Cl138   1.776   .     S
C65    C68     1.403   1_554 S
C66    Cl139   1.775   .     S
C66    C72     1.403   1_556 S
C67    Cl140   1.776   .     S
C67    C70     1.403   1_554 S
C68    Cl141   1.776   .     S
C68    C65     1.403   1_556 S
C69    Cl142   1.776   .     S
C69    C64     1.403   1_554 S
C70    Cl143   1.776   .     S
C70    C67     1.403   1_556 S
C71    Cl184   1.773   .     S
C72    Cl144   1.776   .     S
C72    C66     1.403   1_554 S
C73    O252    1.276   .     A
C73    O781    1.276   1_545 S
C74    O738    1.277   1_545 A
C74    O249    1.276   .     S
C75    O250    1.276   .     A
C75    O471    1.276   1_455 S
C76    O519    1.276   1_455 A
C76    O204    1.276   .     S
C77    O205    1.277   .     A
C77    O209    1.277   .     A
C78    O206    1.277   .     S
C78    O210    1.277   .     S
C79    O211    1.277   .     A
C79    O207    1.277   .     A
C80    O208    1.277   .     A
C80    O213    1.277   .     A
C81    O242    1.278   .     A
C81    O214    1.278   .     A
C82    Cl185   1.777   .     S
C82    C134    1.413   .     A
C82    C314    1.400   .     S
C83    O243    1.278   .     A
C83    O215    1.278   .     A
C84    O240    1.278   .     A
C84    O216    1.278   .     A
C85    O217    1.278   .     A
C85    O241    1.278   .     A
C86    O247    1.278   .     A
C86    O218    1.278   .     A
C87    O248    1.278   .     A
C87    O219    1.278   .     A
C88    O220    1.278   .     A
C88    O244    1.278   .     A
C89    O246    1.278   .     A
C89    O221    1.278   .     A
C90    O222    1.278   .     A
C90    O233    1.278   .     A
C91    O235    1.278   .     A
C91    O224    1.278   .     A
C92    O231    1.278   .     A
C92    O225    1.278   .     A
C93    Cl186   1.772   .     S
C93    C135    1.412   .     A
C94    O232    1.278   .     A
C94    O226    1.278   .     A
C95    O238    1.278   .     A
C95    O227    1.278   .     A
C96    O228    1.278   .     A
C96    O239    1.278   .     A
C97    O229    1.278   .     A
C97    O236    1.278   .     A
C98    O237    1.278   .     A
C98    O230    1.278   .     A
C99    C116    1.397   .     A
C99    Cl145   1.771   .     S
C100   Cl146   1.769   .     S
C100   C114    1.394   .     A
C101   C113    1.398   .     A
C101   Cl147   1.769   .     S
C102   C112    1.396   .     A
C102   Cl149   1.771   .     S
C103   C111    1.397   .     A
C103   Cl150   1.771   .     S
C104   Cl187   1.777   .     S
C104   C136    1.413   .     A
C105   C110    1.395   .     A
C105   Cl151   1.769   .     S
C106   Cl152   1.769   .     S
C106   C109    1.398   .     A
C107   C108    1.396   .     A
C107   Cl153   1.771   .     S
C108   Cl154   1.771   .     S
C109   Cl155   1.769   .     S
C110   Cl156   1.769   .     S
C111   Cl157   1.771   .     S
C112   Cl158   1.771   .     S
C113   Cl160   1.769   .     S
C114   Cl161   1.769   .     S
C115   Cl188   1.773   .     S
C115   C586    1.399   .     S
C116   Cl162   1.771   .     S
C117   C133    1.397   .     A
C117   Cl163   1.772   .     S
C118   Cl164   1.771   .     S
C118   C132    1.397   .     A
C119   C131    1.396   .     A
C119   Cl165   1.771   .     S
C120   C130    1.398   .     A
C120   Cl166   1.768   .     S
C121   Cl167   1.771   .     S
C121   C129    1.397   .     A
C122   C128    1.397   .     A
C122   Cl168   1.771   .     S
C123   C127    1.396   .     A
C123   Cl169   1.771   .     S
C124   Cl171   1.768   .     S
C124   C125    1.398   .     A
C125   Cl172   1.768   .     S
C126   Cl189   1.777   .     S
C127   Cl173   1.771   .     S
C128   Cl174   1.771   .     S
C129   Cl175   1.771   .     S
C130   Cl176   1.768   .     S
C131   Cl177   1.771   .     S
C132   Cl178   1.771   .     S
C133   Cl179   1.772   .     S
C134   C302    1.423   .     S
C136   C573    1.423   1_545 S
O201   Zn264   1.945   .     S
O201   Zn256   1.945   .     S
O201   Zn253   1.945   .     S
O201   Zn796   1.945   1_545 S
O202   Zn255   1.949   .     S
O202   C610    1.277   .     A
O203   Zn258   1.949   .     S
O203   C343    1.276   .     S
O204   Zn257   1.949   .     S
O205   Zn267   1.949   .     S
O206   Zn266   1.949   .     S
O207   Zn261   1.949   .     S
O208   Zn253   1.949   .     S
O209   Zn263   1.949   .     S
O210   Zn262   1.949   .     S
O211   Zn265   1.949   .     S
O212   Zn261   1.945   .     S
O212   Zn265   1.945   .     S
O212   Zn259   1.945   .     S
O212   Zn791   1.945   1_545 S
O213   Zn264   1.949   .     S
O214   Zn256   1.929   .     S
O215   Zn255   1.929   .     S
O216   Zn258   1.934   .     S
O217   Zn257   1.934   .     S
O218   Zn260   1.929   .     S
O219   Zn259   1.929   .     S
O220   Zn254   1.934   .     S
O221   Zn268   1.934   .     S
O222   Zn255   1.934   .     S
O223   Zn266   1.945   .     S
O223   Zn254   1.945   .     S
O223   Zn526   1.945   1_455 S
O223   Zn262   1.945   .     S
O224   Zn256   1.934   .     S
O225   Zn268   1.929   .     S
O226   Zn254   1.929   .     S
O227   Zn259   1.934   .     S
O228   Zn260   1.934   .     S
O229   Zn257   1.929   .     S
O230   Zn258   1.929   .     S
O231   Zn531   1.929   .     S
O232   Zn262   1.929   .     S
O233   Zn801   1.934   .     S
O234   Zn257   1.945   .     S
O234   Zn267   1.945   .     S
O234   Zn263   1.945   .     S
O234   Zn536   1.945   1_455 S
O235   Zn264   1.934   .     S
O236   Zn267   1.929   .     S
O237   Zn534   1.929   .     S
O238   Zn261   1.934   .     S
O239   Zn789   1.934   .     S
O240   Zn530   1.934   .     S
O241   Zn263   1.934   .     S
O242   Zn253   1.929   .     S
O243   Zn797   1.929   .     S
O244   Zn266   1.934   .     S
O245   Zn260   1.949   .     S
O245   C609    1.276   .     S
O246   Zn535   1.934   .     S
O247   Zn800   1.929   .     S
O248   Zn265   1.929   .     S
O249   Zn259   1.949   .     S
O250   Zn254   1.949   .     S
O251   C344    1.276   .     A
O251   Zn268   1.949   .     S
O252   Zn256   1.949   .     S
Zn253  O775    1.934   1_545 S
Zn255  O748    1.945   .     S
Zn258  O491    1.945   .     S
Zn260  O737    1.945   .     S
Zn261  O779    1.929   1_545 S
Zn262  O508    1.934   1_455 S
Zn263  O499    1.929   1_455 S
Zn264  O783    1.929   1_545 S
Zn265  O769    1.934   1_545 S
Zn266  O505    1.929   1_455 S
Zn267  O514    1.934   1_455 S
Zn268  O502    1.945   .     S
C269   Cl448   1.777   .     S
C269   C314    1.400   .     A
C269   C272    1.413   .     A
C270   C282    1.410   .     A
C270   Cl458   1.775   .     S
C270   C856    1.401   .     S
C271   C306    1.421   .     A
C271   C383    1.412   .     A
C271   C326    1.415   .     A
C272   C327    1.418   .     A
C272   C302    1.423   .     A
C273   C317    1.412   .     A
C273   C329    1.415   .     A
C273   C36     1.421   1_655 S
C274   C328    1.413   .     A
C274   C305    1.423   .     A
C274   C330    1.418   .     A
C275   C339    1.412   .     A
C275   C331    1.415   .     A
C275   C842    1.421   1_545 S
C276   C332    1.416   .     A
C276   C303    1.410   .     A
C276   C843    1.421   .     S
C277   C311    1.410   .     A
C277   C308    1.421   .     A
C277   C333    1.416   .     A
C278   C309    1.421   .     A
C278   C334    1.416   .     A
C278   C312    1.410   .     A
C279   C335    1.416   .     A
C279   C313    1.410   .     A
C279   C42     1.421   1_655 S
C280   C336    1.416   .     A
C280   C394    1.410   .     A
C280   C307    1.421   .     A
C281   C283    1.410   .     A
C281   Cl459   1.777   .     S
C281   C53     1.401   1_655 S
C282   C337    1.416   .     A
C282   C844    1.421   .     S
C283   C338    1.416   .     A
C283   C41     1.421   1_655 S
C284   C340    1.416   .     A
C284   C292    1.410   .     A
C284   C310    1.421   .     A
C285   C356    1.453   .     S
C285   C386    1.407   .     A
C285   C384    1.407   .     A
C286   C382    1.407   .     A
C286   C357    1.453   .     S
C286   C385    1.408   .     A
C287   C381    1.405   .     A
C287   C388    1.405   .     A
C287   C349    1.449   .     S
C288   C380    1.407   .     A
C288   C351    1.449   .     S
C288   C387    1.407   .     A
C289   C390    1.407   .     A
C289   C379    1.407   .     A
C289   C352    1.453   .     S
C290   C353    1.453   .     S
C290   C378    1.407   .     A
C290   C389    1.408   .     A
C291   C392    1.405   .     A
C291   C354    1.449   .     S
C291   C377    1.405   .     A
C292   C322    1.401   .     A
C292   Cl461   1.775   .     S
C293   C391    1.407   .     A
C293   C355    1.449   .     S
C293   C376    1.407   .     A
C294   C375    1.407   .     A
C294   C395    1.407   .     A
C294   C365    1.449   .     S
C295   C366    1.449   .     S
C295   C393    1.405   .     A
C295   C374    1.405   .     A
C296   C373    1.407   .     A
C296   C397    1.408   .     A
C296   C358    1.453   .     S
C297   C396    1.407   .     A
C297   C371    1.407   .     A
C297   C359    1.453   .     S
C298   C399    1.407   .     A
C298   C360    1.449   .     S
C298   C370    1.407   .     A
C299   C369    1.405   .     A
C299   C398    1.405   .     A
C299   C362    1.449   .     S
C300   C401    1.408   .     A
C300   C368    1.407   .     A
C300   C363    1.453   .     S
C301   C364    1.453   .     S
C301   C400    1.407   .     A
C301   C367    1.407   .     A
C302   C304    1.412   .     A
C303   Cl462   1.777   .     S
C303   C855    1.401   .     S
C304   C403    1.421   .     A
C305   C306    1.412   .     A
C305   C940    1.423   .     S
C306   C811    1.421   .     S
C307   C812    1.421   1_545 S
C307   C308    1.411   1_556 S
C308   C818    1.421   1_545 S
C308   C307    1.411   1_554 S
C309   C310    1.411   1_556 S
C310   C309    1.411   1_554 S
C311   Cl463   1.775   .     S
C311   C320    1.401   .     A
C312   Cl464   1.777   .     S
C312   C321    1.401   .     A
C313   Cl465   1.775   .     S
C313   C54     1.401   1_655 S
C314   C343    1.458   .     S
C315   C344    1.459   .     S
C315   C361    1.399   .     S
C316   C372    1.400   .     A
C316   C341    1.458   .     S
C316   C864    1.400   1_545 S
C317   C47     1.399   1_655 A
C317   Cl450   1.773   .     S
C318   C339    1.399   .     A
C318   C342    1.459   .     S
C318   C919    1.399   1_545 S
C319   C347    1.459   .     S
C319   C394    1.401   .     A
C319   C839    1.401   1_545 S
C320   C348    1.460   .     S
C320   C806    1.401   1_545 S
C321   C345    1.459   .     S
C322   C346    1.460   .     S
C323   C402    1.418   .     A
C323   Cl405   1.776   .     S
C323   C329    1.403   .     A
C324   Cl416   1.776   .     S
C324   C403    1.415   .     A
C324   C327    1.403   .     A
C325   C404    1.418   .     A
C325   Cl427   1.776   .     S
C325   C331    1.403   .     A
C326   C330    1.403   .     A
C326   Cl438   1.776   .     S
C327   Cl449   1.776   .     S
C328   Cl451   1.777   .     S
C328   C852    1.400   .     S
C329   Cl460   1.776   .     S
C330   Cl466   1.776   .     S
C331   Cl467   1.776   .     S
C332   Cl468   1.776   .     S
C332   C337    1.403   1_556 S
C333   Cl406   1.776   .     S
C333   C336    1.403   1_554 S
C334   Cl407   1.775   .     S
C334   C340    1.403   1_556 S
C335   Cl408   1.776   .     S
C335   C338    1.403   1_554 S
C336   Cl409   1.776   .     S
C336   C333    1.403   1_556 S
C337   Cl410   1.776   .     S
C337   C332    1.403   1_554 S
C338   Cl411   1.776   .     S
C338   C335    1.403   1_556 S
C339   Cl452   1.773   .     S
C340   Cl412   1.776   .     S
C340   C334    1.403   1_554 S
C341   O520    1.276   .     A
C341   O1049   1.276   1_545 S
C342   O1006   1.277   1_545 A
C342   O517    1.276   .     S
C343   O518    1.276   .     A
C344   O472    1.276   .     S
C345   O473    1.277   .     A
C345   O477    1.277   .     A
C346   O474    1.277   .     S
C346   O478    1.277   .     S
C347   O479    1.277   .     A
C347   O475    1.277   .     A
C348   O476    1.277   .     A
C348   O481    1.277   .     A
C349   O510    1.278   .     A
C349   O482    1.278   .     A
C350   Cl453   1.777   .     S
C350   C402    1.413   .     A
C350   C46     1.400   1_655 S
C351   O511    1.278   .     A
C351   O483    1.278   .     A
C352   O508    1.278   .     A
C352   O484    1.278   .     A
C353   O485    1.278   .     A
C353   O509    1.278   .     A
C354   O515    1.278   .     A
C354   O486    1.278   .     A
C355   O516    1.278   .     A
C355   O487    1.278   .     A
C356   O488    1.278   .     A
C356   O512    1.278   .     A
C357   O514    1.278   .     A
C357   O489    1.278   .     A
C358   O490    1.278   .     A
C358   O501    1.278   .     A
C359   O503    1.278   .     A
C359   O492    1.278   .     A
C360   O499    1.278   .     A
C360   O493    1.278   .     A
C361   Cl454   1.772   .     S
C361   C403    1.412   .     A
C362   O500    1.278   .     A
C362   O494    1.278   .     A
C363   O506    1.278   .     A
C363   O495    1.278   .     A
C364   O496    1.278   .     A
C364   O507    1.278   .     A
C365   O497    1.278   .     A
C365   O504    1.278   .     A
C366   O505    1.278   .     A
C366   O498    1.278   .     A
C367   C384    1.397   .     A
C367   Cl413   1.771   .     S
C368   Cl414   1.769   .     S
C368   C382    1.394   .     A
C369   C381    1.398   .     A
C369   Cl415   1.769   .     S
C370   C380    1.396   .     A
C370   Cl417   1.771   .     S
C371   C379    1.397   .     A
C371   Cl418   1.771   .     S
C372   Cl455   1.777   .     S
C372   C404    1.413   .     A
C373   C378    1.395   .     A
C373   Cl419   1.769   .     S
C374   Cl420   1.769   .     S
C374   C377    1.398   .     A
C375   C376    1.396   .     A
C375   Cl421   1.771   .     S
C376   Cl422   1.771   .     S
C377   Cl423   1.769   .     S
C378   Cl424   1.769   .     S
C379   Cl425   1.771   .     S
C380   Cl426   1.771   .     S
C381   Cl428   1.769   .     S
C382   Cl429   1.769   .     S
C383   Cl456   1.773   .     S
C383   C854    1.399   .     S
C384   Cl430   1.771   .     S
C385   C401    1.397   .     A
C385   Cl431   1.772   .     S
C386   Cl432   1.771   .     S
C386   C400    1.397   .     A
C387   C399    1.396   .     A
C387   Cl433   1.771   .     S
C388   C398    1.398   .     A
C388   Cl434   1.768   .     S
C389   Cl435   1.771   .     S
C389   C397    1.397   .     A
C390   C396    1.397   .     A
C390   Cl436   1.771   .     S
C391   C395    1.396   .     A
C391   Cl437   1.771   .     S
C392   Cl439   1.768   .     S
C392   C393    1.398   .     A
C393   Cl440   1.768   .     S
C394   Cl457   1.777   .     S
C395   Cl441   1.771   .     S
C396   Cl442   1.771   .     S
C397   Cl443   1.771   .     S
C398   Cl444   1.768   .     S
C399   Cl445   1.771   .     S
C400   Cl446   1.771   .     S
C401   Cl447   1.772   .     S
C402   C34     1.423   1_655 S
C404   C841    1.423   1_545 S
O469   Zn532   1.945   .     S
O469   Zn524   1.945   .     S
O469   Zn521   1.945   .     S
O469   Zn1064  1.945   1_545 S
O470   Zn523   1.949   .     S
O470   C878    1.277   .     A
O471   Zn526   1.949   .     S
O471   C75     1.276   1_655 S
O472   Zn525   1.949   .     S
O473   Zn535   1.949   .     S
O474   Zn534   1.949   .     S
O475   Zn529   1.949   .     S
O476   Zn521   1.949   .     S
O477   Zn531   1.949   .     S
O478   Zn530   1.949   .     S
O479   Zn533   1.949   .     S
O480   Zn529   1.945   .     S
O480   Zn533   1.945   .     S
O480   Zn527   1.945   .     S
O480   Zn1059  1.945   1_545 S
O481   Zn532   1.949   .     S
O482   Zn524   1.929   .     S
O483   Zn523   1.929   .     S
O484   Zn526   1.934   .     S
O485   Zn525   1.934   .     S
O486   Zn528   1.929   .     S
O487   Zn527   1.929   .     S
O488   Zn522   1.934   .     S
O489   Zn536   1.934   .     S
O490   Zn523   1.934   .     S
O491   Zn534   1.945   .     S
O491   Zn522   1.945   .     S
O491   Zn530   1.945   .     S
O492   Zn524   1.934   .     S
O493   Zn536   1.929   .     S
O494   Zn522   1.929   .     S
O495   Zn527   1.934   .     S
O496   Zn528   1.934   .     S
O497   Zn525   1.929   .     S
O498   Zn526   1.929   .     S
O499   Zn263   1.929   1_655 S
O500   Zn530   1.929   .     S
O501   Zn1069  1.934   .     S
O502   Zn525   1.945   .     S
O502   Zn535   1.945   .     S
O502   Zn531   1.945   .     S
O503   Zn532   1.934   .     S
O504   Zn535   1.929   .     S
O505   Zn266   1.929   1_655 S
O506   Zn529   1.934   .     S
O507   Zn1057  1.934   .     S
O508   Zn262   1.934   1_655 S
O509   Zn531   1.934   .     S
O510   Zn521   1.929   .     S
O511   Zn1065  1.929   .     S
O512   Zn534   1.934   .     S
O513   Zn528   1.949   .     S
O513   C877    1.276   .     S
O514   Zn267   1.934   1_655 S
O515   Zn1068  1.929   .     S
O516   Zn533   1.929   .     S
O517   Zn527   1.949   .     S
O518   Zn522   1.949   .     S
O519   C76     1.276   1_655 A
O519   Zn536   1.949   .     S
O520   Zn524   1.949   .     S
Zn521  O1043   1.934   1_545 S
Zn523  O1016   1.945   .     S
Zn526  O223    1.945   1_655 S
Zn528  O1005   1.945   .     S
Zn529  O1047   1.929   1_545 S
Zn532  O1051   1.929   1_545 S
Zn533  O1037   1.934   1_545 S
Zn536  O234    1.945   1_655 S
C537   Cl716   1.777   .     S
C537   C582    1.400   .     A
C537   C540    1.413   .     A
C538   C550    1.410   .     A
C538   Cl726   1.775   .     S
C538   C52     1.401   1_565 S
C539   C574    1.421   .     A
C539   C651    1.412   .     A
C539   C594    1.415   .     A
C540   C595    1.418   .     A
C540   C570    1.423   .     A
C541   C585    1.412   .     A
C541   C597    1.415   .     A
C541   C840    1.421   .     S
C542   C596    1.413   .     A
C542   C573    1.423   .     A
C542   C598    1.418   .     A
C543   C607    1.412   .     A
C543   C599    1.415   .     A
C544   C600    1.416   .     A
C544   C571    1.410   .     A
C544   C39     1.421   1_565 S
C545   C579    1.410   .     A
C545   C576    1.421   .     A
C545   C601    1.416   .     A
C546   C577    1.421   .     A
C546   C602    1.416   .     A
C546   C580    1.410   .     A
C547   C603    1.416   .     A
C547   C581    1.410   .     A
C547   C846    1.421   .     S
C548   C604    1.416   .     A
C548   C662    1.410   .     A
C548   C575    1.421   .     A
C549   C551    1.410   .     A
C549   Cl727   1.777   .     S
C549   C857    1.401   .     S
C550   C605    1.416   .     A
C550   C40     1.421   1_565 S
C551   C606    1.416   .     A
C551   C845    1.421   .     S
C552   C608    1.416   .     A
C552   C560    1.410   .     A
C552   C578    1.421   .     A
C553   C624    1.453   .     S
C553   C654    1.407   .     A
C553   C652    1.407   .     A
C554   C650    1.407   .     A
C554   C625    1.453   .     S
C554   C653    1.408   .     A
C555   C649    1.405   .     A
C555   C656    1.405   .     A
C555   C617    1.449   .     S
C556   C648    1.407   .     A
C556   C619    1.449   .     S
C556   C655    1.407   .     A
C557   C658    1.407   .     A
C557   C647    1.407   .     A
C557   C620    1.453   .     S
C558   C621    1.453   .     S
C558   C646    1.407   .     A
C558   C657    1.408   .     A
C559   C660    1.405   .     A
C559   C622    1.449   .     S
C559   C645    1.405   .     A
C560   C590    1.401   .     A
C560   Cl729   1.775   .     S
C561   C659    1.407   .     A
C561   C623    1.449   .     S
C561   C644    1.407   .     A
C562   C643    1.407   .     A
C562   C663    1.407   .     A
C562   C633    1.449   .     S
C563   C634    1.449   .     S
C563   C661    1.405   .     A
C563   C642    1.405   .     A
C564   C641    1.407   .     A
C564   C665    1.408   .     A
C564   C626    1.453   .     S
C565   C664    1.407   .     A
C565   C639    1.407   .     A
C565   C627    1.453   .     S
C566   C667    1.407   .     A
C566   C628    1.449   .     S
C566   C638    1.407   .     A
C567   C637    1.405   .     A
C567   C666    1.405   .     A
C567   C630    1.449   .     S
C568   C669    1.408   .     A
C568   C636    1.407   .     A
C568   C631    1.453   .     S
C569   C632    1.453   .     S
C569   C668    1.407   .     A
C569   C635    1.407   .     A
C570   C572    1.412   .     A
C570   C938    1.423   1_455 S
C571   Cl730   1.777   .     S
C571   C51     1.401   1_565 S
C572   C671    1.421   .     A
C572   C809    1.421   1_455 S
C573   C574    1.412   .     A
C573   C136    1.423   1_565 S
C574   C7      1.421   1_565 S
C575   C576    1.411   1_556 S
C576   C575    1.411   1_554 S
C577   C819    1.421   1_455 S
C577   C578    1.411   1_556 S
C578   C815    1.421   1_455 S
C578   C577    1.411   1_554 S
C579   Cl731   1.775   .     S
C579   C588    1.401   .     A
C580   Cl732   1.777   .     S
C580   C589    1.401   .     A
C581   Cl733   1.775   .     S
C581   C858    1.401   .     S
C582   C611    1.458   .     S
C582   C886    1.400   1_455 S
C583   C853    1.399   1_455 A
C583   C612    1.459   .     S
C583   C629    1.399   .     S
C584   C640    1.400   .     A
C584   C609    1.458   .     S
C585   C851    1.399   .     A
C585   Cl718   1.773   .     S
C586   C607    1.399   .     A
C586   C610    1.459   .     S
C587   C615    1.459   .     S
C587   C662    1.401   .     A
C588   C616    1.460   .     S
C589   C613    1.459   .     S
C589   C817    1.401   1_455 S
C590   C614    1.460   .     S
C590   C849    1.401   1_455 S
C591   C670    1.418   .     A
C591   Cl673   1.776   .     S
C591   C597    1.403   .     A
C592   Cl684   1.776   .     S
C592   C671    1.415   .     A
C592   C595    1.403   .     A
C593   C672    1.418   .     A
C593   Cl695   1.776   .     S
C593   C599    1.403   .     A
C594   C598    1.403   .     A
C594   Cl706   1.776   .     S
C595   Cl717   1.776   .     S
C596   Cl719   1.777   .     S
C596   C48     1.400   1_565 S
C597   Cl728   1.776   .     S
C598   Cl734   1.776   .     S
C599   Cl735   1.776   .     S
C600   Cl736   1.776   .     S
C600   C605    1.403   1_556 S
C601   Cl674   1.776   .     S
C601   C604    1.403   1_554 S
C602   Cl675   1.775   .     S
C602   C608    1.403   1_556 S
C603   Cl676   1.776   .     S
C603   C606    1.403   1_554 S
C604   Cl677   1.776   .     S
C604   C601    1.403   1_556 S
C605   Cl678   1.776   .     S
C605   C600    1.403   1_554 S
C606   Cl679   1.776   .     S
C606   C603    1.403   1_556 S
C607   Cl720   1.773   .     S
C608   Cl680   1.776   .     S
C608   C602    1.403   1_554 S
C609   O788    1.276   .     A
C610   O785    1.276   .     S
C611   O786    1.276   .     A
C611   O1007   1.276   1_455 S
C612   O1055   1.276   1_455 A
C612   O740    1.276   .     S
C613   O741    1.277   .     A
C613   O745    1.277   .     A
C614   O742    1.277   .     S
C614   O746    1.277   .     S
C615   O747    1.277   .     A
C615   O743    1.277   .     A
C616   O744    1.277   .     A
C616   O749    1.277   .     A
C617   O778    1.278   .     A
C617   O750    1.278   .     A
C618   Cl721   1.777   .     S
C618   C670    1.413   .     A
C618   C850    1.400   .     S
C619   O779    1.278   .     A
C619   O751    1.278   .     A
C620   O776    1.278   .     A
C620   O752    1.278   .     A
C621   O753    1.278   .     A
C621   O777    1.278   .     A
C622   O783    1.278   .     A
C622   O754    1.278   .     A
C623   O784    1.278   .     A
C623   O755    1.278   .     A
C624   O756    1.278   .     A
C624   O780    1.278   .     A
C625   O782    1.278   .     A
C625   O757    1.278   .     A
C626   O758    1.278   .     A
C626   O769    1.278   .     A
C627   O771    1.278   .     A
C627   O760    1.278   .     A
C628   O767    1.278   .     A
C628   O761    1.278   .     A
C629   Cl722   1.772   .     S
C629   C671    1.412   .     A
C630   O768    1.278   .     A
C630   O762    1.278   .     A
C631   O774    1.278   .     A
C631   O763    1.278   .     A
C632   O764    1.278   .     A
C632   O775    1.278   .     A
C633   O765    1.278   .     A
C633   O772    1.278   .     A
C634   O773    1.278   .     A
C634   O766    1.278   .     A
C635   C652    1.397   .     A
C635   Cl681   1.771   .     S
C636   Cl682   1.769   .     S
C636   C650    1.394   .     A
C637   C649    1.398   .     A
C637   Cl683   1.769   .     S
C638   C648    1.396   .     A
C638   Cl685   1.771   .     S
C639   C647    1.397   .     A
C639   Cl686   1.771   .     S
C640   Cl723   1.777   .     S
C640   C672    1.413   .     A
C641   C646    1.395   .     A
C641   Cl687   1.769   .     S
C642   Cl688   1.769   .     S
C642   C645    1.398   .     A
C643   C644    1.396   .     A
C643   Cl689   1.771   .     S
C644   Cl690   1.771   .     S
C645   Cl691   1.769   .     S
C646   Cl692   1.769   .     S
C647   Cl693   1.771   .     S
C648   Cl694   1.771   .     S
C649   Cl696   1.769   .     S
C650   Cl697   1.769   .     S
C651   Cl724   1.773   .     S
C651   C50     1.399   1_565 S
C652   Cl698   1.771   .     S
C653   C669    1.397   .     A
C653   Cl699   1.772   .     S
C654   Cl700   1.771   .     S
C654   C668    1.397   .     A
C655   C667    1.396   .     A
C655   Cl701   1.771   .     S
C656   C666    1.398   .     A
C656   Cl702   1.768   .     S
C657   Cl703   1.771   .     S
C657   C665    1.397   .     A
C658   C664    1.397   .     A
C658   Cl704   1.771   .     S
C659   C663    1.396   .     A
C659   Cl705   1.771   .     S
C660   Cl707   1.768   .     S
C660   C661    1.398   .     A
C661   Cl708   1.768   .     S
C662   Cl725   1.777   .     S
C663   Cl709   1.771   .     S
C664   Cl710   1.771   .     S
C665   Cl711   1.771   .     S
C666   Cl712   1.768   .     S
C667   Cl713   1.771   .     S
C668   Cl714   1.771   .     S
C669   Cl715   1.772   .     S
C670   C838    1.423   .     S
O737   Zn800   1.945   .     S
O737   Zn792   1.945   .     S
O737   Zn789   1.945   .     S
O738   Zn791   1.949   .     S
O738   C74     1.277   1_565 A
O739   Zn794   1.949   .     S
O739   C879    1.276   .     S
O740   Zn793   1.949   .     S
O741   Zn803   1.949   .     S
O742   Zn802   1.949   .     S
O743   Zn797   1.949   .     S
O744   Zn789   1.949   .     S
O745   Zn799   1.949   .     S
O746   Zn798   1.949   .     S
O747   Zn801   1.949   .     S
O748   Zn797   1.945   .     S
O748   Zn801   1.945   .     S
O748   Zn795   1.945   .     S
O749   Zn800   1.949   .     S
O750   Zn792   1.929   .     S
O751   Zn791   1.929   .     S
O752   Zn794   1.934   .     S
O753   Zn793   1.934   .     S
O754   Zn796   1.929   .     S
O755   Zn795   1.929   .     S
O756   Zn790   1.934   .     S
O757   Zn804   1.934   .     S
O758   Zn791   1.934   .     S
O759   Zn802   1.945   .     S
O759   Zn790   1.945   .     S
O759   Zn1062  1.945   1_455 S
O759   Zn798   1.945   .     S
O760   Zn792   1.934   .     S
O761   Zn804   1.929   .     S
O762   Zn790   1.929   .     S
O763   Zn795   1.934   .     S
O764   Zn796   1.934   .     S
O765   Zn793   1.929   .     S
O766   Zn794   1.929   .     S
O767   Zn1067  1.929   .     S
O768   Zn798   1.929   .     S
O769   Zn265   1.934   1_565 S
O770   Zn793   1.945   .     S
O770   Zn803   1.945   .     S
O770   Zn799   1.945   .     S
O770   Zn1072  1.945   1_455 S
O771   Zn800   1.934   .     S
O772   Zn803   1.929   .     S
O773   Zn1070  1.929   .     S
O774   Zn797   1.934   .     S
O775   Zn253   1.934   1_565 S
O776   Zn1066  1.934   .     S
O777   Zn799   1.934   .     S
O778   Zn789   1.929   .     S
O779   Zn261   1.929   1_565 S
O780   Zn802   1.934   .     S
O781   Zn796   1.949   .     S
O781   C73     1.276   1_565 S
O782   Zn1071  1.934   .     S
O783   Zn264   1.929   1_565 S
O784   Zn801   1.929   .     S
O785   Zn795   1.949   .     S
O786   Zn790   1.949   .     S
O787   C880    1.276   .     A
O787   Zn804   1.949   .     S
O788   Zn792   1.949   .     S
Zn791  O212    1.945   1_565 S
Zn794  O1027   1.945   .     S
Zn796  O201    1.945   1_565 S
Zn798  O1044   1.934   1_455 S
Zn799  O1035   1.929   1_455 S
Zn802  O1041   1.929   1_455 S
Zn803  O1050   1.934   1_455 S
Zn804  O1038   1.945   .     S
C805   Cl984   1.777   .     S
C805   C850    1.400   .     A
C805   C808    1.413   .     A
C806   C818    1.410   .     A
C806   Cl994   1.775   .     S
C806   C320    1.401   1_565 S
C807   C842    1.421   .     A
C807   C919    1.412   .     A
C807   C862    1.415   .     A
C808   C863    1.418   .     A
C808   C838    1.423   .     A
C809   C853    1.412   .     A
C809   C865    1.415   .     A
C809   C572    1.421   1_655 S
C810   C864    1.413   .     A
C810   C841    1.423   .     A
C810   C866    1.418   .     A
C811   C875    1.412   .     A
C811   C867    1.415   .     A
C812   C868    1.416   .     A
C812   C839    1.410   .     A
C812   C307    1.421   1_565 S
C813   C847    1.410   .     A
C813   C844    1.421   .     A
C813   C869    1.416   .     A
C814   C845    1.421   .     A
C814   C870    1.416   .     A
C814   C848    1.410   .     A
C815   C871    1.416   .     A
C815   C849    1.410   .     A
C815   C578    1.421   1_655 S
C816   C872    1.416   .     A
C816   C930    1.410   .     A
C816   C843    1.421   .     A
C817   C819    1.410   .     A
C817   Cl995   1.777   .     S
C817   C589    1.401   1_655 S
C818   C873    1.416   .     A
C818   C308    1.421   1_565 S
C819   C874    1.416   .     A
C819   C577    1.421   1_655 S
C820   C876    1.416   .     A
C820   C828    1.410   .     A
C820   C846    1.421   .     A
C821   C892    1.453   .     S
C821   C922    1.407   .     A
C821   C920    1.407   .     A
C822   C918    1.407   .     A
C822   C893    1.453   .     S
C822   C921    1.408   .     A
C823   C917    1.405   .     A
C823   C924    1.405   .     A
C823   C885    1.449   .     S
C824   C916    1.407   .     A
C824   C887    1.449   .     S
C824   C923    1.407   .     A
C825   C926    1.407   .     A
C825   C915    1.407   .     A
C825   C888    1.453   .     S
C826   C889    1.453   .     S
C826   C914    1.407   .     A
C826   C925    1.408   .     A
C827   C928    1.405   .     A
C827   C890    1.449   .     S
C827   C913    1.405   .     A
C828   C858    1.401   .     A
C828   Cl997   1.775   .     S
C829   C927    1.407   .     A
C829   C891    1.449   .     S
C829   C912    1.407   .     A
C830   C911    1.407   .     A
C830   C931    1.407   .     A
C830   C901    1.449   .     S
C831   C902    1.449   .     S
C831   C929    1.405   .     A
C831   C910    1.405   .     A
C832   C909    1.407   .     A
C832   C933    1.408   .     A
C832   C894    1.453   .     S
C833   C932    1.407   .     A
C833   C907    1.407   .     A
C833   C895    1.453   .     S
C834   C935    1.407   .     A
C834   C896    1.449   .     S
C834   C906    1.407   .     A
C835   C905    1.405   .     A
C835   C934    1.405   .     A
C835   C898    1.449   .     S
C836   C937    1.408   .     A
C836   C904    1.407   .     A
C836   C899    1.453   .     S
C837   C900    1.453   .     S
C837   C936    1.407   .     A
C837   C903    1.407   .     A
C838   C840    1.412   .     A
C839   Cl998   1.777   .     S
C839   C319    1.401   1_565 S
C840   C939    1.421   .     A
C841   C842    1.412   .     A
C841   C404    1.423   1_565 S
C842   C275    1.421   1_565 S
C843   C844    1.411   1_556 S
C844   C843    1.411   1_554 S
C845   C846    1.411   1_556 S
C846   C845    1.411   1_554 S
C847   Cl999   1.775   .     S
C847   C856    1.401   .     A
C848   Cl1000  1.777   .     S
C848   C857    1.401   .     A
C849   Cl1001  1.775   .     S
C849   C590    1.401   1_655 S
C850   C879    1.458   .     S
C851   C880    1.459   .     S
C851   C897    1.399   .     S
C852   C908    1.400   .     A
C852   C877    1.458   .     S
C853   C583    1.399   1_655 A
C853   Cl986   1.773   .     S
C854   C875    1.399   .     A
C854   C878    1.459   .     S
C855   C883    1.459   .     S
C855   C930    1.401   .     A
C856   C884    1.460   .     S
C857   C881    1.459   .     S
C858   C882    1.460   .     S
C859   C938    1.418   .     A
C859   Cl941   1.776   .     S
C859   C865    1.403   .     A
C860   Cl952   1.776   .     S
C860   C939    1.415   .     A
C860   C863    1.403   .     A
C861   C940    1.418   .     A
C861   Cl963   1.776   .     S
C861   C867    1.403   .     A
C862   C866    1.403   .     A
C862   Cl974   1.776   .     S
C863   Cl985   1.776   .     S
C864   Cl987   1.777   .     S
C864   C316    1.400   1_565 S
C865   Cl996   1.776   .     S
C866   Cl1002  1.776   .     S
C867   Cl1003  1.776   .     S
C868   Cl1004  1.776   .     S
C868   C873    1.403   1_556 S
C869   Cl942   1.776   .     S
C869   C872    1.403   1_554 S
C870   Cl943   1.775   .     S
C870   C876    1.403   1_556 S
C871   Cl944   1.776   .     S
C871   C874    1.403   1_554 S
C872   Cl945   1.776   .     S
C872   C869    1.403   1_556 S
C873   Cl946   1.776   .     S
C873   C868    1.403   1_554 S
C874   Cl947   1.776   .     S
C874   C871    1.403   1_556 S
C875   Cl988   1.773   .     S
C876   Cl948   1.776   .     S
C876   C870    1.403   1_554 S
C877   O1056   1.276   .     A
C878   O1053   1.276   .     S
C879   O1054   1.276   .     A
C880   O1008   1.276   .     S
C881   O1009   1.277   .     A
C881   O1013   1.277   .     A
C882   O1010   1.277   .     S
C882   O1014   1.277   .     S
C883   O1015   1.277   .     A
C883   O1011   1.277   .     A
C884   O1012   1.277   .     A
C884   O1017   1.277   .     A
C885   O1046   1.278   .     A
C885   O1018   1.278   .     A
C886   Cl989   1.777   .     S
C886   C938    1.413   .     A
C886   C582    1.400   1_655 S
C887   O1047   1.278   .     A
C887   O1019   1.278   .     A
C888   O1044   1.278   .     A
C888   O1020   1.278   .     A
C889   O1021   1.278   .     A
C889   O1045   1.278   .     A
C890   O1051   1.278   .     A
C890   O1022   1.278   .     A
C891   O1052   1.278   .     A
C891   O1023   1.278   .     A
C892   O1024   1.278   .     A
C892   O1048   1.278   .     A
C893   O1050   1.278   .     A
C893   O1025   1.278   .     A
C894   O1026   1.278   .     A
C894   O1037   1.278   .     A
C895   O1039   1.278   .     A
C895   O1028   1.278   .     A
C896   O1035   1.278   .     A
C896   O1029   1.278   .     A
C897   Cl990   1.772   .     S
C897   C939    1.412   .     A
C898   O1036   1.278   .     A
C898   O1030   1.278   .     A
C899   O1042   1.278   .     A
C899   O1031   1.278   .     A
C900   O1032   1.278   .     A
C900   O1043   1.278   .     A
C901   O1033   1.278   .     A
C901   O1040   1.278   .     A
C902   O1041   1.278   .     A
C902   O1034   1.278   .     A
C903   C920    1.397   .     A
C903   Cl949   1.771   .     S
C904   Cl950   1.769   .     S
C904   C918    1.394   .     A
C905   C917    1.398   .     A
C905   Cl951   1.769   .     S
C906   C916    1.396   .     A
C906   Cl953   1.771   .     S
C907   C915    1.397   .     A
C907   Cl954   1.771   .     S
C908   Cl991   1.777   .     S
C908   C940    1.413   .     A
C909   C914    1.395   .     A
C909   Cl955   1.769   .     S
C910   Cl956   1.769   .     S
C910   C913    1.398   .     A
C911   C912    1.396   .     A
C911   Cl957   1.771   .     S
C912   Cl958   1.771   .     S
C913   Cl959   1.769   .     S
C914   Cl960   1.769   .     S
C915   Cl961   1.771   .     S
C916   Cl962   1.771   .     S
C917   Cl964   1.769   .     S
C918   Cl965   1.769   .     S
C919   Cl992   1.773   .     S
C919   C318    1.399   1_565 S
C920   Cl966   1.771   .     S
C921   C937    1.397   .     A
C921   Cl967   1.772   .     S
C922   Cl968   1.771   .     S
C922   C936    1.397   .     A
C923   C935    1.396   .     A
C923   Cl969   1.771   .     S
C924   C934    1.398   .     A
C924   Cl970   1.768   .     S
C925   Cl971   1.771   .     S
C925   C933    1.397   .     A
C926   C932    1.397   .     A
C926   Cl972   1.771   .     S
C927   C931    1.396   .     A
C927   Cl973   1.771   .     S
C928   Cl975   1.768   .     S
C928   C929    1.398   .     A
C929   Cl976   1.768   .     S
C930   Cl993   1.777   .     S
C931   Cl977   1.771   .     S
C932   Cl978   1.771   .     S
C933   Cl979   1.771   .     S
C934   Cl980   1.768   .     S
C935   Cl981   1.771   .     S
C936   Cl982   1.771   .     S
C937   Cl983   1.772   .     S
C938   C570    1.423   1_655 S
O1005  Zn1068  1.945   .     S
O1005  Zn1060  1.945   .     S
O1005  Zn1057  1.945   .     S
O1006  Zn1059  1.949   .     S
O1006  C342    1.277   1_565 A
O1007  Zn1062  1.949   .     S
O1007  C611    1.276   1_655 S
O1008  Zn1061  1.949   .     S
O1009  Zn1071  1.949   .     S
O1010  Zn1070  1.949   .     S
O1011  Zn1065  1.949   .     S
O1012  Zn1057  1.949   .     S
O1013  Zn1067  1.949   .     S
O1014  Zn1066  1.949   .     S
O1015  Zn1069  1.949   .     S
O1016  Zn1065  1.945   .     S
O1016  Zn1069  1.945   .     S
O1016  Zn1063  1.945   .     S
O1017  Zn1068  1.949   .     S
O1018  Zn1060  1.929   .     S
O1019  Zn1059  1.929   .     S
O1020  Zn1062  1.934   .     S
O1021  Zn1061  1.934   .     S
O1022  Zn1064  1.929   .     S
O1023  Zn1063  1.929   .     S
O1024  Zn1058  1.934   .     S
O1025  Zn1072  1.934   .     S
O1026  Zn1059  1.934   .     S
O1027  Zn1070  1.945   .     S
O1027  Zn1058  1.945   .     S
O1027  Zn1066  1.945   .     S
O1028  Zn1060  1.934   .     S
O1029  Zn1072  1.929   .     S
O1030  Zn1058  1.929   .     S
O1031  Zn1063  1.934   .     S
O1032  Zn1064  1.934   .     S
O1033  Zn1061  1.929   .     S
O1034  Zn1062  1.929   .     S
O1035  Zn799   1.929   1_655 S
O1036  Zn1066  1.929   .     S
O1037  Zn533   1.934   1_565 S
O1038  Zn1061  1.945   .     S
O1038  Zn1071  1.945   .     S
O1038  Zn1067  1.945   .     S
O1039  Zn1068  1.934   .     S
O1040  Zn1071  1.929   .     S
O1041  Zn802   1.929   1_655 S
O1042  Zn1065  1.934   .     S
O1043  Zn521   1.934   1_565 S
O1044  Zn798   1.934   1_655 S
O1045  Zn1067  1.934   .     S
O1046  Zn1057  1.929   .     S
O1047  Zn529   1.929   1_565 S
O1048  Zn1070  1.934   .     S
O1049  Zn1064  1.949   .     S
O1049  C341    1.276   1_565 S
O1050  Zn803   1.934   1_655 S
O1051  Zn532   1.929   1_565 S
O1052  Zn1069  1.929   .     S
O1053  Zn1063  1.949   .     S
O1054  Zn1058  1.949   .     S
O1055  C612    1.276   1_655 A
O1055  Zn1072  1.949   .     S
O1056  Zn1060  1.949   .     S
Zn1059 O480    1.945   1_565 S
Zn1062 O759    1.945   1_655 S
Zn1064 O469    1.945   1_565 S
Zn1072 O770    1.945   1_655 S
