data_str_m2_o1_o18_pcu_sym.182
_audit_creation_date              2020-01-03
_audit_creation_method            'Materials Studio'
_symmetry_space_group_name_H-M    'P1'
_symmetry_Int_Tables_number       1
_symmetry_cell_setting            triclinic
loop_
_symmetry_equiv_pos_as_xyz
  x,y,z
_cell_length_a                    28.6390
_cell_length_b                    32.4027
_cell_length_c                    30.8705
_cell_angle_alpha                 89.3013
_cell_angle_beta                  74.6336
_cell_angle_gamma                 89.4369
loop_
_atom_site_label
_atom_site_type_symbol
_atom_site_fract_x
_atom_site_fract_y
_atom_site_fract_z
_atom_site_U_iso_or_equiv
_atom_site_adp_type
_atom_site_occupancy
O1     O     0.03958   0.10655   0.25000   0.00000  Uiso   1.00
O2     O     0.29375   0.22678   0.25000   0.00000  Uiso   1.00
O3     O     0.29372   0.10654   0.25001   0.00000  Uiso   1.00
O4     O     0.03961   0.22679   0.25000   0.00000  Uiso   1.00
C5     C     0.00046   0.08745   0.24916   0.00000  Uiso   1.00
C6     C     0.33287   0.24588   0.25084   0.00000  Uiso   1.00
O7     O     0.01852   0.16668   0.31492   0.00000  Uiso   1.00
O8     O     0.31481   0.16666   0.18509   0.00000  Uiso   1.00
O9     O     0.27267   0.16667   0.31492   0.00000  Uiso   1.00
O10    O     0.06067   0.16667   0.18508   0.00000  Uiso   1.00
C11    C     0.30616   0.16723   0.33605   0.00000  Uiso   1.00
C12    C     0.02718   0.16610   0.16395   0.00000  Uiso   1.00
Cu13   Cu    0.04689   0.16667   0.25000   0.00000  Uiso   1.00
Cu14   Cu    0.28645   0.16666   0.25000   0.00000  Uiso   1.00
C15    C     0.29115   0.17171   0.38498   0.00000  Uiso   1.00
C16    C     0.04218   0.16162   0.11502   0.00000  Uiso   1.00
C17    C     0.30236   0.20251   0.45212   0.00000  Uiso   1.00
C18    C     0.03097   0.13084   0.04787   0.00000  Uiso   1.00
C19    C     0.32051   0.19203   0.40725   0.00000  Uiso   1.00
C20    C     0.01282   0.14132   0.09275   0.00000  Uiso   1.00
C21    C     0.24445   0.15997   0.40844   0.00000  Uiso   1.00
C22    C     0.08888   0.17336   0.09156   0.00000  Uiso   1.00
C23    C     0.22503   0.16966   0.45414   0.00000  Uiso   1.00
C24    C     0.10831   0.16369   0.04586   0.00000  Uiso   1.00
C25    C     0.25459   0.19221   0.47593   0.00000  Uiso   1.00
C26    C     0.07874   0.14113   0.02407   0.00000  Uiso   1.00
C27    C     0.17640   0.15941   0.47778   0.00000  Uiso   1.00
C28    C     0.15693   0.17393   0.02221   0.00000  Uiso   1.00
C29    C     0.18671   0.19813   0.04175   0.00000  Uiso   1.00
C30    C     0.14662   0.13521   0.45825   0.00000  Uiso   1.00
C31    C     0.23497   0.20619   0.01999   0.00000  Uiso   1.00
C32    C     0.09835   0.12716   0.48001   0.00000  Uiso   1.00
H33    H     0.10990   0.18828   0.11086   0.00000  Uiso   1.00
H34    H     0.22343   0.14505   0.38914   0.00000  Uiso   1.00
H35    H     0.31006   0.13152   0.11064   0.00000  Uiso   1.00
H36    H     0.02326   0.20183   0.38936   0.00000  Uiso   1.00
H37    H     0.32560   0.22030   0.46712   0.00000  Uiso   1.00
H38    H     0.00773   0.11306   0.03287   0.00000  Uiso   1.00
H39    H     0.17379   0.21165   0.07440   0.00000  Uiso   1.00
H40    H     0.15954   0.12169   0.42560   0.00000  Uiso   1.00
C41    C     0.29272   0.02225   0.27356   0.00000  Uiso   1.00
C42    C     0.04061   0.31108   0.22644   0.00000  Uiso   1.00
H43    H     0.26144   0.03948   0.29247   0.00000  Uiso   1.00
H44    H     0.07189   0.29386   0.20753   0.00000  Uiso   1.00
C45    C     0.29157   0.31285   0.27497   0.00000  Uiso   1.00
C46    C     0.04177   0.02048   0.22503   0.00000  Uiso   1.00
C47    C     0.33245   0.29050   0.25103   0.00000  Uiso   1.00
C48    C     0.00088   0.04284   0.24897   0.00000  Uiso   1.00
C49    C     0.18363   0.14217   0.27921   0.00000  Uiso   1.00
C50    C     0.14971   0.19117   0.22079   0.00000  Uiso   1.00
H51    H     0.19604   0.12252   0.30256   0.00000  Uiso   1.00
H52    H     0.13730   0.21081   0.19744   0.00000  Uiso   1.00
C53    C     0.13410   0.14204   0.27935   0.00000  Uiso   1.00
C54    C     0.19924   0.19129   0.22065   0.00000  Uiso   1.00
N55    N     0.11736   0.16668   0.24999   0.00000  Uiso   1.00
N56    N     0.21597   0.16666   0.25001   0.00000  Uiso   1.00
N57    N     0.26291   0.23014   0.04289   0.00000  Uiso   1.00
O58    O     0.24412   0.26308   0.06464   0.00000  Uiso   1.00
O59    O     0.30356   0.21567   0.04824   0.00000  Uiso   1.00
N60    N     0.07042   0.10320   0.45711   0.00000  Uiso   1.00
O61    O     0.02978   0.11768   0.45174   0.00000  Uiso   1.00
O62    O     0.08920   0.07024   0.43540   0.00000  Uiso   1.00
Cl63   Cl    0.23934   0.28900   0.30910   0.00000  Uiso   1.00
Cl64   Cl    0.09400   0.04434   0.19090   0.00000  Uiso   1.00
N65    N     0.10184   0.11593   0.31081   0.00000  Uiso   1.00
O66    O     0.10008   0.07699   0.30173   0.00000  Uiso   1.00
O67    O     0.08680   0.12759   0.35237   0.00000  Uiso   1.00
N68    N     0.23150   0.21739   0.18919   0.00000  Uiso   1.00
O69    O     0.23327   0.25634   0.19827   0.00000  Uiso   1.00
O70    O     0.24653   0.20574   0.14763   0.00000  Uiso   1.00
O71    O     0.37291   0.10655   0.25000   0.00000  Uiso   1.00
O72    O     0.62709   0.22678   0.25000   0.00000  Uiso   1.00
O73    O     0.62706   0.10654   0.25001   0.00000  Uiso   1.00
O74    O     0.37294   0.22679   0.25000   0.00000  Uiso   1.00
C75    C     0.33380   0.08745   0.24916   0.00000  Uiso   1.00
C76    C     0.66620   0.24588   0.25084   0.00000  Uiso   1.00
O77    O     0.35186   0.16668   0.31492   0.00000  Uiso   1.00
O78    O     0.64814   0.16666   0.18509   0.00000  Uiso   1.00
O79    O     0.60600   0.16667   0.31492   0.00000  Uiso   1.00
O80    O     0.39400   0.16667   0.18508   0.00000  Uiso   1.00
C81    C     0.63949   0.16723   0.33605   0.00000  Uiso   1.00
C82    C     0.36051   0.16610   0.16395   0.00000  Uiso   1.00
Cu83   Cu    0.38022   0.16667   0.25000   0.00000  Uiso   1.00
Cu84   Cu    0.61978   0.16666   0.25000   0.00000  Uiso   1.00
C85    C     0.62449   0.17171   0.38498   0.00000  Uiso   1.00
C86    C     0.37551   0.16162   0.11502   0.00000  Uiso   1.00
C87    C     0.63569   0.20251   0.45212   0.00000  Uiso   1.00
C88    C     0.36430   0.13084   0.04787   0.00000  Uiso   1.00
C89    C     0.65385   0.19203   0.40725   0.00000  Uiso   1.00
C90    C     0.34615   0.14132   0.09275   0.00000  Uiso   1.00
C91    C     0.57779   0.15997   0.40844   0.00000  Uiso   1.00
C92    C     0.42222   0.17336   0.09156   0.00000  Uiso   1.00
C93    C     0.55836   0.16966   0.45414   0.00000  Uiso   1.00
C94    C     0.44164   0.16369   0.04586   0.00000  Uiso   1.00
C95    C     0.58792   0.19221   0.47593   0.00000  Uiso   1.00
C96    C     0.41207   0.14113   0.02407   0.00000  Uiso   1.00
C97    C     0.50973   0.15941   0.47778   0.00000  Uiso   1.00
C98    C     0.49026   0.17393   0.02221   0.00000  Uiso   1.00
C99    C     0.52004   0.19813   0.04175   0.00000  Uiso   1.00
C100   C     0.47995   0.13521   0.45825   0.00000  Uiso   1.00
C101   C     0.56831   0.20619   0.01999   0.00000  Uiso   1.00
C102   C     0.43169   0.12716   0.48001   0.00000  Uiso   1.00
H103   H     0.44324   0.18828   0.11086   0.00000  Uiso   1.00
H104   H     0.55677   0.14505   0.38914   0.00000  Uiso   1.00
H105   H     0.64340   0.13152   0.11064   0.00000  Uiso   1.00
H106   H     0.35660   0.20183   0.38936   0.00000  Uiso   1.00
H107   H     0.65893   0.22030   0.46712   0.00000  Uiso   1.00
H108   H     0.34106   0.11306   0.03287   0.00000  Uiso   1.00
H109   H     0.50712   0.21165   0.07440   0.00000  Uiso   1.00
H110   H     0.49287   0.12169   0.42560   0.00000  Uiso   1.00
C111   C     0.62606   0.02225   0.27356   0.00000  Uiso   1.00
C112   C     0.37394   0.31108   0.22644   0.00000  Uiso   1.00
H113   H     0.59478   0.03948   0.29247   0.00000  Uiso   1.00
H114   H     0.40522   0.29386   0.20753   0.00000  Uiso   1.00
C115   C     0.62490   0.31285   0.27497   0.00000  Uiso   1.00
C116   C     0.37510   0.02048   0.22503   0.00000  Uiso   1.00
C117   C     0.66578   0.29050   0.25103   0.00000  Uiso   1.00
C118   C     0.33422   0.04284   0.24897   0.00000  Uiso   1.00
C119   C     0.51696   0.14217   0.27921   0.00000  Uiso   1.00
C120   C     0.48304   0.19117   0.22079   0.00000  Uiso   1.00
H121   H     0.52937   0.12252   0.30256   0.00000  Uiso   1.00
H122   H     0.47063   0.21081   0.19744   0.00000  Uiso   1.00
C123   C     0.46743   0.14204   0.27935   0.00000  Uiso   1.00
C124   C     0.53257   0.19129   0.22065   0.00000  Uiso   1.00
N125   N     0.45069   0.16668   0.24999   0.00000  Uiso   1.00
N126   N     0.54931   0.16666   0.25001   0.00000  Uiso   1.00
N127   N     0.59624   0.23014   0.04289   0.00000  Uiso   1.00
O128   O     0.57745   0.26308   0.06464   0.00000  Uiso   1.00
O129   O     0.63689   0.21567   0.04824   0.00000  Uiso   1.00
N130   N     0.40376   0.10320   0.45711   0.00000  Uiso   1.00
O131   O     0.36312   0.11768   0.45174   0.00000  Uiso   1.00
O132   O     0.42253   0.07024   0.43540   0.00000  Uiso   1.00
Cl133  Cl    0.57267   0.28900   0.30910   0.00000  Uiso   1.00
Cl134  Cl    0.42733   0.04434   0.19090   0.00000  Uiso   1.00
N135   N     0.43517   0.11593   0.31081   0.00000  Uiso   1.00
O136   O     0.43341   0.07699   0.30173   0.00000  Uiso   1.00
O137   O     0.42013   0.12759   0.35237   0.00000  Uiso   1.00
N138   N     0.56483   0.21739   0.18919   0.00000  Uiso   1.00
O139   O     0.56661   0.25634   0.19827   0.00000  Uiso   1.00
O140   O     0.57986   0.20574   0.14763   0.00000  Uiso   1.00
O141   O     0.70625   0.10655   0.25000   0.00000  Uiso   1.00
O142   O     0.96042   0.22678   0.25000   0.00000  Uiso   1.00
O143   O     0.96039   0.10654   0.25001   0.00000  Uiso   1.00
O144   O     0.70628   0.22679   0.25000   0.00000  Uiso   1.00
C145   C     0.66713   0.08745   0.24916   0.00000  Uiso   1.00
C146   C     0.99954   0.24588   0.25084   0.00000  Uiso   1.00
O147   O     0.68519   0.16668   0.31492   0.00000  Uiso   1.00
O148   O     0.98148   0.16666   0.18509   0.00000  Uiso   1.00
O149   O     0.93933   0.16667   0.31492   0.00000  Uiso   1.00
O150   O     0.72733   0.16667   0.18508   0.00000  Uiso   1.00
C151   C     0.97282   0.16723   0.33605   0.00000  Uiso   1.00
C152   C     0.69384   0.16610   0.16395   0.00000  Uiso   1.00
Cu153  Cu    0.71355   0.16667   0.25000   0.00000  Uiso   1.00
Cu154  Cu    0.95311   0.16666   0.25000   0.00000  Uiso   1.00
C155   C     0.95782   0.17171   0.38498   0.00000  Uiso   1.00
C156   C     0.70885   0.16162   0.11502   0.00000  Uiso   1.00
C157   C     0.96903   0.20251   0.45212   0.00000  Uiso   1.00
C158   C     0.69763   0.13084   0.04787   0.00000  Uiso   1.00
C159   C     0.98718   0.19203   0.40725   0.00000  Uiso   1.00
C160   C     0.67948   0.14132   0.09275   0.00000  Uiso   1.00
C161   C     0.91112   0.15997   0.40844   0.00000  Uiso   1.00
C162   C     0.75555   0.17336   0.09156   0.00000  Uiso   1.00
C163   C     0.89169   0.16966   0.45414   0.00000  Uiso   1.00
C164   C     0.77497   0.16369   0.04586   0.00000  Uiso   1.00
C165   C     0.92126   0.19221   0.47593   0.00000  Uiso   1.00
C166   C     0.74541   0.14113   0.02407   0.00000  Uiso   1.00
C167   C     0.84307   0.15941   0.47778   0.00000  Uiso   1.00
C168   C     0.82360   0.17393   0.02221   0.00000  Uiso   1.00
C169   C     0.85338   0.19813   0.04175   0.00000  Uiso   1.00
C170   C     0.81329   0.13521   0.45825   0.00000  Uiso   1.00
C171   C     0.90164   0.20619   0.01999   0.00000  Uiso   1.00
C172   C     0.76502   0.12716   0.48001   0.00000  Uiso   1.00
H173   H     0.77657   0.18828   0.11086   0.00000  Uiso   1.00
H174   H     0.89010   0.14505   0.38914   0.00000  Uiso   1.00
H175   H     0.97673   0.13152   0.11064   0.00000  Uiso   1.00
H176   H     0.68993   0.20183   0.38936   0.00000  Uiso   1.00
H177   H     0.99226   0.22030   0.46712   0.00000  Uiso   1.00
H178   H     0.67439   0.11306   0.03287   0.00000  Uiso   1.00
H179   H     0.84046   0.21165   0.07440   0.00000  Uiso   1.00
H180   H     0.82620   0.12169   0.42560   0.00000  Uiso   1.00
C181   C     0.95939   0.02225   0.27356   0.00000  Uiso   1.00
C182   C     0.70728   0.31108   0.22644   0.00000  Uiso   1.00
H183   H     0.92811   0.03948   0.29247   0.00000  Uiso   1.00
H184   H     0.73856   0.29386   0.20753   0.00000  Uiso   1.00
C185   C     0.95823   0.31285   0.27497   0.00000  Uiso   1.00
C186   C     0.70844   0.02048   0.22503   0.00000  Uiso   1.00
C187   C     0.99912   0.29050   0.25103   0.00000  Uiso   1.00
C188   C     0.66755   0.04284   0.24897   0.00000  Uiso   1.00
C189   C     0.85029   0.14217   0.27921   0.00000  Uiso   1.00
C190   C     0.81638   0.19117   0.22079   0.00000  Uiso   1.00
H191   H     0.86270   0.12252   0.30256   0.00000  Uiso   1.00
H192   H     0.80396   0.21081   0.19744   0.00000  Uiso   1.00
C193   C     0.80076   0.14204   0.27935   0.00000  Uiso   1.00
C194   C     0.86590   0.19129   0.22065   0.00000  Uiso   1.00
N195   N     0.78403   0.16668   0.24999   0.00000  Uiso   1.00
N196   N     0.88264   0.16666   0.25001   0.00000  Uiso   1.00
N197   N     0.92957   0.23014   0.04289   0.00000  Uiso   1.00
O198   O     0.91079   0.26308   0.06464   0.00000  Uiso   1.00
O199   O     0.97022   0.21567   0.04824   0.00000  Uiso   1.00
N200   N     0.73709   0.10320   0.45711   0.00000  Uiso   1.00
O201   O     0.69645   0.11768   0.45174   0.00000  Uiso   1.00
O202   O     0.75586   0.07024   0.43540   0.00000  Uiso   1.00
Cl203  Cl    0.90600   0.28900   0.30910   0.00000  Uiso   1.00
Cl204  Cl    0.76066   0.04434   0.19090   0.00000  Uiso   1.00
N205   N     0.76850   0.11593   0.31081   0.00000  Uiso   1.00
O206   O     0.76674   0.07699   0.30173   0.00000  Uiso   1.00
O207   O     0.75346   0.12759   0.35237   0.00000  Uiso   1.00
N208   N     0.89816   0.21739   0.18919   0.00000  Uiso   1.00
O209   O     0.89994   0.25634   0.19827   0.00000  Uiso   1.00
O210   O     0.91319   0.20574   0.14763   0.00000  Uiso   1.00
O211   O     0.03958   0.43989   0.25000   0.00000  Uiso   1.00
O212   O     0.29375   0.56011   0.25000   0.00000  Uiso   1.00
O213   O     0.29372   0.43988   0.25001   0.00000  Uiso   1.00
O214   O     0.03961   0.56012   0.25000   0.00000  Uiso   1.00
C215   C     0.00046   0.42078   0.24916   0.00000  Uiso   1.00
C216   C     0.33287   0.57922   0.25084   0.00000  Uiso   1.00
O217   O     0.01852   0.50001   0.31492   0.00000  Uiso   1.00
O218   O     0.31481   0.49999   0.18509   0.00000  Uiso   1.00
O219   O     0.27267   0.50000   0.31492   0.00000  Uiso   1.00
O220   O     0.06067   0.50000   0.18508   0.00000  Uiso   1.00
C221   C     0.30616   0.50056   0.33605   0.00000  Uiso   1.00
C222   C     0.02718   0.49944   0.16395   0.00000  Uiso   1.00
Cu223  Cu    0.04689   0.50001   0.25000   0.00000  Uiso   1.00
Cu224  Cu    0.28645   0.49999   0.25000   0.00000  Uiso   1.00
C225   C     0.29115   0.50505   0.38498   0.00000  Uiso   1.00
C226   C     0.04218   0.49496   0.11502   0.00000  Uiso   1.00
C227   C     0.30236   0.53585   0.45212   0.00000  Uiso   1.00
C228   C     0.03097   0.46417   0.04787   0.00000  Uiso   1.00
C229   C     0.32051   0.52536   0.40725   0.00000  Uiso   1.00
C230   C     0.01282   0.47465   0.09275   0.00000  Uiso   1.00
C231   C     0.24445   0.49331   0.40844   0.00000  Uiso   1.00
C232   C     0.08888   0.50670   0.09156   0.00000  Uiso   1.00
C233   C     0.22503   0.50299   0.45414   0.00000  Uiso   1.00
C234   C     0.10831   0.49702   0.04586   0.00000  Uiso   1.00
C235   C     0.25459   0.52555   0.47593   0.00000  Uiso   1.00
C236   C     0.07874   0.47447   0.02407   0.00000  Uiso   1.00
C237   C     0.17640   0.49275   0.47778   0.00000  Uiso   1.00
C238   C     0.15693   0.50726   0.02221   0.00000  Uiso   1.00
C239   C     0.18671   0.53146   0.04175   0.00000  Uiso   1.00
C240   C     0.14662   0.46855   0.45825   0.00000  Uiso   1.00
C241   C     0.23497   0.53952   0.01999   0.00000  Uiso   1.00
C242   C     0.09835   0.46049   0.48001   0.00000  Uiso   1.00
H243   H     0.10990   0.52161   0.11086   0.00000  Uiso   1.00
H244   H     0.22343   0.47838   0.38914   0.00000  Uiso   1.00
H245   H     0.31006   0.46485   0.11064   0.00000  Uiso   1.00
H246   H     0.02326   0.53517   0.38936   0.00000  Uiso   1.00
H247   H     0.32560   0.55363   0.46712   0.00000  Uiso   1.00
H248   H     0.00773   0.44639   0.03287   0.00000  Uiso   1.00
H249   H     0.17379   0.54498   0.07440   0.00000  Uiso   1.00
H250   H     0.15954   0.45503   0.42560   0.00000  Uiso   1.00
C251   C     0.29272   0.35558   0.27356   0.00000  Uiso   1.00
C252   C     0.04061   0.64442   0.22644   0.00000  Uiso   1.00
H253   H     0.26144   0.37281   0.29247   0.00000  Uiso   1.00
H254   H     0.07189   0.62719   0.20753   0.00000  Uiso   1.00
C255   C     0.29157   0.64619   0.27497   0.00000  Uiso   1.00
C256   C     0.04177   0.35381   0.22503   0.00000  Uiso   1.00
C257   C     0.33245   0.62383   0.25103   0.00000  Uiso   1.00
C258   C     0.00088   0.37617   0.24897   0.00000  Uiso   1.00
C259   C     0.18363   0.47550   0.27921   0.00000  Uiso   1.00
C260   C     0.14971   0.52450   0.22079   0.00000  Uiso   1.00
H261   H     0.19604   0.45585   0.30256   0.00000  Uiso   1.00
H262   H     0.13730   0.54415   0.19744   0.00000  Uiso   1.00
C263   C     0.13410   0.47537   0.27935   0.00000  Uiso   1.00
C264   C     0.19924   0.52463   0.22065   0.00000  Uiso   1.00
N265   N     0.11736   0.50001   0.24999   0.00000  Uiso   1.00
N266   N     0.21597   0.49999   0.25001   0.00000  Uiso   1.00
N267   N     0.26291   0.56348   0.04289   0.00000  Uiso   1.00
O268   O     0.24412   0.59641   0.06464   0.00000  Uiso   1.00
O269   O     0.30356   0.54900   0.04824   0.00000  Uiso   1.00
N270   N     0.07042   0.43654   0.45711   0.00000  Uiso   1.00
O271   O     0.02978   0.45102   0.45174   0.00000  Uiso   1.00
O272   O     0.08920   0.40357   0.43540   0.00000  Uiso   1.00
Cl273  Cl    0.23934   0.62233   0.30910   0.00000  Uiso   1.00
Cl274  Cl    0.09400   0.37767   0.19090   0.00000  Uiso   1.00
N275   N     0.10184   0.44927   0.31081   0.00000  Uiso   1.00
O276   O     0.10008   0.41032   0.30173   0.00000  Uiso   1.00
O277   O     0.08680   0.46093   0.35237   0.00000  Uiso   1.00
N278   N     0.23150   0.55073   0.18919   0.00000  Uiso   1.00
O279   O     0.23327   0.58967   0.19827   0.00000  Uiso   1.00
O280   O     0.24653   0.53907   0.14763   0.00000  Uiso   1.00
O281   O     0.37291   0.43989   0.25000   0.00000  Uiso   1.00
O282   O     0.62709   0.56011   0.25000   0.00000  Uiso   1.00
O283   O     0.62706   0.43988   0.25001   0.00000  Uiso   1.00
O284   O     0.37294   0.56012   0.25000   0.00000  Uiso   1.00
C285   C     0.33380   0.42078   0.24916   0.00000  Uiso   1.00
C286   C     0.66620   0.57922   0.25084   0.00000  Uiso   1.00
O287   O     0.35186   0.50001   0.31492   0.00000  Uiso   1.00
O288   O     0.64814   0.49999   0.18509   0.00000  Uiso   1.00
O289   O     0.60600   0.50000   0.31492   0.00000  Uiso   1.00
O290   O     0.39400   0.50000   0.18508   0.00000  Uiso   1.00
C291   C     0.63949   0.50056   0.33605   0.00000  Uiso   1.00
C292   C     0.36051   0.49944   0.16395   0.00000  Uiso   1.00
Cu293  Cu    0.38022   0.50001   0.25000   0.00000  Uiso   1.00
Cu294  Cu    0.61978   0.49999   0.25000   0.00000  Uiso   1.00
C295   C     0.62449   0.50505   0.38498   0.00000  Uiso   1.00
C296   C     0.37551   0.49496   0.11502   0.00000  Uiso   1.00
C297   C     0.63569   0.53585   0.45212   0.00000  Uiso   1.00
C298   C     0.36430   0.46417   0.04787   0.00000  Uiso   1.00
C299   C     0.65385   0.52536   0.40725   0.00000  Uiso   1.00
C300   C     0.34615   0.47465   0.09275   0.00000  Uiso   1.00
C301   C     0.57779   0.49331   0.40844   0.00000  Uiso   1.00
C302   C     0.42222   0.50670   0.09156   0.00000  Uiso   1.00
C303   C     0.55836   0.50299   0.45414   0.00000  Uiso   1.00
C304   C     0.44164   0.49702   0.04586   0.00000  Uiso   1.00
C305   C     0.58792   0.52555   0.47593   0.00000  Uiso   1.00
C306   C     0.41207   0.47447   0.02407   0.00000  Uiso   1.00
C307   C     0.50973   0.49275   0.47778   0.00000  Uiso   1.00
C308   C     0.49026   0.50726   0.02221   0.00000  Uiso   1.00
C309   C     0.52004   0.53146   0.04175   0.00000  Uiso   1.00
C310   C     0.47995   0.46855   0.45825   0.00000  Uiso   1.00
C311   C     0.56831   0.53952   0.01999   0.00000  Uiso   1.00
C312   C     0.43169   0.46049   0.48001   0.00000  Uiso   1.00
H313   H     0.44324   0.52161   0.11086   0.00000  Uiso   1.00
H314   H     0.55677   0.47838   0.38914   0.00000  Uiso   1.00
H315   H     0.64340   0.46485   0.11064   0.00000  Uiso   1.00
H316   H     0.35660   0.53517   0.38936   0.00000  Uiso   1.00
H317   H     0.65893   0.55363   0.46712   0.00000  Uiso   1.00
H318   H     0.34106   0.44639   0.03287   0.00000  Uiso   1.00
H319   H     0.50712   0.54498   0.07440   0.00000  Uiso   1.00
H320   H     0.49287   0.45503   0.42560   0.00000  Uiso   1.00
C321   C     0.62606   0.35558   0.27356   0.00000  Uiso   1.00
C322   C     0.37394   0.64442   0.22644   0.00000  Uiso   1.00
H323   H     0.59478   0.37281   0.29247   0.00000  Uiso   1.00
H324   H     0.40522   0.62719   0.20753   0.00000  Uiso   1.00
C325   C     0.62490   0.64619   0.27497   0.00000  Uiso   1.00
C326   C     0.37510   0.35381   0.22503   0.00000  Uiso   1.00
C327   C     0.66578   0.62383   0.25103   0.00000  Uiso   1.00
C328   C     0.33422   0.37617   0.24897   0.00000  Uiso   1.00
C329   C     0.51696   0.47550   0.27921   0.00000  Uiso   1.00
C330   C     0.48304   0.52450   0.22079   0.00000  Uiso   1.00
H331   H     0.52937   0.45585   0.30256   0.00000  Uiso   1.00
H332   H     0.47063   0.54415   0.19744   0.00000  Uiso   1.00
C333   C     0.46743   0.47537   0.27935   0.00000  Uiso   1.00
C334   C     0.53257   0.52463   0.22065   0.00000  Uiso   1.00
N335   N     0.45069   0.50001   0.24999   0.00000  Uiso   1.00
N336   N     0.54931   0.49999   0.25001   0.00000  Uiso   1.00
N337   N     0.59624   0.56348   0.04289   0.00000  Uiso   1.00
O338   O     0.57745   0.59641   0.06464   0.00000  Uiso   1.00
O339   O     0.63689   0.54900   0.04824   0.00000  Uiso   1.00
N340   N     0.40376   0.43654   0.45711   0.00000  Uiso   1.00
O341   O     0.36312   0.45102   0.45174   0.00000  Uiso   1.00
O342   O     0.42253   0.40357   0.43540   0.00000  Uiso   1.00
Cl343  Cl    0.57267   0.62233   0.30910   0.00000  Uiso   1.00
Cl344  Cl    0.42733   0.37767   0.19090   0.00000  Uiso   1.00
N345   N     0.43517   0.44927   0.31081   0.00000  Uiso   1.00
O346   O     0.43341   0.41032   0.30173   0.00000  Uiso   1.00
O347   O     0.42013   0.46093   0.35237   0.00000  Uiso   1.00
N348   N     0.56483   0.55073   0.18919   0.00000  Uiso   1.00
O349   O     0.56661   0.58967   0.19827   0.00000  Uiso   1.00
O350   O     0.57986   0.53907   0.14763   0.00000  Uiso   1.00
O351   O     0.70625   0.43989   0.25000   0.00000  Uiso   1.00
O352   O     0.96042   0.56011   0.25000   0.00000  Uiso   1.00
O353   O     0.96039   0.43988   0.25001   0.00000  Uiso   1.00
O354   O     0.70628   0.56012   0.25000   0.00000  Uiso   1.00
C355   C     0.66713   0.42078   0.24916   0.00000  Uiso   1.00
C356   C     0.99954   0.57922   0.25084   0.00000  Uiso   1.00
O357   O     0.68519   0.50001   0.31492   0.00000  Uiso   1.00
O358   O     0.98148   0.49999   0.18509   0.00000  Uiso   1.00
O359   O     0.93933   0.50000   0.31492   0.00000  Uiso   1.00
O360   O     0.72733   0.50000   0.18508   0.00000  Uiso   1.00
C361   C     0.97282   0.50056   0.33605   0.00000  Uiso   1.00
C362   C     0.69384   0.49944   0.16395   0.00000  Uiso   1.00
Cu363  Cu    0.71355   0.50001   0.25000   0.00000  Uiso   1.00
Cu364  Cu    0.95311   0.49999   0.25000   0.00000  Uiso   1.00
C365   C     0.95782   0.50505   0.38498   0.00000  Uiso   1.00
C366   C     0.70885   0.49496   0.11502   0.00000  Uiso   1.00
C367   C     0.96903   0.53585   0.45212   0.00000  Uiso   1.00
C368   C     0.69763   0.46417   0.04787   0.00000  Uiso   1.00
C369   C     0.98718   0.52536   0.40725   0.00000  Uiso   1.00
C370   C     0.67948   0.47465   0.09275   0.00000  Uiso   1.00
C371   C     0.91112   0.49331   0.40844   0.00000  Uiso   1.00
C372   C     0.75555   0.50670   0.09156   0.00000  Uiso   1.00
C373   C     0.89169   0.50299   0.45414   0.00000  Uiso   1.00
C374   C     0.77497   0.49702   0.04586   0.00000  Uiso   1.00
C375   C     0.92126   0.52555   0.47593   0.00000  Uiso   1.00
C376   C     0.74541   0.47447   0.02407   0.00000  Uiso   1.00
C377   C     0.84307   0.49275   0.47778   0.00000  Uiso   1.00
C378   C     0.82360   0.50726   0.02221   0.00000  Uiso   1.00
C379   C     0.85338   0.53146   0.04175   0.00000  Uiso   1.00
C380   C     0.81329   0.46855   0.45825   0.00000  Uiso   1.00
C381   C     0.90164   0.53952   0.01999   0.00000  Uiso   1.00
C382   C     0.76502   0.46049   0.48001   0.00000  Uiso   1.00
H383   H     0.77657   0.52161   0.11086   0.00000  Uiso   1.00
H384   H     0.89010   0.47838   0.38914   0.00000  Uiso   1.00
H385   H     0.97673   0.46485   0.11064   0.00000  Uiso   1.00
H386   H     0.68993   0.53517   0.38936   0.00000  Uiso   1.00
H387   H     0.99226   0.55363   0.46712   0.00000  Uiso   1.00
H388   H     0.67439   0.44639   0.03287   0.00000  Uiso   1.00
H389   H     0.84046   0.54498   0.07440   0.00000  Uiso   1.00
H390   H     0.82620   0.45503   0.42560   0.00000  Uiso   1.00
C391   C     0.95939   0.35558   0.27356   0.00000  Uiso   1.00
C392   C     0.70728   0.64442   0.22644   0.00000  Uiso   1.00
H393   H     0.92811   0.37281   0.29247   0.00000  Uiso   1.00
H394   H     0.73856   0.62719   0.20753   0.00000  Uiso   1.00
C395   C     0.95823   0.64619   0.27497   0.00000  Uiso   1.00
C396   C     0.70844   0.35381   0.22503   0.00000  Uiso   1.00
C397   C     0.99912   0.62383   0.25103   0.00000  Uiso   1.00
C398   C     0.66755   0.37617   0.24897   0.00000  Uiso   1.00
C399   C     0.85029   0.47550   0.27921   0.00000  Uiso   1.00
C400   C     0.81638   0.52450   0.22079   0.00000  Uiso   1.00
H401   H     0.86270   0.45585   0.30256   0.00000  Uiso   1.00
H402   H     0.80396   0.54415   0.19744   0.00000  Uiso   1.00
C403   C     0.80076   0.47537   0.27935   0.00000  Uiso   1.00
C404   C     0.86590   0.52463   0.22065   0.00000  Uiso   1.00
N405   N     0.78403   0.50001   0.24999   0.00000  Uiso   1.00
N406   N     0.88264   0.49999   0.25001   0.00000  Uiso   1.00
N407   N     0.92957   0.56348   0.04289   0.00000  Uiso   1.00
O408   O     0.91079   0.59641   0.06464   0.00000  Uiso   1.00
O409   O     0.97022   0.54900   0.04824   0.00000  Uiso   1.00
N410   N     0.73709   0.43654   0.45711   0.00000  Uiso   1.00
O411   O     0.69645   0.45102   0.45174   0.00000  Uiso   1.00
O412   O     0.75586   0.40357   0.43540   0.00000  Uiso   1.00
Cl413  Cl    0.90600   0.62233   0.30910   0.00000  Uiso   1.00
Cl414  Cl    0.76066   0.37767   0.19090   0.00000  Uiso   1.00
N415   N     0.76850   0.44927   0.31081   0.00000  Uiso   1.00
O416   O     0.76674   0.41032   0.30173   0.00000  Uiso   1.00
O417   O     0.75346   0.46093   0.35237   0.00000  Uiso   1.00
N418   N     0.89816   0.55073   0.18919   0.00000  Uiso   1.00
O419   O     0.89994   0.58967   0.19827   0.00000  Uiso   1.00
O420   O     0.91319   0.53907   0.14763   0.00000  Uiso   1.00
O421   O     0.03958   0.77322   0.25000   0.00000  Uiso   1.00
O422   O     0.29375   0.89345   0.25000   0.00000  Uiso   1.00
O423   O     0.29372   0.77321   0.25001   0.00000  Uiso   1.00
O424   O     0.03961   0.89346   0.25000   0.00000  Uiso   1.00
C425   C     0.00046   0.75412   0.24916   0.00000  Uiso   1.00
C426   C     0.33287   0.91255   0.25084   0.00000  Uiso   1.00
O427   O     0.01852   0.83334   0.31492   0.00000  Uiso   1.00
O428   O     0.31481   0.83332   0.18509   0.00000  Uiso   1.00
O429   O     0.27267   0.83333   0.31492   0.00000  Uiso   1.00
O430   O     0.06067   0.83333   0.18508   0.00000  Uiso   1.00
C431   C     0.30616   0.83390   0.33605   0.00000  Uiso   1.00
C432   C     0.02718   0.83277   0.16395   0.00000  Uiso   1.00
Cu433  Cu    0.04689   0.83334   0.25000   0.00000  Uiso   1.00
Cu434  Cu    0.28645   0.83333   0.25000   0.00000  Uiso   1.00
C435   C     0.29115   0.83838   0.38498   0.00000  Uiso   1.00
C436   C     0.04218   0.82829   0.11502   0.00000  Uiso   1.00
C437   C     0.30236   0.86918   0.45212   0.00000  Uiso   1.00
C438   C     0.03097   0.79750   0.04787   0.00000  Uiso   1.00
C439   C     0.32051   0.85869   0.40725   0.00000  Uiso   1.00
C440   C     0.01282   0.80799   0.09275   0.00000  Uiso   1.00
C441   C     0.24445   0.82664   0.40844   0.00000  Uiso   1.00
C442   C     0.08888   0.84003   0.09156   0.00000  Uiso   1.00
C443   C     0.22503   0.83632   0.45414   0.00000  Uiso   1.00
C444   C     0.10831   0.83035   0.04586   0.00000  Uiso   1.00
C445   C     0.25459   0.85888   0.47593   0.00000  Uiso   1.00
C446   C     0.07874   0.80780   0.02407   0.00000  Uiso   1.00
C447   C     0.17640   0.82608   0.47778   0.00000  Uiso   1.00
C448   C     0.15693   0.84059   0.02221   0.00000  Uiso   1.00
C449   C     0.18671   0.86480   0.04175   0.00000  Uiso   1.00
C450   C     0.14662   0.80188   0.45825   0.00000  Uiso   1.00
C451   C     0.23497   0.87285   0.01999   0.00000  Uiso   1.00
C452   C     0.09835   0.79383   0.48001   0.00000  Uiso   1.00
H453   H     0.10990   0.85494   0.11086   0.00000  Uiso   1.00
H454   H     0.22343   0.81172   0.38914   0.00000  Uiso   1.00
H455   H     0.31006   0.79818   0.11064   0.00000  Uiso   1.00
H456   H     0.02326   0.86850   0.38936   0.00000  Uiso   1.00
H457   H     0.32560   0.88696   0.46712   0.00000  Uiso   1.00
H458   H     0.00773   0.77973   0.03287   0.00000  Uiso   1.00
H459   H     0.17379   0.87832   0.07440   0.00000  Uiso   1.00
H460   H     0.15954   0.78836   0.42560   0.00000  Uiso   1.00
C461   C     0.29272   0.68892   0.27356   0.00000  Uiso   1.00
C462   C     0.04061   0.97775   0.22644   0.00000  Uiso   1.00
H463   H     0.26144   0.70614   0.29247   0.00000  Uiso   1.00
H464   H     0.07189   0.96052   0.20753   0.00000  Uiso   1.00
C465   C     0.29157   0.97952   0.27497   0.00000  Uiso   1.00
C466   C     0.04177   0.68715   0.22503   0.00000  Uiso   1.00
C467   C     0.33245   0.95716   0.25103   0.00000  Uiso   1.00
C468   C     0.00088   0.70950   0.24897   0.00000  Uiso   1.00
C469   C     0.18363   0.80883   0.27921   0.00000  Uiso   1.00
C470   C     0.14971   0.85783   0.22079   0.00000  Uiso   1.00
H471   H     0.19604   0.78919   0.30256   0.00000  Uiso   1.00
H472   H     0.13730   0.87748   0.19744   0.00000  Uiso   1.00
C473   C     0.13410   0.80871   0.27935   0.00000  Uiso   1.00
C474   C     0.19924   0.85796   0.22065   0.00000  Uiso   1.00
N475   N     0.11736   0.83334   0.24999   0.00000  Uiso   1.00
N476   N     0.21597   0.83332   0.25001   0.00000  Uiso   1.00
N477   N     0.26291   0.89681   0.04289   0.00000  Uiso   1.00
O478   O     0.24412   0.92975   0.06464   0.00000  Uiso   1.00
O479   O     0.30356   0.88233   0.04824   0.00000  Uiso   1.00
N480   N     0.07042   0.76987   0.45711   0.00000  Uiso   1.00
O481   O     0.02978   0.78435   0.45174   0.00000  Uiso   1.00
O482   O     0.08920   0.73691   0.43540   0.00000  Uiso   1.00
Cl483  Cl    0.23934   0.95566   0.30910   0.00000  Uiso   1.00
Cl484  Cl    0.09400   0.71100   0.19090   0.00000  Uiso   1.00
N485   N     0.10184   0.78260   0.31081   0.00000  Uiso   1.00
O486   O     0.10008   0.74365   0.30173   0.00000  Uiso   1.00
O487   O     0.08680   0.79426   0.35237   0.00000  Uiso   1.00
N488   N     0.23150   0.88406   0.18919   0.00000  Uiso   1.00
O489   O     0.23327   0.92301   0.19827   0.00000  Uiso   1.00
O490   O     0.24653   0.87240   0.14763   0.00000  Uiso   1.00
O491   O     0.37291   0.77322   0.25000   0.00000  Uiso   1.00
O492   O     0.62709   0.89345   0.25000   0.00000  Uiso   1.00
O493   O     0.62706   0.77321   0.25001   0.00000  Uiso   1.00
O494   O     0.37294   0.89346   0.25000   0.00000  Uiso   1.00
C495   C     0.33380   0.75412   0.24916   0.00000  Uiso   1.00
C496   C     0.66620   0.91255   0.25084   0.00000  Uiso   1.00
O497   O     0.35186   0.83334   0.31492   0.00000  Uiso   1.00
O498   O     0.64814   0.83332   0.18509   0.00000  Uiso   1.00
O499   O     0.60600   0.83333   0.31492   0.00000  Uiso   1.00
O500   O     0.39400   0.83333   0.18508   0.00000  Uiso   1.00
C501   C     0.63949   0.83390   0.33605   0.00000  Uiso   1.00
C502   C     0.36051   0.83277   0.16395   0.00000  Uiso   1.00
Cu503  Cu    0.38022   0.83334   0.25000   0.00000  Uiso   1.00
Cu504  Cu    0.61978   0.83333   0.25000   0.00000  Uiso   1.00
C505   C     0.62449   0.83838   0.38498   0.00000  Uiso   1.00
C506   C     0.37551   0.82829   0.11502   0.00000  Uiso   1.00
C507   C     0.63569   0.86918   0.45212   0.00000  Uiso   1.00
C508   C     0.36430   0.79750   0.04787   0.00000  Uiso   1.00
C509   C     0.65385   0.85869   0.40725   0.00000  Uiso   1.00
C510   C     0.34615   0.80799   0.09275   0.00000  Uiso   1.00
C511   C     0.57779   0.82664   0.40844   0.00000  Uiso   1.00
C512   C     0.42222   0.84003   0.09156   0.00000  Uiso   1.00
C513   C     0.55836   0.83632   0.45414   0.00000  Uiso   1.00
C514   C     0.44164   0.83035   0.04586   0.00000  Uiso   1.00
C515   C     0.58792   0.85888   0.47593   0.00000  Uiso   1.00
C516   C     0.41207   0.80780   0.02407   0.00000  Uiso   1.00
C517   C     0.50973   0.82608   0.47778   0.00000  Uiso   1.00
C518   C     0.49026   0.84059   0.02221   0.00000  Uiso   1.00
C519   C     0.52004   0.86480   0.04175   0.00000  Uiso   1.00
C520   C     0.47995   0.80188   0.45825   0.00000  Uiso   1.00
C521   C     0.56831   0.87285   0.01999   0.00000  Uiso   1.00
C522   C     0.43169   0.79383   0.48001   0.00000  Uiso   1.00
H523   H     0.44324   0.85494   0.11086   0.00000  Uiso   1.00
H524   H     0.55677   0.81172   0.38914   0.00000  Uiso   1.00
H525   H     0.64340   0.79818   0.11064   0.00000  Uiso   1.00
H526   H     0.35660   0.86850   0.38936   0.00000  Uiso   1.00
H527   H     0.65893   0.88696   0.46712   0.00000  Uiso   1.00
H528   H     0.34106   0.77973   0.03287   0.00000  Uiso   1.00
H529   H     0.50712   0.87832   0.07440   0.00000  Uiso   1.00
H530   H     0.49287   0.78836   0.42560   0.00000  Uiso   1.00
C531   C     0.62606   0.68892   0.27356   0.00000  Uiso   1.00
C532   C     0.37394   0.97775   0.22644   0.00000  Uiso   1.00
H533   H     0.59478   0.70614   0.29247   0.00000  Uiso   1.00
H534   H     0.40522   0.96052   0.20753   0.00000  Uiso   1.00
C535   C     0.62490   0.97952   0.27497   0.00000  Uiso   1.00
C536   C     0.37510   0.68715   0.22503   0.00000  Uiso   1.00
C537   C     0.66578   0.95716   0.25103   0.00000  Uiso   1.00
C538   C     0.33422   0.70950   0.24897   0.00000  Uiso   1.00
C539   C     0.51696   0.80883   0.27921   0.00000  Uiso   1.00
C540   C     0.48304   0.85783   0.22079   0.00000  Uiso   1.00
H541   H     0.52937   0.78919   0.30256   0.00000  Uiso   1.00
H542   H     0.47063   0.87748   0.19744   0.00000  Uiso   1.00
C543   C     0.46743   0.80871   0.27935   0.00000  Uiso   1.00
C544   C     0.53257   0.85796   0.22065   0.00000  Uiso   1.00
N545   N     0.45069   0.83334   0.24999   0.00000  Uiso   1.00
N546   N     0.54931   0.83332   0.25001   0.00000  Uiso   1.00
N547   N     0.59624   0.89681   0.04289   0.00000  Uiso   1.00
O548   O     0.57745   0.92975   0.06464   0.00000  Uiso   1.00
O549   O     0.63689   0.88233   0.04824   0.00000  Uiso   1.00
N550   N     0.40376   0.76987   0.45711   0.00000  Uiso   1.00
O551   O     0.36312   0.78435   0.45174   0.00000  Uiso   1.00
O552   O     0.42253   0.73691   0.43540   0.00000  Uiso   1.00
Cl553  Cl    0.57267   0.95566   0.30910   0.00000  Uiso   1.00
Cl554  Cl    0.42733   0.71100   0.19090   0.00000  Uiso   1.00
N555   N     0.43517   0.78260   0.31081   0.00000  Uiso   1.00
O556   O     0.43341   0.74365   0.30173   0.00000  Uiso   1.00
O557   O     0.42013   0.79426   0.35237   0.00000  Uiso   1.00
N558   N     0.56483   0.88406   0.18919   0.00000  Uiso   1.00
O559   O     0.56661   0.92301   0.19827   0.00000  Uiso   1.00
O560   O     0.57986   0.87240   0.14763   0.00000  Uiso   1.00
O561   O     0.70625   0.77322   0.25000   0.00000  Uiso   1.00
O562   O     0.96042   0.89345   0.25000   0.00000  Uiso   1.00
O563   O     0.96039   0.77321   0.25001   0.00000  Uiso   1.00
O564   O     0.70628   0.89346   0.25000   0.00000  Uiso   1.00
C565   C     0.66713   0.75412   0.24916   0.00000  Uiso   1.00
C566   C     0.99954   0.91255   0.25084   0.00000  Uiso   1.00
O567   O     0.68519   0.83334   0.31492   0.00000  Uiso   1.00
O568   O     0.98148   0.83332   0.18509   0.00000  Uiso   1.00
O569   O     0.93933   0.83333   0.31492   0.00000  Uiso   1.00
O570   O     0.72733   0.83333   0.18508   0.00000  Uiso   1.00
C571   C     0.97282   0.83390   0.33605   0.00000  Uiso   1.00
C572   C     0.69384   0.83277   0.16395   0.00000  Uiso   1.00
Cu573  Cu    0.71355   0.83334   0.25000   0.00000  Uiso   1.00
Cu574  Cu    0.95311   0.83333   0.25000   0.00000  Uiso   1.00
C575   C     0.95782   0.83838   0.38498   0.00000  Uiso   1.00
C576   C     0.70885   0.82829   0.11502   0.00000  Uiso   1.00
C577   C     0.96903   0.86918   0.45212   0.00000  Uiso   1.00
C578   C     0.69763   0.79750   0.04787   0.00000  Uiso   1.00
C579   C     0.98718   0.85869   0.40725   0.00000  Uiso   1.00
C580   C     0.67948   0.80799   0.09275   0.00000  Uiso   1.00
C581   C     0.91112   0.82664   0.40844   0.00000  Uiso   1.00
C582   C     0.75555   0.84003   0.09156   0.00000  Uiso   1.00
C583   C     0.89169   0.83632   0.45414   0.00000  Uiso   1.00
C584   C     0.77497   0.83035   0.04586   0.00000  Uiso   1.00
C585   C     0.92126   0.85888   0.47593   0.00000  Uiso   1.00
C586   C     0.74541   0.80780   0.02407   0.00000  Uiso   1.00
C587   C     0.84307   0.82608   0.47778   0.00000  Uiso   1.00
C588   C     0.82360   0.84059   0.02221   0.00000  Uiso   1.00
C589   C     0.85338   0.86480   0.04175   0.00000  Uiso   1.00
C590   C     0.81329   0.80188   0.45825   0.00000  Uiso   1.00
C591   C     0.90164   0.87285   0.01999   0.00000  Uiso   1.00
C592   C     0.76502   0.79383   0.48001   0.00000  Uiso   1.00
H593   H     0.77657   0.85494   0.11086   0.00000  Uiso   1.00
H594   H     0.89010   0.81172   0.38914   0.00000  Uiso   1.00
H595   H     0.97673   0.79818   0.11064   0.00000  Uiso   1.00
H596   H     0.68993   0.86850   0.38936   0.00000  Uiso   1.00
H597   H     0.99226   0.88696   0.46712   0.00000  Uiso   1.00
H598   H     0.67439   0.77973   0.03287   0.00000  Uiso   1.00
H599   H     0.84046   0.87832   0.07440   0.00000  Uiso   1.00
H600   H     0.82620   0.78836   0.42560   0.00000  Uiso   1.00
C601   C     0.95939   0.68892   0.27356   0.00000  Uiso   1.00
C602   C     0.70728   0.97775   0.22644   0.00000  Uiso   1.00
H603   H     0.92811   0.70614   0.29247   0.00000  Uiso   1.00
H604   H     0.73856   0.96052   0.20753   0.00000  Uiso   1.00
C605   C     0.95823   0.97952   0.27497   0.00000  Uiso   1.00
C606   C     0.70844   0.68715   0.22503   0.00000  Uiso   1.00
C607   C     0.99912   0.95716   0.25103   0.00000  Uiso   1.00
C608   C     0.66755   0.70950   0.24897   0.00000  Uiso   1.00
C609   C     0.85029   0.80883   0.27921   0.00000  Uiso   1.00
C610   C     0.81638   0.85783   0.22079   0.00000  Uiso   1.00
H611   H     0.86270   0.78919   0.30256   0.00000  Uiso   1.00
H612   H     0.80396   0.87748   0.19744   0.00000  Uiso   1.00
C613   C     0.80076   0.80871   0.27935   0.00000  Uiso   1.00
C614   C     0.86590   0.85796   0.22065   0.00000  Uiso   1.00
N615   N     0.78403   0.83334   0.24999   0.00000  Uiso   1.00
N616   N     0.88264   0.83332   0.25001   0.00000  Uiso   1.00
N617   N     0.92957   0.89681   0.04289   0.00000  Uiso   1.00
O618   O     0.91079   0.92975   0.06464   0.00000  Uiso   1.00
O619   O     0.97022   0.88233   0.04824   0.00000  Uiso   1.00
N620   N     0.73709   0.76987   0.45711   0.00000  Uiso   1.00
O621   O     0.69645   0.78435   0.45174   0.00000  Uiso   1.00
O622   O     0.75586   0.73691   0.43540   0.00000  Uiso   1.00
Cl623  Cl    0.90600   0.95566   0.30910   0.00000  Uiso   1.00
Cl624  Cl    0.76066   0.71100   0.19090   0.00000  Uiso   1.00
N625   N     0.76850   0.78260   0.31081   0.00000  Uiso   1.00
O626   O     0.76674   0.74365   0.30173   0.00000  Uiso   1.00
O627   O     0.75346   0.79426   0.35237   0.00000  Uiso   1.00
N628   N     0.89816   0.88406   0.18919   0.00000  Uiso   1.00
O629   O     0.89994   0.92301   0.19827   0.00000  Uiso   1.00
O630   O     0.91319   0.87240   0.14763   0.00000  Uiso   1.00
O631   O     0.03958   0.10655   0.75000   0.00000  Uiso   1.00
O632   O     0.29375   0.22678   0.75000   0.00000  Uiso   1.00
O633   O     0.29372   0.10654   0.75001   0.00000  Uiso   1.00
O634   O     0.03961   0.22679   0.75000   0.00000  Uiso   1.00
C635   C     0.00046   0.08745   0.74916   0.00000  Uiso   1.00
C636   C     0.33287   0.24588   0.75084   0.00000  Uiso   1.00
O637   O     0.01852   0.16668   0.81492   0.00000  Uiso   1.00
O638   O     0.31481   0.16666   0.68509   0.00000  Uiso   1.00
O639   O     0.27267   0.16667   0.81492   0.00000  Uiso   1.00
O640   O     0.06067   0.16667   0.68508   0.00000  Uiso   1.00
C641   C     0.30616   0.16723   0.83605   0.00000  Uiso   1.00
C642   C     0.02718   0.16610   0.66395   0.00000  Uiso   1.00
Cu643  Cu    0.04689   0.16667   0.75000   0.00000  Uiso   1.00
Cu644  Cu    0.28645   0.16666   0.75000   0.00000  Uiso   1.00
C645   C     0.29115   0.17171   0.88498   0.00000  Uiso   1.00
C646   C     0.04218   0.16162   0.61502   0.00000  Uiso   1.00
C647   C     0.30236   0.20251   0.95212   0.00000  Uiso   1.00
C648   C     0.03097   0.13084   0.54787   0.00000  Uiso   1.00
C649   C     0.32051   0.19203   0.90725   0.00000  Uiso   1.00
C650   C     0.01282   0.14132   0.59275   0.00000  Uiso   1.00
C651   C     0.24445   0.15997   0.90844   0.00000  Uiso   1.00
C652   C     0.08888   0.17336   0.59156   0.00000  Uiso   1.00
C653   C     0.22503   0.16966   0.95414   0.00000  Uiso   1.00
C654   C     0.10831   0.16369   0.54586   0.00000  Uiso   1.00
C655   C     0.25459   0.19221   0.97593   0.00000  Uiso   1.00
C656   C     0.07874   0.14113   0.52407   0.00000  Uiso   1.00
C657   C     0.17640   0.15941   0.97778   0.00000  Uiso   1.00
C658   C     0.15693   0.17393   0.52221   0.00000  Uiso   1.00
C659   C     0.18671   0.19813   0.54175   0.00000  Uiso   1.00
C660   C     0.14662   0.13521   0.95825   0.00000  Uiso   1.00
C661   C     0.23497   0.20619   0.51999   0.00000  Uiso   1.00
C662   C     0.09835   0.12716   0.98001   0.00000  Uiso   1.00
H663   H     0.10990   0.18828   0.61086   0.00000  Uiso   1.00
H664   H     0.22343   0.14505   0.88914   0.00000  Uiso   1.00
H665   H     0.31006   0.13152   0.61064   0.00000  Uiso   1.00
H666   H     0.02326   0.20183   0.88936   0.00000  Uiso   1.00
H667   H     0.32560   0.22030   0.96712   0.00000  Uiso   1.00
H668   H     0.00773   0.11306   0.53287   0.00000  Uiso   1.00
H669   H     0.17379   0.21165   0.57440   0.00000  Uiso   1.00
H670   H     0.15954   0.12169   0.92560   0.00000  Uiso   1.00
C671   C     0.29272   0.02225   0.77356   0.00000  Uiso   1.00
C672   C     0.04061   0.31108   0.72644   0.00000  Uiso   1.00
H673   H     0.26144   0.03948   0.79247   0.00000  Uiso   1.00
H674   H     0.07189   0.29386   0.70753   0.00000  Uiso   1.00
C675   C     0.29157   0.31285   0.77497   0.00000  Uiso   1.00
C676   C     0.04177   0.02048   0.72503   0.00000  Uiso   1.00
C677   C     0.33245   0.29050   0.75103   0.00000  Uiso   1.00
C678   C     0.00088   0.04284   0.74897   0.00000  Uiso   1.00
C679   C     0.18363   0.14217   0.77921   0.00000  Uiso   1.00
C680   C     0.14971   0.19117   0.72079   0.00000  Uiso   1.00
H681   H     0.19604   0.12252   0.80256   0.00000  Uiso   1.00
H682   H     0.13730   0.21081   0.69744   0.00000  Uiso   1.00
C683   C     0.13410   0.14204   0.77935   0.00000  Uiso   1.00
C684   C     0.19924   0.19129   0.72065   0.00000  Uiso   1.00
N685   N     0.11736   0.16668   0.74999   0.00000  Uiso   1.00
N686   N     0.21597   0.16666   0.75001   0.00000  Uiso   1.00
N687   N     0.26291   0.23014   0.54289   0.00000  Uiso   1.00
O688   O     0.24412   0.26308   0.56464   0.00000  Uiso   1.00
O689   O     0.30356   0.21567   0.54824   0.00000  Uiso   1.00
N690   N     0.07042   0.10320   0.95711   0.00000  Uiso   1.00
O691   O     0.02978   0.11768   0.95174   0.00000  Uiso   1.00
O692   O     0.08920   0.07024   0.93540   0.00000  Uiso   1.00
Cl693  Cl    0.23934   0.28900   0.80910   0.00000  Uiso   1.00
Cl694  Cl    0.09400   0.04434   0.69090   0.00000  Uiso   1.00
N695   N     0.10184   0.11593   0.81081   0.00000  Uiso   1.00
O696   O     0.10008   0.07699   0.80173   0.00000  Uiso   1.00
O697   O     0.08680   0.12759   0.85237   0.00000  Uiso   1.00
N698   N     0.23150   0.21739   0.68919   0.00000  Uiso   1.00
O699   O     0.23327   0.25634   0.69827   0.00000  Uiso   1.00
O700   O     0.24653   0.20574   0.64763   0.00000  Uiso   1.00
O701   O     0.37291   0.10655   0.75000   0.00000  Uiso   1.00
O702   O     0.62709   0.22678   0.75000   0.00000  Uiso   1.00
O703   O     0.62706   0.10654   0.75001   0.00000  Uiso   1.00
O704   O     0.37294   0.22679   0.75000   0.00000  Uiso   1.00
C705   C     0.33380   0.08745   0.74916   0.00000  Uiso   1.00
C706   C     0.66620   0.24588   0.75084   0.00000  Uiso   1.00
O707   O     0.35186   0.16668   0.81492   0.00000  Uiso   1.00
O708   O     0.64814   0.16666   0.68509   0.00000  Uiso   1.00
O709   O     0.60600   0.16667   0.81492   0.00000  Uiso   1.00
O710   O     0.39400   0.16667   0.68508   0.00000  Uiso   1.00
C711   C     0.63949   0.16723   0.83605   0.00000  Uiso   1.00
C712   C     0.36051   0.16610   0.66395   0.00000  Uiso   1.00
Cu713  Cu    0.38022   0.16667   0.75000   0.00000  Uiso   1.00
Cu714  Cu    0.61978   0.16666   0.75000   0.00000  Uiso   1.00
C715   C     0.62449   0.17171   0.88498   0.00000  Uiso   1.00
C716   C     0.37551   0.16162   0.61502   0.00000  Uiso   1.00
C717   C     0.63569   0.20251   0.95212   0.00000  Uiso   1.00
C718   C     0.36430   0.13084   0.54787   0.00000  Uiso   1.00
C719   C     0.65385   0.19203   0.90725   0.00000  Uiso   1.00
C720   C     0.34615   0.14132   0.59275   0.00000  Uiso   1.00
C721   C     0.57779   0.15997   0.90844   0.00000  Uiso   1.00
C722   C     0.42222   0.17336   0.59156   0.00000  Uiso   1.00
C723   C     0.55836   0.16966   0.95414   0.00000  Uiso   1.00
C724   C     0.44164   0.16369   0.54586   0.00000  Uiso   1.00
C725   C     0.58792   0.19221   0.97593   0.00000  Uiso   1.00
C726   C     0.41207   0.14113   0.52407   0.00000  Uiso   1.00
C727   C     0.50973   0.15941   0.97778   0.00000  Uiso   1.00
C728   C     0.49026   0.17393   0.52221   0.00000  Uiso   1.00
C729   C     0.52004   0.19813   0.54175   0.00000  Uiso   1.00
C730   C     0.47995   0.13521   0.95825   0.00000  Uiso   1.00
C731   C     0.56831   0.20619   0.51999   0.00000  Uiso   1.00
C732   C     0.43169   0.12716   0.98001   0.00000  Uiso   1.00
H733   H     0.44324   0.18828   0.61086   0.00000  Uiso   1.00
H734   H     0.55677   0.14505   0.88914   0.00000  Uiso   1.00
H735   H     0.64340   0.13152   0.61064   0.00000  Uiso   1.00
H736   H     0.35660   0.20183   0.88936   0.00000  Uiso   1.00
H737   H     0.65893   0.22030   0.96712   0.00000  Uiso   1.00
H738   H     0.34106   0.11306   0.53287   0.00000  Uiso   1.00
H739   H     0.50712   0.21165   0.57440   0.00000  Uiso   1.00
H740   H     0.49287   0.12169   0.92560   0.00000  Uiso   1.00
C741   C     0.62606   0.02225   0.77356   0.00000  Uiso   1.00
C742   C     0.37394   0.31108   0.72644   0.00000  Uiso   1.00
H743   H     0.59478   0.03948   0.79247   0.00000  Uiso   1.00
H744   H     0.40522   0.29386   0.70753   0.00000  Uiso   1.00
C745   C     0.62490   0.31285   0.77497   0.00000  Uiso   1.00
C746   C     0.37510   0.02048   0.72503   0.00000  Uiso   1.00
C747   C     0.66578   0.29050   0.75103   0.00000  Uiso   1.00
C748   C     0.33422   0.04284   0.74897   0.00000  Uiso   1.00
C749   C     0.51696   0.14217   0.77921   0.00000  Uiso   1.00
C750   C     0.48304   0.19117   0.72079   0.00000  Uiso   1.00
H751   H     0.52937   0.12252   0.80256   0.00000  Uiso   1.00
H752   H     0.47063   0.21081   0.69744   0.00000  Uiso   1.00
C753   C     0.46743   0.14204   0.77935   0.00000  Uiso   1.00
C754   C     0.53257   0.19129   0.72065   0.00000  Uiso   1.00
N755   N     0.45069   0.16668   0.74999   0.00000  Uiso   1.00
N756   N     0.54931   0.16666   0.75001   0.00000  Uiso   1.00
N757   N     0.59624   0.23014   0.54289   0.00000  Uiso   1.00
O758   O     0.57745   0.26308   0.56464   0.00000  Uiso   1.00
O759   O     0.63689   0.21567   0.54824   0.00000  Uiso   1.00
N760   N     0.40376   0.10320   0.95711   0.00000  Uiso   1.00
O761   O     0.36312   0.11768   0.95174   0.00000  Uiso   1.00
O762   O     0.42253   0.07024   0.93540   0.00000  Uiso   1.00
Cl763  Cl    0.57267   0.28900   0.80910   0.00000  Uiso   1.00
Cl764  Cl    0.42733   0.04434   0.69090   0.00000  Uiso   1.00
N765   N     0.43517   0.11593   0.81081   0.00000  Uiso   1.00
O766   O     0.43341   0.07699   0.80173   0.00000  Uiso   1.00
O767   O     0.42013   0.12759   0.85237   0.00000  Uiso   1.00
N768   N     0.56483   0.21739   0.68919   0.00000  Uiso   1.00
O769   O     0.56661   0.25634   0.69827   0.00000  Uiso   1.00
O770   O     0.57986   0.20574   0.64763   0.00000  Uiso   1.00
O771   O     0.70625   0.10655   0.75000   0.00000  Uiso   1.00
O772   O     0.96042   0.22678   0.75000   0.00000  Uiso   1.00
O773   O     0.96039   0.10654   0.75001   0.00000  Uiso   1.00
O774   O     0.70628   0.22679   0.75000   0.00000  Uiso   1.00
C775   C     0.66713   0.08745   0.74916   0.00000  Uiso   1.00
C776   C     0.99954   0.24588   0.75084   0.00000  Uiso   1.00
O777   O     0.68519   0.16668   0.81492   0.00000  Uiso   1.00
O778   O     0.98148   0.16666   0.68509   0.00000  Uiso   1.00
O779   O     0.93933   0.16667   0.81492   0.00000  Uiso   1.00
O780   O     0.72733   0.16667   0.68508   0.00000  Uiso   1.00
C781   C     0.97282   0.16723   0.83605   0.00000  Uiso   1.00
C782   C     0.69384   0.16610   0.66395   0.00000  Uiso   1.00
Cu783  Cu    0.71355   0.16667   0.75000   0.00000  Uiso   1.00
Cu784  Cu    0.95311   0.16666   0.75000   0.00000  Uiso   1.00
C785   C     0.95782   0.17171   0.88498   0.00000  Uiso   1.00
C786   C     0.70885   0.16162   0.61502   0.00000  Uiso   1.00
C787   C     0.96903   0.20251   0.95212   0.00000  Uiso   1.00
C788   C     0.69763   0.13084   0.54787   0.00000  Uiso   1.00
C789   C     0.98718   0.19203   0.90725   0.00000  Uiso   1.00
C790   C     0.67948   0.14132   0.59275   0.00000  Uiso   1.00
C791   C     0.91112   0.15997   0.90844   0.00000  Uiso   1.00
C792   C     0.75555   0.17336   0.59156   0.00000  Uiso   1.00
C793   C     0.89169   0.16966   0.95414   0.00000  Uiso   1.00
C794   C     0.77497   0.16369   0.54586   0.00000  Uiso   1.00
C795   C     0.92126   0.19221   0.97593   0.00000  Uiso   1.00
C796   C     0.74541   0.14113   0.52407   0.00000  Uiso   1.00
C797   C     0.84307   0.15941   0.97778   0.00000  Uiso   1.00
C798   C     0.82360   0.17393   0.52221   0.00000  Uiso   1.00
C799   C     0.85338   0.19813   0.54175   0.00000  Uiso   1.00
C800   C     0.81329   0.13521   0.95825   0.00000  Uiso   1.00
C801   C     0.90164   0.20619   0.51999   0.00000  Uiso   1.00
C802   C     0.76502   0.12716   0.98001   0.00000  Uiso   1.00
H803   H     0.77657   0.18828   0.61086   0.00000  Uiso   1.00
H804   H     0.89010   0.14505   0.88914   0.00000  Uiso   1.00
H805   H     0.97673   0.13152   0.61064   0.00000  Uiso   1.00
H806   H     0.68993   0.20183   0.88936   0.00000  Uiso   1.00
H807   H     0.99226   0.22030   0.96712   0.00000  Uiso   1.00
H808   H     0.67439   0.11306   0.53287   0.00000  Uiso   1.00
H809   H     0.84046   0.21165   0.57440   0.00000  Uiso   1.00
H810   H     0.82620   0.12169   0.92560   0.00000  Uiso   1.00
C811   C     0.95939   0.02225   0.77356   0.00000  Uiso   1.00
C812   C     0.70728   0.31108   0.72644   0.00000  Uiso   1.00
H813   H     0.92811   0.03948   0.79247   0.00000  Uiso   1.00
H814   H     0.73856   0.29386   0.70753   0.00000  Uiso   1.00
C815   C     0.95823   0.31285   0.77497   0.00000  Uiso   1.00
C816   C     0.70844   0.02048   0.72503   0.00000  Uiso   1.00
C817   C     0.99912   0.29050   0.75103   0.00000  Uiso   1.00
C818   C     0.66755   0.04284   0.74897   0.00000  Uiso   1.00
C819   C     0.85029   0.14217   0.77921   0.00000  Uiso   1.00
C820   C     0.81638   0.19117   0.72079   0.00000  Uiso   1.00
H821   H     0.86270   0.12252   0.80256   0.00000  Uiso   1.00
H822   H     0.80396   0.21081   0.69744   0.00000  Uiso   1.00
C823   C     0.80076   0.14204   0.77935   0.00000  Uiso   1.00
C824   C     0.86590   0.19129   0.72065   0.00000  Uiso   1.00
N825   N     0.78403   0.16668   0.74999   0.00000  Uiso   1.00
N826   N     0.88264   0.16666   0.75001   0.00000  Uiso   1.00
N827   N     0.92957   0.23014   0.54289   0.00000  Uiso   1.00
O828   O     0.91079   0.26308   0.56464   0.00000  Uiso   1.00
O829   O     0.97022   0.21567   0.54824   0.00000  Uiso   1.00
N830   N     0.73709   0.10320   0.95711   0.00000  Uiso   1.00
O831   O     0.69645   0.11768   0.95174   0.00000  Uiso   1.00
O832   O     0.75586   0.07024   0.93540   0.00000  Uiso   1.00
Cl833  Cl    0.90600   0.28900   0.80910   0.00000  Uiso   1.00
Cl834  Cl    0.76066   0.04434   0.69090   0.00000  Uiso   1.00
N835   N     0.76850   0.11593   0.81081   0.00000  Uiso   1.00
O836   O     0.76674   0.07699   0.80173   0.00000  Uiso   1.00
O837   O     0.75346   0.12759   0.85237   0.00000  Uiso   1.00
N838   N     0.89816   0.21739   0.68919   0.00000  Uiso   1.00
O839   O     0.89994   0.25634   0.69827   0.00000  Uiso   1.00
O840   O     0.91319   0.20574   0.64763   0.00000  Uiso   1.00
O841   O     0.03958   0.43989   0.75000   0.00000  Uiso   1.00
O842   O     0.29375   0.56011   0.75000   0.00000  Uiso   1.00
O843   O     0.29372   0.43988   0.75001   0.00000  Uiso   1.00
O844   O     0.03961   0.56012   0.75000   0.00000  Uiso   1.00
C845   C     0.00046   0.42078   0.74916   0.00000  Uiso   1.00
C846   C     0.33287   0.57922   0.75084   0.00000  Uiso   1.00
O847   O     0.01852   0.50001   0.81492   0.00000  Uiso   1.00
O848   O     0.31481   0.49999   0.68509   0.00000  Uiso   1.00
O849   O     0.27267   0.50000   0.81492   0.00000  Uiso   1.00
O850   O     0.06067   0.50000   0.68508   0.00000  Uiso   1.00
C851   C     0.30616   0.50056   0.83605   0.00000  Uiso   1.00
C852   C     0.02718   0.49944   0.66395   0.00000  Uiso   1.00
Cu853  Cu    0.04689   0.50001   0.75000   0.00000  Uiso   1.00
Cu854  Cu    0.28645   0.49999   0.75000   0.00000  Uiso   1.00
C855   C     0.29115   0.50505   0.88498   0.00000  Uiso   1.00
C856   C     0.04218   0.49496   0.61502   0.00000  Uiso   1.00
C857   C     0.30236   0.53585   0.95212   0.00000  Uiso   1.00
C858   C     0.03097   0.46417   0.54787   0.00000  Uiso   1.00
C859   C     0.32051   0.52536   0.90725   0.00000  Uiso   1.00
C860   C     0.01282   0.47465   0.59275   0.00000  Uiso   1.00
C861   C     0.24445   0.49331   0.90844   0.00000  Uiso   1.00
C862   C     0.08888   0.50670   0.59156   0.00000  Uiso   1.00
C863   C     0.22503   0.50299   0.95414   0.00000  Uiso   1.00
C864   C     0.10831   0.49702   0.54586   0.00000  Uiso   1.00
C865   C     0.25459   0.52555   0.97593   0.00000  Uiso   1.00
C866   C     0.07874   0.47447   0.52407   0.00000  Uiso   1.00
C867   C     0.17640   0.49275   0.97778   0.00000  Uiso   1.00
C868   C     0.15693   0.50726   0.52221   0.00000  Uiso   1.00
C869   C     0.18671   0.53146   0.54175   0.00000  Uiso   1.00
C870   C     0.14662   0.46855   0.95825   0.00000  Uiso   1.00
C871   C     0.23497   0.53952   0.51999   0.00000  Uiso   1.00
C872   C     0.09835   0.46049   0.98001   0.00000  Uiso   1.00
H873   H     0.10990   0.52161   0.61086   0.00000  Uiso   1.00
H874   H     0.22343   0.47838   0.88914   0.00000  Uiso   1.00
H875   H     0.31006   0.46485   0.61064   0.00000  Uiso   1.00
H876   H     0.02326   0.53517   0.88936   0.00000  Uiso   1.00
H877   H     0.32560   0.55363   0.96712   0.00000  Uiso   1.00
H878   H     0.00773   0.44639   0.53287   0.00000  Uiso   1.00
H879   H     0.17379   0.54498   0.57440   0.00000  Uiso   1.00
H880   H     0.15954   0.45503   0.92560   0.00000  Uiso   1.00
C881   C     0.29272   0.35558   0.77356   0.00000  Uiso   1.00
C882   C     0.04061   0.64442   0.72644   0.00000  Uiso   1.00
H883   H     0.26144   0.37281   0.79247   0.00000  Uiso   1.00
H884   H     0.07189   0.62719   0.70753   0.00000  Uiso   1.00
C885   C     0.29157   0.64619   0.77497   0.00000  Uiso   1.00
C886   C     0.04177   0.35381   0.72503   0.00000  Uiso   1.00
C887   C     0.33245   0.62383   0.75103   0.00000  Uiso   1.00
C888   C     0.00088   0.37617   0.74897   0.00000  Uiso   1.00
C889   C     0.18363   0.47550   0.77921   0.00000  Uiso   1.00
C890   C     0.14971   0.52450   0.72079   0.00000  Uiso   1.00
H891   H     0.19604   0.45585   0.80256   0.00000  Uiso   1.00
H892   H     0.13730   0.54415   0.69744   0.00000  Uiso   1.00
C893   C     0.13410   0.47537   0.77935   0.00000  Uiso   1.00
C894   C     0.19924   0.52463   0.72065   0.00000  Uiso   1.00
N895   N     0.11736   0.50001   0.74999   0.00000  Uiso   1.00
N896   N     0.21597   0.49999   0.75001   0.00000  Uiso   1.00
N897   N     0.26291   0.56348   0.54289   0.00000  Uiso   1.00
O898   O     0.24412   0.59641   0.56464   0.00000  Uiso   1.00
O899   O     0.30356   0.54900   0.54824   0.00000  Uiso   1.00
N900   N     0.07042   0.43654   0.95711   0.00000  Uiso   1.00
O901   O     0.02978   0.45102   0.95174   0.00000  Uiso   1.00
O902   O     0.08920   0.40357   0.93540   0.00000  Uiso   1.00
Cl903  Cl    0.23934   0.62233   0.80910   0.00000  Uiso   1.00
Cl904  Cl    0.09400   0.37767   0.69090   0.00000  Uiso   1.00
N905   N     0.10184   0.44927   0.81081   0.00000  Uiso   1.00
O906   O     0.10008   0.41032   0.80173   0.00000  Uiso   1.00
O907   O     0.08680   0.46093   0.85237   0.00000  Uiso   1.00
N908   N     0.23150   0.55073   0.68919   0.00000  Uiso   1.00
O909   O     0.23327   0.58967   0.69827   0.00000  Uiso   1.00
O910   O     0.24653   0.53907   0.64763   0.00000  Uiso   1.00
O911   O     0.37291   0.43989   0.75000   0.00000  Uiso   1.00
O912   O     0.62709   0.56011   0.75000   0.00000  Uiso   1.00
O913   O     0.62706   0.43988   0.75001   0.00000  Uiso   1.00
O914   O     0.37294   0.56012   0.75000   0.00000  Uiso   1.00
C915   C     0.33380   0.42078   0.74916   0.00000  Uiso   1.00
C916   C     0.66620   0.57922   0.75084   0.00000  Uiso   1.00
O917   O     0.35186   0.50001   0.81492   0.00000  Uiso   1.00
O918   O     0.64814   0.49999   0.68509   0.00000  Uiso   1.00
O919   O     0.60600   0.50000   0.81492   0.00000  Uiso   1.00
O920   O     0.39400   0.50000   0.68508   0.00000  Uiso   1.00
C921   C     0.63949   0.50056   0.83605   0.00000  Uiso   1.00
C922   C     0.36051   0.49944   0.66395   0.00000  Uiso   1.00
Cu923  Cu    0.38022   0.50001   0.75000   0.00000  Uiso   1.00
Cu924  Cu    0.61978   0.49999   0.75000   0.00000  Uiso   1.00
C925   C     0.62449   0.50505   0.88498   0.00000  Uiso   1.00
C926   C     0.37551   0.49496   0.61502   0.00000  Uiso   1.00
C927   C     0.63569   0.53585   0.95212   0.00000  Uiso   1.00
C928   C     0.36430   0.46417   0.54787   0.00000  Uiso   1.00
C929   C     0.65385   0.52536   0.90725   0.00000  Uiso   1.00
C930   C     0.34615   0.47465   0.59275   0.00000  Uiso   1.00
C931   C     0.57779   0.49331   0.90844   0.00000  Uiso   1.00
C932   C     0.42222   0.50670   0.59156   0.00000  Uiso   1.00
C933   C     0.55836   0.50299   0.95414   0.00000  Uiso   1.00
C934   C     0.44164   0.49702   0.54586   0.00000  Uiso   1.00
C935   C     0.58792   0.52555   0.97593   0.00000  Uiso   1.00
C936   C     0.41207   0.47447   0.52407   0.00000  Uiso   1.00
C937   C     0.50973   0.49275   0.97778   0.00000  Uiso   1.00
C938   C     0.49026   0.50726   0.52221   0.00000  Uiso   1.00
C939   C     0.52004   0.53146   0.54175   0.00000  Uiso   1.00
C940   C     0.47995   0.46855   0.95825   0.00000  Uiso   1.00
C941   C     0.56831   0.53952   0.51999   0.00000  Uiso   1.00
C942   C     0.43169   0.46049   0.98001   0.00000  Uiso   1.00
H943   H     0.44324   0.52161   0.61086   0.00000  Uiso   1.00
H944   H     0.55677   0.47838   0.88914   0.00000  Uiso   1.00
H945   H     0.64340   0.46485   0.61064   0.00000  Uiso   1.00
H946   H     0.35660   0.53517   0.88936   0.00000  Uiso   1.00
H947   H     0.65893   0.55363   0.96712   0.00000  Uiso   1.00
H948   H     0.34106   0.44639   0.53287   0.00000  Uiso   1.00
H949   H     0.50712   0.54498   0.57440   0.00000  Uiso   1.00
H950   H     0.49287   0.45503   0.92560   0.00000  Uiso   1.00
C951   C     0.62606   0.35558   0.77356   0.00000  Uiso   1.00
C952   C     0.37394   0.64442   0.72644   0.00000  Uiso   1.00
H953   H     0.59478   0.37281   0.79247   0.00000  Uiso   1.00
H954   H     0.40522   0.62719   0.70753   0.00000  Uiso   1.00
C955   C     0.62490   0.64619   0.77497   0.00000  Uiso   1.00
C956   C     0.37510   0.35381   0.72503   0.00000  Uiso   1.00
C957   C     0.66578   0.62383   0.75103   0.00000  Uiso   1.00
C958   C     0.33422   0.37617   0.74897   0.00000  Uiso   1.00
C959   C     0.51696   0.47550   0.77921   0.00000  Uiso   1.00
C960   C     0.48304   0.52450   0.72079   0.00000  Uiso   1.00
H961   H     0.52937   0.45585   0.80256   0.00000  Uiso   1.00
H962   H     0.47063   0.54415   0.69744   0.00000  Uiso   1.00
C963   C     0.46743   0.47537   0.77935   0.00000  Uiso   1.00
C964   C     0.53257   0.52463   0.72065   0.00000  Uiso   1.00
N965   N     0.45069   0.50001   0.74999   0.00000  Uiso   1.00
N966   N     0.54931   0.49999   0.75001   0.00000  Uiso   1.00
N967   N     0.59624   0.56348   0.54289   0.00000  Uiso   1.00
O968   O     0.57745   0.59641   0.56464   0.00000  Uiso   1.00
O969   O     0.63689   0.54900   0.54824   0.00000  Uiso   1.00
N970   N     0.40376   0.43654   0.95711   0.00000  Uiso   1.00
O971   O     0.36312   0.45102   0.95174   0.00000  Uiso   1.00
O972   O     0.42253   0.40357   0.93540   0.00000  Uiso   1.00
Cl973  Cl    0.57267   0.62233   0.80910   0.00000  Uiso   1.00
Cl974  Cl    0.42733   0.37767   0.69090   0.00000  Uiso   1.00
N975   N     0.43517   0.44927   0.81081   0.00000  Uiso   1.00
O976   O     0.43341   0.41032   0.80173   0.00000  Uiso   1.00
O977   O     0.42013   0.46093   0.85237   0.00000  Uiso   1.00
N978   N     0.56483   0.55073   0.68919   0.00000  Uiso   1.00
O979   O     0.56661   0.58967   0.69827   0.00000  Uiso   1.00
O980   O     0.57986   0.53907   0.64763   0.00000  Uiso   1.00
O981   O     0.70625   0.43989   0.75000   0.00000  Uiso   1.00
O982   O     0.96042   0.56011   0.75000   0.00000  Uiso   1.00
O983   O     0.96039   0.43988   0.75001   0.00000  Uiso   1.00
O984   O     0.70628   0.56012   0.75000   0.00000  Uiso   1.00
C985   C     0.66713   0.42078   0.74916   0.00000  Uiso   1.00
C986   C     0.99954   0.57922   0.75084   0.00000  Uiso   1.00
O987   O     0.68519   0.50001   0.81492   0.00000  Uiso   1.00
O988   O     0.98148   0.49999   0.68509   0.00000  Uiso   1.00
O989   O     0.93933   0.50000   0.81492   0.00000  Uiso   1.00
O990   O     0.72733   0.50000   0.68508   0.00000  Uiso   1.00
C991   C     0.97282   0.50056   0.83605   0.00000  Uiso   1.00
C992   C     0.69384   0.49944   0.66395   0.00000  Uiso   1.00
Cu993  Cu    0.71355   0.50001   0.75000   0.00000  Uiso   1.00
Cu994  Cu    0.95311   0.49999   0.75000   0.00000  Uiso   1.00
C995   C     0.95782   0.50505   0.88498   0.00000  Uiso   1.00
C996   C     0.70885   0.49496   0.61502   0.00000  Uiso   1.00
C997   C     0.96903   0.53585   0.95212   0.00000  Uiso   1.00
C998   C     0.69763   0.46417   0.54787   0.00000  Uiso   1.00
C999   C     0.98718   0.52536   0.90725   0.00000  Uiso   1.00
C1000  C     0.67948   0.47465   0.59275   0.00000  Uiso   1.00
C1001  C     0.91112   0.49331   0.90844   0.00000  Uiso   1.00
C1002  C     0.75555   0.50670   0.59156   0.00000  Uiso   1.00
C1003  C     0.89169   0.50299   0.95414   0.00000  Uiso   1.00
C1004  C     0.77497   0.49702   0.54586   0.00000  Uiso   1.00
C1005  C     0.92126   0.52555   0.97593   0.00000  Uiso   1.00
C1006  C     0.74541   0.47447   0.52407   0.00000  Uiso   1.00
C1007  C     0.84307   0.49275   0.97778   0.00000  Uiso   1.00
C1008  C     0.82360   0.50726   0.52221   0.00000  Uiso   1.00
C1009  C     0.85338   0.53146   0.54175   0.00000  Uiso   1.00
C1010  C     0.81329   0.46855   0.95825   0.00000  Uiso   1.00
C1011  C     0.90164   0.53952   0.51999   0.00000  Uiso   1.00
C1012  C     0.76502   0.46049   0.98001   0.00000  Uiso   1.00
H1013  H     0.77657   0.52161   0.61086   0.00000  Uiso   1.00
H1014  H     0.89010   0.47838   0.88914   0.00000  Uiso   1.00
H1015  H     0.97673   0.46485   0.61064   0.00000  Uiso   1.00
H1016  H     0.68993   0.53517   0.88936   0.00000  Uiso   1.00
H1017  H     0.99226   0.55363   0.96712   0.00000  Uiso   1.00
H1018  H     0.67439   0.44639   0.53287   0.00000  Uiso   1.00
H1019  H     0.84046   0.54498   0.57440   0.00000  Uiso   1.00
H1020  H     0.82620   0.45503   0.92560   0.00000  Uiso   1.00
C1021  C     0.95939   0.35558   0.77356   0.00000  Uiso   1.00
C1022  C     0.70728   0.64442   0.72644   0.00000  Uiso   1.00
H1023  H     0.92811   0.37281   0.79247   0.00000  Uiso   1.00
H1024  H     0.73856   0.62719   0.70753   0.00000  Uiso   1.00
C1025  C     0.95823   0.64619   0.77497   0.00000  Uiso   1.00
C1026  C     0.70844   0.35381   0.72503   0.00000  Uiso   1.00
C1027  C     0.99912   0.62383   0.75103   0.00000  Uiso   1.00
C1028  C     0.66755   0.37617   0.74897   0.00000  Uiso   1.00
C1029  C     0.85029   0.47550   0.77921   0.00000  Uiso   1.00
C1030  C     0.81638   0.52450   0.72079   0.00000  Uiso   1.00
H1031  H     0.86270   0.45585   0.80256   0.00000  Uiso   1.00
H1032  H     0.80396   0.54415   0.69744   0.00000  Uiso   1.00
C1033  C     0.80076   0.47537   0.77935   0.00000  Uiso   1.00
C1034  C     0.86590   0.52463   0.72065   0.00000  Uiso   1.00
N1035  N     0.78403   0.50001   0.74999   0.00000  Uiso   1.00
N1036  N     0.88264   0.49999   0.75001   0.00000  Uiso   1.00
N1037  N     0.92957   0.56348   0.54289   0.00000  Uiso   1.00
O1038  O     0.91079   0.59641   0.56464   0.00000  Uiso   1.00
O1039  O     0.97022   0.54900   0.54824   0.00000  Uiso   1.00
N1040  N     0.73709   0.43654   0.95711   0.00000  Uiso   1.00
O1041  O     0.69645   0.45102   0.95174   0.00000  Uiso   1.00
O1042  O     0.75586   0.40357   0.93540   0.00000  Uiso   1.00
Cl1043 Cl    0.90600   0.62233   0.80910   0.00000  Uiso   1.00
Cl1044 Cl    0.76066   0.37767   0.69090   0.00000  Uiso   1.00
N1045  N     0.76850   0.44927   0.81081   0.00000  Uiso   1.00
O1046  O     0.76674   0.41032   0.80173   0.00000  Uiso   1.00
O1047  O     0.75346   0.46093   0.85237   0.00000  Uiso   1.00
N1048  N     0.89816   0.55073   0.68919   0.00000  Uiso   1.00
O1049  O     0.89994   0.58967   0.69827   0.00000  Uiso   1.00
O1050  O     0.91319   0.53907   0.64763   0.00000  Uiso   1.00
O1051  O     0.03958   0.77322   0.75000   0.00000  Uiso   1.00
O1052  O     0.29375   0.89345   0.75000   0.00000  Uiso   1.00
O1053  O     0.29372   0.77321   0.75001   0.00000  Uiso   1.00
O1054  O     0.03961   0.89346   0.75000   0.00000  Uiso   1.00
C1055  C     0.00046   0.75412   0.74916   0.00000  Uiso   1.00
C1056  C     0.33287   0.91255   0.75084   0.00000  Uiso   1.00
O1057  O     0.01852   0.83334   0.81492   0.00000  Uiso   1.00
O1058  O     0.31481   0.83332   0.68509   0.00000  Uiso   1.00
O1059  O     0.27267   0.83333   0.81492   0.00000  Uiso   1.00
O1060  O     0.06067   0.83333   0.68508   0.00000  Uiso   1.00
C1061  C     0.30616   0.83390   0.83605   0.00000  Uiso   1.00
C1062  C     0.02718   0.83277   0.66395   0.00000  Uiso   1.00
Cu1063 Cu    0.04689   0.83334   0.75000   0.00000  Uiso   1.00
Cu1064 Cu    0.28645   0.83333   0.75000   0.00000  Uiso   1.00
C1065  C     0.29115   0.83838   0.88498   0.00000  Uiso   1.00
C1066  C     0.04218   0.82829   0.61502   0.00000  Uiso   1.00
C1067  C     0.30236   0.86918   0.95212   0.00000  Uiso   1.00
C1068  C     0.03097   0.79750   0.54787   0.00000  Uiso   1.00
C1069  C     0.32051   0.85869   0.90725   0.00000  Uiso   1.00
C1070  C     0.01282   0.80799   0.59275   0.00000  Uiso   1.00
C1071  C     0.24445   0.82664   0.90844   0.00000  Uiso   1.00
C1072  C     0.08888   0.84003   0.59156   0.00000  Uiso   1.00
C1073  C     0.22503   0.83632   0.95414   0.00000  Uiso   1.00
C1074  C     0.10831   0.83035   0.54586   0.00000  Uiso   1.00
C1075  C     0.25459   0.85888   0.97593   0.00000  Uiso   1.00
C1076  C     0.07874   0.80780   0.52407   0.00000  Uiso   1.00
C1077  C     0.17640   0.82608   0.97778   0.00000  Uiso   1.00
C1078  C     0.15693   0.84059   0.52221   0.00000  Uiso   1.00
C1079  C     0.18671   0.86480   0.54175   0.00000  Uiso   1.00
C1080  C     0.14662   0.80188   0.95825   0.00000  Uiso   1.00
C1081  C     0.23497   0.87285   0.51999   0.00000  Uiso   1.00
C1082  C     0.09835   0.79383   0.98001   0.00000  Uiso   1.00
H1083  H     0.10990   0.85494   0.61086   0.00000  Uiso   1.00
H1084  H     0.22343   0.81172   0.88914   0.00000  Uiso   1.00
H1085  H     0.31006   0.79818   0.61064   0.00000  Uiso   1.00
H1086  H     0.02326   0.86850   0.88936   0.00000  Uiso   1.00
H1087  H     0.32560   0.88696   0.96712   0.00000  Uiso   1.00
H1088  H     0.00773   0.77973   0.53287   0.00000  Uiso   1.00
H1089  H     0.17379   0.87832   0.57440   0.00000  Uiso   1.00
H1090  H     0.15954   0.78836   0.92560   0.00000  Uiso   1.00
C1091  C     0.29272   0.68892   0.77356   0.00000  Uiso   1.00
C1092  C     0.04061   0.97775   0.72644   0.00000  Uiso   1.00
H1093  H     0.26144   0.70614   0.79247   0.00000  Uiso   1.00
H1094  H     0.07189   0.96052   0.70753   0.00000  Uiso   1.00
C1095  C     0.29157   0.97952   0.77497   0.00000  Uiso   1.00
C1096  C     0.04177   0.68715   0.72503   0.00000  Uiso   1.00
C1097  C     0.33245   0.95716   0.75103   0.00000  Uiso   1.00
C1098  C     0.00088   0.70950   0.74897   0.00000  Uiso   1.00
C1099  C     0.18363   0.80883   0.77921   0.00000  Uiso   1.00
C1100  C     0.14971   0.85783   0.72079   0.00000  Uiso   1.00
H1101  H     0.19604   0.78919   0.80256   0.00000  Uiso   1.00
H1102  H     0.13730   0.87748   0.69744   0.00000  Uiso   1.00
C1103  C     0.13410   0.80871   0.77935   0.00000  Uiso   1.00
C1104  C     0.19924   0.85796   0.72065   0.00000  Uiso   1.00
N1105  N     0.11736   0.83334   0.74999   0.00000  Uiso   1.00
N1106  N     0.21597   0.83332   0.75001   0.00000  Uiso   1.00
N1107  N     0.26291   0.89681   0.54289   0.00000  Uiso   1.00
O1108  O     0.24412   0.92975   0.56464   0.00000  Uiso   1.00
O1109  O     0.30356   0.88233   0.54824   0.00000  Uiso   1.00
N1110  N     0.07042   0.76987   0.95711   0.00000  Uiso   1.00
O1111  O     0.02978   0.78435   0.95174   0.00000  Uiso   1.00
O1112  O     0.08920   0.73691   0.93540   0.00000  Uiso   1.00
Cl1113 Cl    0.23934   0.95566   0.80910   0.00000  Uiso   1.00
Cl1114 Cl    0.09400   0.71100   0.69090   0.00000  Uiso   1.00
N1115  N     0.10184   0.78260   0.81081   0.00000  Uiso   1.00
O1116  O     0.10008   0.74365   0.80173   0.00000  Uiso   1.00
O1117  O     0.08680   0.79426   0.85237   0.00000  Uiso   1.00
N1118  N     0.23150   0.88406   0.68919   0.00000  Uiso   1.00
O1119  O     0.23327   0.92301   0.69827   0.00000  Uiso   1.00
O1120  O     0.24653   0.87240   0.64763   0.00000  Uiso   1.00
O1121  O     0.37291   0.77322   0.75000   0.00000  Uiso   1.00
O1122  O     0.62709   0.89345   0.75000   0.00000  Uiso   1.00
O1123  O     0.62706   0.77321   0.75001   0.00000  Uiso   1.00
O1124  O     0.37294   0.89346   0.75000   0.00000  Uiso   1.00
C1125  C     0.33380   0.75412   0.74916   0.00000  Uiso   1.00
C1126  C     0.66620   0.91255   0.75084   0.00000  Uiso   1.00
O1127  O     0.35186   0.83334   0.81492   0.00000  Uiso   1.00
O1128  O     0.64814   0.83332   0.68509   0.00000  Uiso   1.00
O1129  O     0.60600   0.83333   0.81492   0.00000  Uiso   1.00
O1130  O     0.39400   0.83333   0.68508   0.00000  Uiso   1.00
C1131  C     0.63949   0.83390   0.83605   0.00000  Uiso   1.00
C1132  C     0.36051   0.83277   0.66395   0.00000  Uiso   1.00
Cu1133 Cu    0.38022   0.83334   0.75000   0.00000  Uiso   1.00
Cu1134 Cu    0.61978   0.83333   0.75000   0.00000  Uiso   1.00
C1135  C     0.62449   0.83838   0.88498   0.00000  Uiso   1.00
C1136  C     0.37551   0.82829   0.61502   0.00000  Uiso   1.00
C1137  C     0.63569   0.86918   0.95212   0.00000  Uiso   1.00
C1138  C     0.36430   0.79750   0.54787   0.00000  Uiso   1.00
C1139  C     0.65385   0.85869   0.90725   0.00000  Uiso   1.00
C1140  C     0.34615   0.80799   0.59275   0.00000  Uiso   1.00
C1141  C     0.57779   0.82664   0.90844   0.00000  Uiso   1.00
C1142  C     0.42222   0.84003   0.59156   0.00000  Uiso   1.00
C1143  C     0.55836   0.83632   0.95414   0.00000  Uiso   1.00
C1144  C     0.44164   0.83035   0.54586   0.00000  Uiso   1.00
C1145  C     0.58792   0.85888   0.97593   0.00000  Uiso   1.00
C1146  C     0.41207   0.80780   0.52407   0.00000  Uiso   1.00
C1147  C     0.50973   0.82608   0.97778   0.00000  Uiso   1.00
C1148  C     0.49026   0.84059   0.52221   0.00000  Uiso   1.00
C1149  C     0.52004   0.86480   0.54175   0.00000  Uiso   1.00
C1150  C     0.47995   0.80188   0.95825   0.00000  Uiso   1.00
C1151  C     0.56831   0.87285   0.51999   0.00000  Uiso   1.00
C1152  C     0.43169   0.79383   0.98001   0.00000  Uiso   1.00
H1153  H     0.44324   0.85494   0.61086   0.00000  Uiso   1.00
H1154  H     0.55677   0.81172   0.88914   0.00000  Uiso   1.00
H1155  H     0.64340   0.79818   0.61064   0.00000  Uiso   1.00
H1156  H     0.35660   0.86850   0.88936   0.00000  Uiso   1.00
H1157  H     0.65893   0.88696   0.96712   0.00000  Uiso   1.00
H1158  H     0.34106   0.77973   0.53287   0.00000  Uiso   1.00
H1159  H     0.50712   0.87832   0.57440   0.00000  Uiso   1.00
H1160  H     0.49287   0.78836   0.92560   0.00000  Uiso   1.00
C1161  C     0.62606   0.68892   0.77356   0.00000  Uiso   1.00
C1162  C     0.37394   0.97775   0.72644   0.00000  Uiso   1.00
H1163  H     0.59478   0.70614   0.79247   0.00000  Uiso   1.00
H1164  H     0.40522   0.96052   0.70753   0.00000  Uiso   1.00
C1165  C     0.62490   0.97952   0.77497   0.00000  Uiso   1.00
C1166  C     0.37510   0.68715   0.72503   0.00000  Uiso   1.00
C1167  C     0.66578   0.95716   0.75103   0.00000  Uiso   1.00
C1168  C     0.33422   0.70950   0.74897   0.00000  Uiso   1.00
C1169  C     0.51696   0.80883   0.77921   0.00000  Uiso   1.00
C1170  C     0.48304   0.85783   0.72079   0.00000  Uiso   1.00
H1171  H     0.52937   0.78919   0.80256   0.00000  Uiso   1.00
H1172  H     0.47063   0.87748   0.69744   0.00000  Uiso   1.00
C1173  C     0.46743   0.80871   0.77935   0.00000  Uiso   1.00
C1174  C     0.53257   0.85796   0.72065   0.00000  Uiso   1.00
N1175  N     0.45069   0.83334   0.74999   0.00000  Uiso   1.00
N1176  N     0.54931   0.83332   0.75001   0.00000  Uiso   1.00
N1177  N     0.59624   0.89681   0.54289   0.00000  Uiso   1.00
O1178  O     0.57745   0.92975   0.56464   0.00000  Uiso   1.00
O1179  O     0.63689   0.88233   0.54824   0.00000  Uiso   1.00
N1180  N     0.40376   0.76987   0.95711   0.00000  Uiso   1.00
O1181  O     0.36312   0.78435   0.95174   0.00000  Uiso   1.00
O1182  O     0.42253   0.73691   0.93540   0.00000  Uiso   1.00
Cl1183 Cl    0.57267   0.95566   0.80910   0.00000  Uiso   1.00
Cl1184 Cl    0.42733   0.71100   0.69090   0.00000  Uiso   1.00
N1185  N     0.43517   0.78260   0.81081   0.00000  Uiso   1.00
O1186  O     0.43341   0.74365   0.80173   0.00000  Uiso   1.00
O1187  O     0.42013   0.79426   0.85237   0.00000  Uiso   1.00
N1188  N     0.56483   0.88406   0.68919   0.00000  Uiso   1.00
O1189  O     0.56661   0.92301   0.69827   0.00000  Uiso   1.00
O1190  O     0.57986   0.87240   0.64763   0.00000  Uiso   1.00
O1191  O     0.70625   0.77322   0.75000   0.00000  Uiso   1.00
O1192  O     0.96042   0.89345   0.75000   0.00000  Uiso   1.00
O1193  O     0.96039   0.77321   0.75001   0.00000  Uiso   1.00
O1194  O     0.70628   0.89346   0.75000   0.00000  Uiso   1.00
C1195  C     0.66713   0.75412   0.74916   0.00000  Uiso   1.00
C1196  C     0.99954   0.91255   0.75084   0.00000  Uiso   1.00
O1197  O     0.68519   0.83334   0.81492   0.00000  Uiso   1.00
O1198  O     0.98148   0.83332   0.68509   0.00000  Uiso   1.00
O1199  O     0.93933   0.83333   0.81492   0.00000  Uiso   1.00
O1200  O     0.72733   0.83333   0.68508   0.00000  Uiso   1.00
C1201  C     0.97282   0.83390   0.83605   0.00000  Uiso   1.00
C1202  C     0.69384   0.83277   0.66395   0.00000  Uiso   1.00
Cu1203 Cu    0.71355   0.83334   0.75000   0.00000  Uiso   1.00
Cu1204 Cu    0.95311   0.83333   0.75000   0.00000  Uiso   1.00
C1205  C     0.95782   0.83838   0.88498   0.00000  Uiso   1.00
C1206  C     0.70885   0.82829   0.61502   0.00000  Uiso   1.00
C1207  C     0.96903   0.86918   0.95212   0.00000  Uiso   1.00
C1208  C     0.69763   0.79750   0.54787   0.00000  Uiso   1.00
C1209  C     0.98718   0.85869   0.90725   0.00000  Uiso   1.00
C1210  C     0.67948   0.80799   0.59275   0.00000  Uiso   1.00
C1211  C     0.91112   0.82664   0.90844   0.00000  Uiso   1.00
C1212  C     0.75555   0.84003   0.59156   0.00000  Uiso   1.00
C1213  C     0.89169   0.83632   0.95414   0.00000  Uiso   1.00
C1214  C     0.77497   0.83035   0.54586   0.00000  Uiso   1.00
C1215  C     0.92126   0.85888   0.97593   0.00000  Uiso   1.00
C1216  C     0.74541   0.80780   0.52407   0.00000  Uiso   1.00
C1217  C     0.84307   0.82608   0.97778   0.00000  Uiso   1.00
C1218  C     0.82360   0.84059   0.52221   0.00000  Uiso   1.00
C1219  C     0.85338   0.86480   0.54175   0.00000  Uiso   1.00
C1220  C     0.81329   0.80188   0.95825   0.00000  Uiso   1.00
C1221  C     0.90164   0.87285   0.51999   0.00000  Uiso   1.00
C1222  C     0.76502   0.79383   0.98001   0.00000  Uiso   1.00
H1223  H     0.77657   0.85494   0.61086   0.00000  Uiso   1.00
H1224  H     0.89010   0.81172   0.88914   0.00000  Uiso   1.00
H1225  H     0.97673   0.79818   0.61064   0.00000  Uiso   1.00
H1226  H     0.68993   0.86850   0.88936   0.00000  Uiso   1.00
H1227  H     0.99226   0.88696   0.96712   0.00000  Uiso   1.00
H1228  H     0.67439   0.77973   0.53287   0.00000  Uiso   1.00
H1229  H     0.84046   0.87832   0.57440   0.00000  Uiso   1.00
H1230  H     0.82620   0.78836   0.92560   0.00000  Uiso   1.00
C1231  C     0.95939   0.68892   0.77356   0.00000  Uiso   1.00
C1232  C     0.70728   0.97775   0.72644   0.00000  Uiso   1.00
H1233  H     0.92811   0.70614   0.79247   0.00000  Uiso   1.00
H1234  H     0.73856   0.96052   0.70753   0.00000  Uiso   1.00
C1235  C     0.95823   0.97952   0.77497   0.00000  Uiso   1.00
C1236  C     0.70844   0.68715   0.72503   0.00000  Uiso   1.00
C1237  C     0.99912   0.95716   0.75103   0.00000  Uiso   1.00
C1238  C     0.66755   0.70950   0.74897   0.00000  Uiso   1.00
C1239  C     0.85029   0.80883   0.77921   0.00000  Uiso   1.00
C1240  C     0.81638   0.85783   0.72079   0.00000  Uiso   1.00
H1241  H     0.86270   0.78919   0.80256   0.00000  Uiso   1.00
H1242  H     0.80396   0.87748   0.69744   0.00000  Uiso   1.00
C1243  C     0.80076   0.80871   0.77935   0.00000  Uiso   1.00
C1244  C     0.86590   0.85796   0.72065   0.00000  Uiso   1.00
N1245  N     0.78403   0.83334   0.74999   0.00000  Uiso   1.00
N1246  N     0.88264   0.83332   0.75001   0.00000  Uiso   1.00
N1247  N     0.92957   0.89681   0.54289   0.00000  Uiso   1.00
O1248  O     0.91079   0.92975   0.56464   0.00000  Uiso   1.00
O1249  O     0.97022   0.88233   0.54824   0.00000  Uiso   1.00
N1250  N     0.73709   0.76987   0.95711   0.00000  Uiso   1.00
O1251  O     0.69645   0.78435   0.95174   0.00000  Uiso   1.00
O1252  O     0.75586   0.73691   0.93540   0.00000  Uiso   1.00
Cl1253 Cl    0.90600   0.95566   0.80910   0.00000  Uiso   1.00
Cl1254 Cl    0.76066   0.71100   0.69090   0.00000  Uiso   1.00
N1255  N     0.76850   0.78260   0.81081   0.00000  Uiso   1.00
O1256  O     0.76674   0.74365   0.80173   0.00000  Uiso   1.00
O1257  O     0.75346   0.79426   0.85237   0.00000  Uiso   1.00
N1258  N     0.89816   0.88406   0.68919   0.00000  Uiso   1.00
O1259  O     0.89994   0.92301   0.69827   0.00000  Uiso   1.00
O1260  O     0.91319   0.87240   0.64763   0.00000  Uiso   1.00
loop_
_geom_bond_atom_site_label_1
_geom_bond_atom_site_label_2
_geom_bond_distance
_geom_bond_site_symmetry_2
_ccdc_geom_bond_type
O1     C5      1.292   .     A
O1     Cu13    1.961   .     S
O2     C6      1.292   .     A
O2     Cu14    1.961   .     S
O3     Cu14    1.957   .     S
O3     C75     1.293   .     S
O4     Cu13    1.957   .     S
O4     C146    1.293   1_455 S
C5     C48     1.446   .     S
C5     O143    1.293   1_455 S
C6     C47     1.446   .     S
C6     O74     1.293   .     S
O7     Cu13    1.953   .     S
O7     C151    1.299   1_455 S
O8     Cu14    1.953   .     S
O8     C82     1.299   .     S
O9     Cu14    1.937   .     S
O9     C11     1.295   .     A
O10    C12     1.295   .     A
O10    Cu13    1.937   .     S
C11    C15     1.465   .     S
C11    O77     1.299   .     S
C12    C16     1.465   .     S
C12    O148    1.299   1_455 S
Cu13   N55     2.018   .     S
Cu13   Cu154   2.686   1_455 S
Cu14   N56     2.018   .     S
Cu14   Cu83    2.686   .     S
C15    C21     1.396   .     A
C15    C19     1.393   .     A
C16    C20     1.393   .     A
C16    C22     1.396   .     A
C17    C25     1.412   .     A
C17    C19     1.390   .     A
C17    H37     1.080   .     S
C18    H38     1.080   .     S
C18    C20     1.390   .     A
C18    C26     1.412   .     A
C19    H106    1.083   .     S
C20    H175    1.083   1_455 S
C21    C23     1.410   .     A
C21    H34     1.074   .     S
C22    C24     1.410   .     A
C22    H33     1.074   .     S
C23    C27     1.431   .     A
C23    C25     1.425   .     A
C24    C26     1.425   .     A
C24    C28     1.431   .     A
C25    C661    1.406   .     S
C26    C662    1.406   1_554 S
C27    C30     1.415   .     A
C27    C658    1.421   .     S
C28    C29     1.415   .     A
C28    C657    1.421   1_554 S
C29    C31     1.393   .     A
C29    H39     1.075   .     S
C30    H40     1.075   .     S
C30    C32     1.393   .     A
C31    N57     1.438   .     S
C31    C655    1.406   1_554 S
C32    N60     1.438   .     S
C32    C656    1.406   .     S
H35    C90     1.083   .     S
H36    C159    1.083   1_455 S
C41    H43     1.084   .     S
C41    C465    1.385   1_545 S
C41    C118    1.399   .     S
C42    H44     1.084   .     S
C42    C256    1.385   .     S
C42    C187    1.399   1_455 S
C45    C47     1.407   .     A
C45    Cl63    1.764   .     S
C45    C251    1.385   .     S
C46    C48     1.407   .     A
C46    Cl64    1.764   .     S
C46    C462    1.385   1_545 S
C47    C112    1.399   .     S
C48    C181    1.399   1_455 S
C49    C53     1.417   .     A
C49    N56     1.362   .     A
C49    H51     1.082   .     S
C50    H52     1.082   .     S
C50    N55     1.362   .     A
C50    C54     1.417   .     A
C53    N65     1.425   .     S
C53    N55     1.376   .     A
C54    N56     1.376   .     A
C54    N68     1.425   .     S
N57    O58     1.302   .     A
N57    O59     1.301   .     A
N60    O62     1.302   .     A
N60    O61     1.301   .     A
N65    O67     1.300   .     A
N65    O66     1.300   .     A
N68    O70     1.300   .     A
N68    O69     1.300   .     A
O71    C75     1.292   .     A
O71    Cu83    1.961   .     S
O72    C76     1.292   .     A
O72    Cu84    1.961   .     S
O73    Cu84    1.957   .     S
O73    C145    1.293   .     S
O74    Cu83    1.957   .     S
C75    C118    1.446   .     S
C76    C117    1.446   .     S
C76    O144    1.293   .     S
O77    Cu83    1.953   .     S
O78    Cu84    1.953   .     S
O78    C152    1.299   .     S
O79    Cu84    1.937   .     S
O79    C81     1.295   .     A
O80    C82     1.295   .     A
O80    Cu83    1.937   .     S
C81    C85     1.465   .     S
C81    O147    1.299   .     S
C82    C86     1.465   .     S
Cu83   N125    2.018   .     S
Cu84   N126    2.018   .     S
Cu84   Cu153   2.686   .     S
C85    C91     1.396   .     A
C85    C89     1.393   .     A
C86    C90     1.393   .     A
C86    C92     1.396   .     A
C87    C95     1.412   .     A
C87    C89     1.390   .     A
C87    H107    1.080   .     S
C88    H108    1.080   .     S
C88    C90     1.390   .     A
C88    C96     1.412   .     A
C89    H176    1.083   .     S
C91    C93     1.410   .     A
C91    H104    1.074   .     S
C92    C94     1.410   .     A
C92    H103    1.074   .     S
C93    C97     1.431   .     A
C93    C95     1.425   .     A
C94    C96     1.425   .     A
C94    C98     1.431   .     A
C95    C731    1.406   .     S
C96    C732    1.406   1_554 S
C97    C100    1.415   .     A
C97    C728    1.421   .     S
C98    C99     1.415   .     A
C98    C727    1.421   1_554 S
C99    C101    1.393   .     A
C99    H109    1.075   .     S
C100   H110    1.075   .     S
C100   C102    1.393   .     A
C101   N127    1.438   .     S
C101   C725    1.406   1_554 S
C102   N130    1.438   .     S
C102   C726    1.406   .     S
H105   C160    1.083   .     S
C111   H113    1.084   .     S
C111   C535    1.385   1_545 S
C111   C188    1.399   .     S
C112   H114    1.084   .     S
C112   C326    1.385   .     S
C115   C117    1.407   .     A
C115   Cl133   1.764   .     S
C115   C321    1.385   .     S
C116   C118    1.407   .     A
C116   Cl134   1.764   .     S
C116   C532    1.385   1_545 S
C117   C182    1.399   .     S
C119   C123    1.417   .     A
C119   N126    1.362   .     A
C119   H121    1.082   .     S
C120   H122    1.082   .     S
C120   N125    1.362   .     A
C120   C124    1.417   .     A
C123   N135    1.425   .     S
C123   N125    1.376   .     A
C124   N126    1.376   .     A
C124   N138    1.425   .     S
N127   O128    1.302   .     A
N127   O129    1.301   .     A
N130   O132    1.302   .     A
N130   O131    1.301   .     A
N135   O137    1.300   .     A
N135   O136    1.300   .     A
N138   O140    1.300   .     A
N138   O139    1.300   .     A
O141   C145    1.292   .     A
O141   Cu153   1.961   .     S
O142   C146    1.292   .     A
O142   Cu154   1.961   .     S
O143   Cu154   1.957   .     S
O143   C5      1.293   1_655 S
O144   Cu153   1.957   .     S
C145   C188    1.446   .     S
C146   C187    1.446   .     S
C146   O4      1.293   1_655 S
O147   Cu153   1.953   .     S
O148   Cu154   1.953   .     S
O148   C12     1.299   1_655 S
O149   Cu154   1.937   .     S
O149   C151    1.295   .     A
O150   C152    1.295   .     A
O150   Cu153   1.937   .     S
C151   C155    1.465   .     S
C151   O7      1.299   1_655 S
C152   C156    1.465   .     S
Cu153  N195    2.018   .     S
Cu154  N196    2.018   .     S
Cu154  Cu13    2.686   1_655 S
C155   C161    1.396   .     A
C155   C159    1.393   .     A
C156   C160    1.393   .     A
C156   C162    1.396   .     A
C157   C165    1.412   .     A
C157   C159    1.390   .     A
C157   H177    1.080   .     S
C158   H178    1.080   .     S
C158   C160    1.390   .     A
C158   C166    1.412   .     A
C159   H36     1.083   1_655 S
C161   C163    1.410   .     A
C161   H174    1.074   .     S
C162   C164    1.410   .     A
C162   H173    1.074   .     S
C163   C167    1.431   .     A
C163   C165    1.425   .     A
C164   C166    1.425   .     A
C164   C168    1.431   .     A
C165   C801    1.406   .     S
C166   C802    1.406   1_554 S
C167   C170    1.415   .     A
C167   C798    1.421   .     S
C168   C169    1.415   .     A
C168   C797    1.421   1_554 S
C169   C171    1.393   .     A
C169   H179    1.075   .     S
C170   H180    1.075   .     S
C170   C172    1.393   .     A
C171   N197    1.438   .     S
C171   C795    1.406   1_554 S
C172   N200    1.438   .     S
C172   C796    1.406   .     S
H175   C20     1.083   1_655 S
C181   H183    1.084   .     S
C181   C605    1.385   1_545 S
C181   C48     1.399   1_655 S
C182   H184    1.084   .     S
C182   C396    1.385   .     S
C185   C187    1.407   .     A
C185   Cl203   1.764   .     S
C185   C391    1.385   .     S
C186   C188    1.407   .     A
C186   Cl204   1.764   .     S
C186   C602    1.385   1_545 S
C187   C42     1.399   1_655 S
C189   C193    1.417   .     A
C189   N196    1.362   .     A
C189   H191    1.082   .     S
C190   H192    1.082   .     S
C190   N195    1.362   .     A
C190   C194    1.417   .     A
C193   N205    1.425   .     S
C193   N195    1.376   .     A
C194   N196    1.376   .     A
C194   N208    1.425   .     S
N197   O198    1.302   .     A
N197   O199    1.301   .     A
N200   O202    1.302   .     A
N200   O201    1.301   .     A
N205   O207    1.300   .     A
N205   O206    1.300   .     A
N208   O210    1.300   .     A
N208   O209    1.300   .     A
O211   C215    1.292   .     A
O211   Cu223   1.961   .     S
O212   C216    1.292   .     A
O212   Cu224   1.961   .     S
O213   Cu224   1.957   .     S
O213   C285    1.293   .     S
O214   Cu223   1.957   .     S
O214   C356    1.293   1_455 S
C215   C258    1.446   .     S
C215   O353    1.293   1_455 S
C216   C257    1.446   .     S
C216   O284    1.293   .     S
O217   Cu223   1.953   .     S
O217   C361    1.299   1_455 S
O218   Cu224   1.953   .     S
O218   C292    1.299   .     S
O219   Cu224   1.937   .     S
O219   C221    1.295   .     A
O220   C222    1.295   .     A
O220   Cu223   1.937   .     S
C221   C225    1.465   .     S
C221   O287    1.299   .     S
C222   C226    1.465   .     S
C222   O358    1.299   1_455 S
Cu223  N265    2.018   .     S
Cu223  Cu364   2.686   1_455 S
Cu224  N266    2.018   .     S
Cu224  Cu293   2.686   .     S
C225   C231    1.396   .     A
C225   C229    1.393   .     A
C226   C230    1.393   .     A
C226   C232    1.396   .     A
C227   C235    1.412   .     A
C227   C229    1.390   .     A
C227   H247    1.080   .     S
C228   H248    1.080   .     S
C228   C230    1.390   .     A
C228   C236    1.412   .     A
C229   H316    1.083   .     S
C230   H385    1.083   1_455 S
C231   C233    1.410   .     A
C231   H244    1.074   .     S
C232   C234    1.410   .     A
C232   H243    1.074   .     S
C233   C237    1.431   .     A
C233   C235    1.425   .     A
C234   C236    1.425   .     A
C234   C238    1.431   .     A
C235   C871    1.406   .     S
C236   C872    1.406   1_554 S
C237   C240    1.415   .     A
C237   C868    1.421   .     S
C238   C239    1.415   .     A
C238   C867    1.421   1_554 S
C239   C241    1.393   .     A
C239   H249    1.075   .     S
C240   H250    1.075   .     S
C240   C242    1.393   .     A
C241   N267    1.438   .     S
C241   C865    1.406   1_554 S
C242   N270    1.438   .     S
C242   C866    1.406   .     S
H245   C300    1.083   .     S
H246   C369    1.083   1_455 S
C251   H253    1.084   .     S
C251   C328    1.399   .     S
C252   H254    1.084   .     S
C252   C466    1.385   .     S
C252   C397    1.399   1_455 S
C255   C257    1.407   .     A
C255   Cl273   1.764   .     S
C255   C461    1.385   .     S
C256   C258    1.407   .     A
C256   Cl274   1.764   .     S
C257   C322    1.399   .     S
C258   C391    1.399   1_455 S
C259   C263    1.417   .     A
C259   N266    1.362   .     A
C259   H261    1.082   .     S
C260   H262    1.082   .     S
C260   N265    1.362   .     A
C260   C264    1.417   .     A
C263   N275    1.425   .     S
C263   N265    1.376   .     A
C264   N266    1.376   .     A
C264   N278    1.425   .     S
N267   O268    1.302   .     A
N267   O269    1.301   .     A
N270   O272    1.302   .     A
N270   O271    1.301   .     A
N275   O277    1.300   .     A
N275   O276    1.300   .     A
N278   O280    1.300   .     A
N278   O279    1.300   .     A
O281   C285    1.292   .     A
O281   Cu293   1.961   .     S
O282   C286    1.292   .     A
O282   Cu294   1.961   .     S
O283   Cu294   1.957   .     S
O283   C355    1.293   .     S
O284   Cu293   1.957   .     S
C285   C328    1.446   .     S
C286   C327    1.446   .     S
C286   O354    1.293   .     S
O287   Cu293   1.953   .     S
O288   Cu294   1.953   .     S
O288   C362    1.299   .     S
O289   Cu294   1.937   .     S
O289   C291    1.295   .     A
O290   C292    1.295   .     A
O290   Cu293   1.937   .     S
C291   C295    1.465   .     S
C291   O357    1.299   .     S
C292   C296    1.465   .     S
Cu293  N335    2.018   .     S
Cu294  N336    2.018   .     S
Cu294  Cu363   2.686   .     S
C295   C301    1.396   .     A
C295   C299    1.393   .     A
C296   C300    1.393   .     A
C296   C302    1.396   .     A
C297   C305    1.412   .     A
C297   C299    1.390   .     A
C297   H317    1.080   .     S
C298   H318    1.080   .     S
C298   C300    1.390   .     A
C298   C306    1.412   .     A
C299   H386    1.083   .     S
C301   C303    1.410   .     A
C301   H314    1.074   .     S
C302   C304    1.410   .     A
C302   H313    1.074   .     S
C303   C307    1.431   .     A
C303   C305    1.425   .     A
C304   C306    1.425   .     A
C304   C308    1.431   .     A
C305   C941    1.406   .     S
C306   C942    1.406   1_554 S
C307   C310    1.415   .     A
C307   C938    1.421   .     S
C308   C309    1.415   .     A
C308   C937    1.421   1_554 S
C309   C311    1.393   .     A
C309   H319    1.075   .     S
C310   H320    1.075   .     S
C310   C312    1.393   .     A
C311   N337    1.438   .     S
C311   C935    1.406   1_554 S
C312   N340    1.438   .     S
C312   C936    1.406   .     S
H315   C370    1.083   .     S
C321   H323    1.084   .     S
C321   C398    1.399   .     S
C322   H324    1.084   .     S
C322   C536    1.385   .     S
C325   C327    1.407   .     A
C325   Cl343   1.764   .     S
C325   C531    1.385   .     S
C326   C328    1.407   .     A
C326   Cl344   1.764   .     S
C327   C392    1.399   .     S
C329   C333    1.417   .     A
C329   N336    1.362   .     A
C329   H331    1.082   .     S
C330   H332    1.082   .     S
C330   N335    1.362   .     A
C330   C334    1.417   .     A
C333   N345    1.425   .     S
C333   N335    1.376   .     A
C334   N336    1.376   .     A
C334   N348    1.425   .     S
N337   O338    1.302   .     A
N337   O339    1.301   .     A
N340   O342    1.302   .     A
N340   O341    1.301   .     A
N345   O347    1.300   .     A
N345   O346    1.300   .     A
N348   O350    1.300   .     A
N348   O349    1.300   .     A
O351   C355    1.292   .     A
O351   Cu363   1.961   .     S
O352   C356    1.292   .     A
O352   Cu364   1.961   .     S
O353   Cu364   1.957   .     S
O353   C215    1.293   1_655 S
O354   Cu363   1.957   .     S
C355   C398    1.446   .     S
C356   C397    1.446   .     S
C356   O214    1.293   1_655 S
O357   Cu363   1.953   .     S
O358   Cu364   1.953   .     S
O358   C222    1.299   1_655 S
O359   Cu364   1.937   .     S
O359   C361    1.295   .     A
O360   C362    1.295   .     A
O360   Cu363   1.937   .     S
C361   C365    1.465   .     S
C361   O217    1.299   1_655 S
C362   C366    1.465   .     S
Cu363  N405    2.018   .     S
Cu364  N406    2.018   .     S
Cu364  Cu223   2.686   1_655 S
C365   C371    1.396   .     A
C365   C369    1.393   .     A
C366   C370    1.393   .     A
C366   C372    1.396   .     A
C367   C375    1.412   .     A
C367   C369    1.390   .     A
C367   H387    1.080   .     S
C368   H388    1.080   .     S
C368   C370    1.390   .     A
C368   C376    1.412   .     A
C369   H246    1.083   1_655 S
C371   C373    1.410   .     A
C371   H384    1.074   .     S
C372   C374    1.410   .     A
C372   H383    1.074   .     S
C373   C377    1.431   .     A
C373   C375    1.425   .     A
C374   C376    1.425   .     A
C374   C378    1.431   .     A
C375   C1011   1.406   .     S
C376   C1012   1.406   1_554 S
C377   C380    1.415   .     A
C377   C1008   1.421   .     S
C378   C379    1.415   .     A
C378   C1007   1.421   1_554 S
C379   C381    1.393   .     A
C379   H389    1.075   .     S
C380   H390    1.075   .     S
C380   C382    1.393   .     A
C381   N407    1.438   .     S
C381   C1005   1.406   1_554 S
C382   N410    1.438   .     S
C382   C1006   1.406   .     S
H385   C230    1.083   1_655 S
C391   H393    1.084   .     S
C391   C258    1.399   1_655 S
C392   H394    1.084   .     S
C392   C606    1.385   .     S
C395   C397    1.407   .     A
C395   Cl413   1.764   .     S
C395   C601    1.385   .     S
C396   C398    1.407   .     A
C396   Cl414   1.764   .     S
C397   C252    1.399   1_655 S
C399   C403    1.417   .     A
C399   N406    1.362   .     A
C399   H401    1.082   .     S
C400   H402    1.082   .     S
C400   N405    1.362   .     A
C400   C404    1.417   .     A
C403   N415    1.425   .     S
C403   N405    1.376   .     A
C404   N406    1.376   .     A
C404   N418    1.425   .     S
N407   O408    1.302   .     A
N407   O409    1.301   .     A
N410   O412    1.302   .     A
N410   O411    1.301   .     A
N415   O417    1.300   .     A
N415   O416    1.300   .     A
N418   O420    1.300   .     A
N418   O419    1.300   .     A
O421   C425    1.292   .     A
O421   Cu433   1.961   .     S
O422   C426    1.292   .     A
O422   Cu434   1.961   .     S
O423   Cu434   1.957   .     S
O423   C495    1.293   .     S
O424   Cu433   1.957   .     S
O424   C566    1.293   1_455 S
C425   C468    1.446   .     S
C425   O563    1.293   1_455 S
C426   C467    1.446   .     S
C426   O494    1.293   .     S
O427   Cu433   1.953   .     S
O427   C571    1.299   1_455 S
O428   Cu434   1.953   .     S
O428   C502    1.299   .     S
O429   Cu434   1.937   .     S
O429   C431    1.295   .     A
O430   C432    1.295   .     A
O430   Cu433   1.937   .     S
C431   C435    1.465   .     S
C431   O497    1.299   .     S
C432   C436    1.465   .     S
C432   O568    1.299   1_455 S
Cu433  N475    2.018   .     S
Cu433  Cu574   2.686   1_455 S
Cu434  N476    2.018   .     S
Cu434  Cu503   2.686   .     S
C435   C441    1.396   .     A
C435   C439    1.393   .     A
C436   C440    1.393   .     A
C436   C442    1.396   .     A
C437   C445    1.412   .     A
C437   C439    1.390   .     A
C437   H457    1.080   .     S
C438   H458    1.080   .     S
C438   C440    1.390   .     A
C438   C446    1.412   .     A
C439   H526    1.083   .     S
C440   H595    1.083   1_455 S
C441   C443    1.410   .     A
C441   H454    1.074   .     S
C442   C444    1.410   .     A
C442   H453    1.074   .     S
C443   C447    1.431   .     A
C443   C445    1.425   .     A
C444   C446    1.425   .     A
C444   C448    1.431   .     A
C445   C1081   1.406   .     S
C446   C1082   1.406   1_554 S
C447   C450    1.415   .     A
C447   C1078   1.421   .     S
C448   C449    1.415   .     A
C448   C1077   1.421   1_554 S
C449   C451    1.393   .     A
C449   H459    1.075   .     S
C450   H460    1.075   .     S
C450   C452    1.393   .     A
C451   N477    1.438   .     S
C451   C1075   1.406   1_554 S
C452   N480    1.438   .     S
C452   C1076   1.406   .     S
H455   C510    1.083   .     S
H456   C579    1.083   1_455 S
C461   H463    1.084   .     S
C461   C538    1.399   .     S
C462   H464    1.084   .     S
C462   C46     1.385   1_565 S
C462   C607    1.399   1_455 S
C465   C467    1.407   .     A
C465   Cl483   1.764   .     S
C465   C41     1.385   1_565 S
C466   C468    1.407   .     A
C466   Cl484   1.764   .     S
C467   C532    1.399   .     S
C468   C601    1.399   1_455 S
C469   C473    1.417   .     A
C469   N476    1.362   .     A
C469   H471    1.082   .     S
C470   H472    1.082   .     S
C470   N475    1.362   .     A
C470   C474    1.417   .     A
C473   N485    1.425   .     S
C473   N475    1.376   .     A
C474   N476    1.376   .     A
C474   N488    1.425   .     S
N477   O478    1.302   .     A
N477   O479    1.301   .     A
N480   O482    1.302   .     A
N480   O481    1.301   .     A
N485   O487    1.300   .     A
N485   O486    1.300   .     A
N488   O490    1.300   .     A
N488   O489    1.300   .     A
O491   C495    1.292   .     A
O491   Cu503   1.961   .     S
O492   C496    1.292   .     A
O492   Cu504   1.961   .     S
O493   Cu504   1.957   .     S
O493   C565    1.293   .     S
O494   Cu503   1.957   .     S
C495   C538    1.446   .     S
C496   C537    1.446   .     S
C496   O564    1.293   .     S
O497   Cu503   1.953   .     S
O498   Cu504   1.953   .     S
O498   C572    1.299   .     S
O499   Cu504   1.937   .     S
O499   C501    1.295   .     A
O500   C502    1.295   .     A
O500   Cu503   1.937   .     S
C501   C505    1.465   .     S
C501   O567    1.299   .     S
C502   C506    1.465   .     S
Cu503  N545    2.018   .     S
Cu504  N546    2.018   .     S
Cu504  Cu573   2.686   .     S
C505   C511    1.396   .     A
C505   C509    1.393   .     A
C506   C510    1.393   .     A
C506   C512    1.396   .     A
C507   C515    1.412   .     A
C507   C509    1.390   .     A
C507   H527    1.080   .     S
C508   H528    1.080   .     S
C508   C510    1.390   .     A
C508   C516    1.412   .     A
C509   H596    1.083   .     S
C511   C513    1.410   .     A
C511   H524    1.074   .     S
C512   C514    1.410   .     A
C512   H523    1.074   .     S
C513   C517    1.431   .     A
C513   C515    1.425   .     A
C514   C516    1.425   .     A
C514   C518    1.431   .     A
C515   C1151   1.406   .     S
C516   C1152   1.406   1_554 S
C517   C520    1.415   .     A
C517   C1148   1.421   .     S
C518   C519    1.415   .     A
C518   C1147   1.421   1_554 S
C519   C521    1.393   .     A
C519   H529    1.075   .     S
C520   H530    1.075   .     S
C520   C522    1.393   .     A
C521   N547    1.438   .     S
C521   C1145   1.406   1_554 S
C522   N550    1.438   .     S
C522   C1146   1.406   .     S
H525   C580    1.083   .     S
C531   H533    1.084   .     S
C531   C608    1.399   .     S
C532   H534    1.084   .     S
C532   C116    1.385   1_565 S
C535   C537    1.407   .     A
C535   Cl553   1.764   .     S
C535   C111    1.385   1_565 S
C536   C538    1.407   .     A
C536   Cl554   1.764   .     S
C537   C602    1.399   .     S
C539   C543    1.417   .     A
C539   N546    1.362   .     A
C539   H541    1.082   .     S
C540   H542    1.082   .     S
C540   N545    1.362   .     A
C540   C544    1.417   .     A
C543   N555    1.425   .     S
C543   N545    1.376   .     A
C544   N546    1.376   .     A
C544   N558    1.425   .     S
N547   O548    1.302   .     A
N547   O549    1.301   .     A
N550   O552    1.302   .     A
N550   O551    1.301   .     A
N555   O557    1.300   .     A
N555   O556    1.300   .     A
N558   O560    1.300   .     A
N558   O559    1.300   .     A
O561   C565    1.292   .     A
O561   Cu573   1.961   .     S
O562   C566    1.292   .     A
O562   Cu574   1.961   .     S
O563   Cu574   1.957   .     S
O563   C425    1.293   1_655 S
O564   Cu573   1.957   .     S
C565   C608    1.446   .     S
C566   C607    1.446   .     S
C566   O424    1.293   1_655 S
O567   Cu573   1.953   .     S
O568   Cu574   1.953   .     S
O568   C432    1.299   1_655 S
O569   Cu574   1.937   .     S
O569   C571    1.295   .     A
O570   C572    1.295   .     A
O570   Cu573   1.937   .     S
C571   C575    1.465   .     S
C571   O427    1.299   1_655 S
C572   C576    1.465   .     S
Cu573  N615    2.018   .     S
Cu574  N616    2.018   .     S
Cu574  Cu433   2.686   1_655 S
C575   C581    1.396   .     A
C575   C579    1.393   .     A
C576   C580    1.393   .     A
C576   C582    1.396   .     A
C577   C585    1.412   .     A
C577   C579    1.390   .     A
C577   H597    1.080   .     S
C578   H598    1.080   .     S
C578   C580    1.390   .     A
C578   C586    1.412   .     A
C579   H456    1.083   1_655 S
C581   C583    1.410   .     A
C581   H594    1.074   .     S
C582   C584    1.410   .     A
C582   H593    1.074   .     S
C583   C587    1.431   .     A
C583   C585    1.425   .     A
C584   C586    1.425   .     A
C584   C588    1.431   .     A
C585   C1221   1.406   .     S
C586   C1222   1.406   1_554 S
C587   C590    1.415   .     A
C587   C1218   1.421   .     S
C588   C589    1.415   .     A
C588   C1217   1.421   1_554 S
C589   C591    1.393   .     A
C589   H599    1.075   .     S
C590   H600    1.075   .     S
C590   C592    1.393   .     A
C591   N617    1.438   .     S
C591   C1215   1.406   1_554 S
C592   N620    1.438   .     S
C592   C1216   1.406   .     S
H595   C440    1.083   1_655 S
C601   H603    1.084   .     S
C601   C468    1.399   1_655 S
C602   H604    1.084   .     S
C602   C186    1.385   1_565 S
C605   C607    1.407   .     A
C605   Cl623   1.764   .     S
C605   C181    1.385   1_565 S
C606   C608    1.407   .     A
C606   Cl624   1.764   .     S
C607   C462    1.399   1_655 S
C609   C613    1.417   .     A
C609   N616    1.362   .     A
C609   H611    1.082   .     S
C610   H612    1.082   .     S
C610   N615    1.362   .     A
C610   C614    1.417   .     A
C613   N625    1.425   .     S
C613   N615    1.376   .     A
C614   N616    1.376   .     A
C614   N628    1.425   .     S
N617   O618    1.302   .     A
N617   O619    1.301   .     A
N620   O622    1.302   .     A
N620   O621    1.301   .     A
N625   O627    1.300   .     A
N625   O626    1.300   .     A
N628   O630    1.300   .     A
N628   O629    1.300   .     A
O631   C635    1.292   .     A
O631   Cu643   1.961   .     S
O632   C636    1.292   .     A
O632   Cu644   1.961   .     S
O633   Cu644   1.957   .     S
O633   C705    1.293   .     S
O634   Cu643   1.957   .     S
O634   C776    1.293   1_455 S
C635   C678    1.446   .     S
C635   O773    1.293   1_455 S
C636   C677    1.446   .     S
C636   O704    1.293   .     S
O637   Cu643   1.953   .     S
O637   C781    1.299   1_455 S
O638   Cu644   1.953   .     S
O638   C712    1.299   .     S
O639   Cu644   1.937   .     S
O639   C641    1.295   .     A
O640   C642    1.295   .     A
O640   Cu643   1.937   .     S
C641   C645    1.465   .     S
C641   O707    1.299   .     S
C642   C646    1.465   .     S
C642   O778    1.299   1_455 S
Cu643  N685    2.018   .     S
Cu643  Cu784   2.686   1_455 S
Cu644  N686    2.018   .     S
Cu644  Cu713   2.686   .     S
C645   C651    1.396   .     A
C645   C649    1.393   .     A
C646   C650    1.393   .     A
C646   C652    1.396   .     A
C647   C655    1.412   .     A
C647   C649    1.390   .     A
C647   H667    1.080   .     S
C648   H668    1.080   .     S
C648   C650    1.390   .     A
C648   C656    1.412   .     A
C649   H736    1.083   .     S
C650   H805    1.083   1_455 S
C651   C653    1.410   .     A
C651   H664    1.074   .     S
C652   C654    1.410   .     A
C652   H663    1.074   .     S
C653   C657    1.431   .     A
C653   C655    1.425   .     A
C654   C656    1.425   .     A
C654   C658    1.431   .     A
C655   C31     1.406   1_556 S
C657   C660    1.415   .     A
C657   C28     1.421   1_556 S
C658   C659    1.415   .     A
C659   C661    1.393   .     A
C659   H669    1.075   .     S
C660   H670    1.075   .     S
C660   C662    1.393   .     A
C661   N687    1.438   .     S
C662   N690    1.438   .     S
C662   C26     1.406   1_556 S
H665   C720    1.083   .     S
H666   C789    1.083   1_455 S
C671   H673    1.084   .     S
C671   C1095   1.385   1_545 S
C671   C748    1.399   .     S
C672   H674    1.084   .     S
C672   C886    1.385   .     S
C672   C817    1.399   1_455 S
C675   C677    1.407   .     A
C675   Cl693   1.764   .     S
C675   C881    1.385   .     S
C676   C678    1.407   .     A
C676   Cl694   1.764   .     S
C676   C1092   1.385   1_545 S
C677   C742    1.399   .     S
C678   C811    1.399   1_455 S
C679   C683    1.417   .     A
C679   N686    1.362   .     A
C679   H681    1.082   .     S
C680   H682    1.082   .     S
C680   N685    1.362   .     A
C680   C684    1.417   .     A
C683   N695    1.425   .     S
C683   N685    1.376   .     A
C684   N686    1.376   .     A
C684   N698    1.425   .     S
N687   O688    1.302   .     A
N687   O689    1.301   .     A
N690   O692    1.302   .     A
N690   O691    1.301   .     A
N695   O697    1.300   .     A
N695   O696    1.300   .     A
N698   O700    1.300   .     A
N698   O699    1.300   .     A
O701   C705    1.292   .     A
O701   Cu713   1.961   .     S
O702   C706    1.292   .     A
O702   Cu714   1.961   .     S
O703   Cu714   1.957   .     S
O703   C775    1.293   .     S
O704   Cu713   1.957   .     S
C705   C748    1.446   .     S
C706   C747    1.446   .     S
C706   O774    1.293   .     S
O707   Cu713   1.953   .     S
O708   Cu714   1.953   .     S
O708   C782    1.299   .     S
O709   Cu714   1.937   .     S
O709   C711    1.295   .     A
O710   C712    1.295   .     A
O710   Cu713   1.937   .     S
C711   C715    1.465   .     S
C711   O777    1.299   .     S
C712   C716    1.465   .     S
Cu713  N755    2.018   .     S
Cu714  N756    2.018   .     S
Cu714  Cu783   2.686   .     S
C715   C721    1.396   .     A
C715   C719    1.393   .     A
C716   C720    1.393   .     A
C716   C722    1.396   .     A
C717   C725    1.412   .     A
C717   C719    1.390   .     A
C717   H737    1.080   .     S
C718   H738    1.080   .     S
C718   C720    1.390   .     A
C718   C726    1.412   .     A
C719   H806    1.083   .     S
C721   C723    1.410   .     A
C721   H734    1.074   .     S
C722   C724    1.410   .     A
C722   H733    1.074   .     S
C723   C727    1.431   .     A
C723   C725    1.425   .     A
C724   C726    1.425   .     A
C724   C728    1.431   .     A
C725   C101    1.406   1_556 S
C727   C730    1.415   .     A
C727   C98     1.421   1_556 S
C728   C729    1.415   .     A
C729   C731    1.393   .     A
C729   H739    1.075   .     S
C730   H740    1.075   .     S
C730   C732    1.393   .     A
C731   N757    1.438   .     S
C732   N760    1.438   .     S
C732   C96     1.406   1_556 S
H735   C790    1.083   .     S
C741   H743    1.084   .     S
C741   C1165   1.385   1_545 S
C741   C818    1.399   .     S
C742   H744    1.084   .     S
C742   C956    1.385   .     S
C745   C747    1.407   .     A
C745   Cl763   1.764   .     S
C745   C951    1.385   .     S
C746   C748    1.407   .     A
C746   Cl764   1.764   .     S
C746   C1162   1.385   1_545 S
C747   C812    1.399   .     S
C749   C753    1.417   .     A
C749   N756    1.362   .     A
C749   H751    1.082   .     S
C750   H752    1.082   .     S
C750   N755    1.362   .     A
C750   C754    1.417   .     A
C753   N765    1.425   .     S
C753   N755    1.376   .     A
C754   N756    1.376   .     A
C754   N768    1.425   .     S
N757   O758    1.302   .     A
N757   O759    1.301   .     A
N760   O762    1.302   .     A
N760   O761    1.301   .     A
N765   O767    1.300   .     A
N765   O766    1.300   .     A
N768   O770    1.300   .     A
N768   O769    1.300   .     A
O771   C775    1.292   .     A
O771   Cu783   1.961   .     S
O772   C776    1.292   .     A
O772   Cu784   1.961   .     S
O773   Cu784   1.957   .     S
O773   C635    1.293   1_655 S
O774   Cu783   1.957   .     S
C775   C818    1.446   .     S
C776   C817    1.446   .     S
C776   O634    1.293   1_655 S
O777   Cu783   1.953   .     S
O778   Cu784   1.953   .     S
O778   C642    1.299   1_655 S
O779   Cu784   1.937   .     S
O779   C781    1.295   .     A
O780   C782    1.295   .     A
O780   Cu783   1.937   .     S
C781   C785    1.465   .     S
C781   O637    1.299   1_655 S
C782   C786    1.465   .     S
Cu783  N825    2.018   .     S
Cu784  N826    2.018   .     S
Cu784  Cu643   2.686   1_655 S
C785   C791    1.396   .     A
C785   C789    1.393   .     A
C786   C790    1.393   .     A
C786   C792    1.396   .     A
C787   C795    1.412   .     A
C787   C789    1.390   .     A
C787   H807    1.080   .     S
C788   H808    1.080   .     S
C788   C790    1.390   .     A
C788   C796    1.412   .     A
C789   H666    1.083   1_655 S
C791   C793    1.410   .     A
C791   H804    1.074   .     S
C792   C794    1.410   .     A
C792   H803    1.074   .     S
C793   C797    1.431   .     A
C793   C795    1.425   .     A
C794   C796    1.425   .     A
C794   C798    1.431   .     A
C795   C171    1.406   1_556 S
C797   C800    1.415   .     A
C797   C168    1.421   1_556 S
C798   C799    1.415   .     A
C799   C801    1.393   .     A
C799   H809    1.075   .     S
C800   H810    1.075   .     S
C800   C802    1.393   .     A
C801   N827    1.438   .     S
C802   N830    1.438   .     S
C802   C166    1.406   1_556 S
H805   C650    1.083   1_655 S
C811   H813    1.084   .     S
C811   C1235   1.385   1_545 S
C811   C678    1.399   1_655 S
C812   H814    1.084   .     S
C812   C1026   1.385   .     S
C815   C817    1.407   .     A
C815   Cl833   1.764   .     S
C815   C1021   1.385   .     S
C816   C818    1.407   .     A
C816   Cl834   1.764   .     S
C816   C1232   1.385   1_545 S
C817   C672    1.399   1_655 S
C819   C823    1.417   .     A
C819   N826    1.362   .     A
C819   H821    1.082   .     S
C820   H822    1.082   .     S
C820   N825    1.362   .     A
C820   C824    1.417   .     A
C823   N835    1.425   .     S
C823   N825    1.376   .     A
C824   N826    1.376   .     A
C824   N838    1.425   .     S
N827   O828    1.302   .     A
N827   O829    1.301   .     A
N830   O832    1.302   .     A
N830   O831    1.301   .     A
N835   O837    1.300   .     A
N835   O836    1.300   .     A
N838   O840    1.300   .     A
N838   O839    1.300   .     A
O841   C845    1.292   .     A
O841   Cu853   1.961   .     S
O842   C846    1.292   .     A
O842   Cu854   1.961   .     S
O843   Cu854   1.957   .     S
O843   C915    1.293   .     S
O844   Cu853   1.957   .     S
O844   C986    1.293   1_455 S
C845   C888    1.446   .     S
C845   O983    1.293   1_455 S
C846   C887    1.446   .     S
C846   O914    1.293   .     S
O847   Cu853   1.953   .     S
O847   C991    1.299   1_455 S
O848   Cu854   1.953   .     S
O848   C922    1.299   .     S
O849   Cu854   1.937   .     S
O849   C851    1.295   .     A
O850   C852    1.295   .     A
O850   Cu853   1.937   .     S
C851   C855    1.465   .     S
C851   O917    1.299   .     S
C852   C856    1.465   .     S
C852   O988    1.299   1_455 S
Cu853  N895    2.018   .     S
Cu853  Cu994   2.686   1_455 S
Cu854  N896    2.018   .     S
Cu854  Cu923   2.686   .     S
C855   C861    1.396   .     A
C855   C859    1.393   .     A
C856   C860    1.393   .     A
C856   C862    1.396   .     A
C857   C865    1.412   .     A
C857   C859    1.390   .     A
C857   H877    1.080   .     S
C858   H878    1.080   .     S
C858   C860    1.390   .     A
C858   C866    1.412   .     A
C859   H946    1.083   .     S
C860   H1015   1.083   1_455 S
C861   C863    1.410   .     A
C861   H874    1.074   .     S
C862   C864    1.410   .     A
C862   H873    1.074   .     S
C863   C867    1.431   .     A
C863   C865    1.425   .     A
C864   C866    1.425   .     A
C864   C868    1.431   .     A
C865   C241    1.406   1_556 S
C867   C870    1.415   .     A
C867   C238    1.421   1_556 S
C868   C869    1.415   .     A
C869   C871    1.393   .     A
C869   H879    1.075   .     S
C870   H880    1.075   .     S
C870   C872    1.393   .     A
C871   N897    1.438   .     S
C872   N900    1.438   .     S
C872   C236    1.406   1_556 S
H875   C930    1.083   .     S
H876   C999    1.083   1_455 S
C881   H883    1.084   .     S
C881   C958    1.399   .     S
C882   H884    1.084   .     S
C882   C1096   1.385   .     S
C882   C1027   1.399   1_455 S
C885   C887    1.407   .     A
C885   Cl903   1.764   .     S
C885   C1091   1.385   .     S
C886   C888    1.407   .     A
C886   Cl904   1.764   .     S
C887   C952    1.399   .     S
C888   C1021   1.399   1_455 S
C889   C893    1.417   .     A
C889   N896    1.362   .     A
C889   H891    1.082   .     S
C890   H892    1.082   .     S
C890   N895    1.362   .     A
C890   C894    1.417   .     A
C893   N905    1.425   .     S
C893   N895    1.376   .     A
C894   N896    1.376   .     A
C894   N908    1.425   .     S
N897   O898    1.302   .     A
N897   O899    1.301   .     A
N900   O902    1.302   .     A
N900   O901    1.301   .     A
N905   O907    1.300   .     A
N905   O906    1.300   .     A
N908   O910    1.300   .     A
N908   O909    1.300   .     A
O911   C915    1.292   .     A
O911   Cu923   1.961   .     S
O912   C916    1.292   .     A
O912   Cu924   1.961   .     S
O913   Cu924   1.957   .     S
O913   C985    1.293   .     S
O914   Cu923   1.957   .     S
C915   C958    1.446   .     S
C916   C957    1.446   .     S
C916   O984    1.293   .     S
O917   Cu923   1.953   .     S
O918   Cu924   1.953   .     S
O918   C992    1.299   .     S
O919   Cu924   1.937   .     S
O919   C921    1.295   .     A
O920   C922    1.295   .     A
O920   Cu923   1.937   .     S
C921   C925    1.465   .     S
C921   O987    1.299   .     S
C922   C926    1.465   .     S
Cu923  N965    2.018   .     S
Cu924  N966    2.018   .     S
Cu924  Cu993   2.686   .     S
C925   C931    1.396   .     A
C925   C929    1.393   .     A
C926   C930    1.393   .     A
C926   C932    1.396   .     A
C927   C935    1.412   .     A
C927   C929    1.390   .     A
C927   H947    1.080   .     S
C928   H948    1.080   .     S
C928   C930    1.390   .     A
C928   C936    1.412   .     A
C929   H1016   1.083   .     S
C931   C933    1.410   .     A
C931   H944    1.074   .     S
C932   C934    1.410   .     A
C932   H943    1.074   .     S
C933   C937    1.431   .     A
C933   C935    1.425   .     A
C934   C936    1.425   .     A
C934   C938    1.431   .     A
C935   C311    1.406   1_556 S
C937   C940    1.415   .     A
C937   C308    1.421   1_556 S
C938   C939    1.415   .     A
C939   C941    1.393   .     A
C939   H949    1.075   .     S
C940   H950    1.075   .     S
C940   C942    1.393   .     A
C941   N967    1.438   .     S
C942   N970    1.438   .     S
C942   C306    1.406   1_556 S
H945   C1000   1.083   .     S
C951   H953    1.084   .     S
C951   C1028   1.399   .     S
C952   H954    1.084   .     S
C952   C1166   1.385   .     S
C955   C957    1.407   .     A
C955   Cl973   1.764   .     S
C955   C1161   1.385   .     S
C956   C958    1.407   .     A
C956   Cl974   1.764   .     S
C957   C1022   1.399   .     S
C959   C963    1.417   .     A
C959   N966    1.362   .     A
C959   H961    1.082   .     S
C960   H962    1.082   .     S
C960   N965    1.362   .     A
C960   C964    1.417   .     A
C963   N975    1.425   .     S
C963   N965    1.376   .     A
C964   N966    1.376   .     A
C964   N978    1.425   .     S
N967   O968    1.302   .     A
N967   O969    1.301   .     A
N970   O972    1.302   .     A
N970   O971    1.301   .     A
N975   O977    1.300   .     A
N975   O976    1.300   .     A
N978   O980    1.300   .     A
N978   O979    1.300   .     A
O981   C985    1.292   .     A
O981   Cu993   1.961   .     S
O982   C986    1.292   .     A
O982   Cu994   1.961   .     S
O983   Cu994   1.957   .     S
O983   C845    1.293   1_655 S
O984   Cu993   1.957   .     S
C985   C1028   1.446   .     S
C986   C1027   1.446   .     S
C986   O844    1.293   1_655 S
O987   Cu993   1.953   .     S
O988   Cu994   1.953   .     S
O988   C852    1.299   1_655 S
O989   Cu994   1.937   .     S
O989   C991    1.295   .     A
O990   C992    1.295   .     A
O990   Cu993   1.937   .     S
C991   C995    1.465   .     S
C991   O847    1.299   1_655 S
C992   C996    1.465   .     S
Cu993  N1035   2.018   .     S
Cu994  N1036   2.018   .     S
Cu994  Cu853   2.686   1_655 S
C995   C1001   1.396   .     A
C995   C999    1.393   .     A
C996   C1000   1.393   .     A
C996   C1002   1.396   .     A
C997   C1005   1.412   .     A
C997   C999    1.390   .     A
C997   H1017   1.080   .     S
C998   H1018   1.080   .     S
C998   C1000   1.390   .     A
C998   C1006   1.412   .     A
C999   H876    1.083   1_655 S
C1001  C1003   1.410   .     A
C1001  H1014   1.074   .     S
C1002  C1004   1.410   .     A
C1002  H1013   1.074   .     S
C1003  C1007   1.431   .     A
C1003  C1005   1.425   .     A
C1004  C1006   1.425   .     A
C1004  C1008   1.431   .     A
C1005  C381    1.406   1_556 S
C1007  C1010   1.415   .     A
C1007  C378    1.421   1_556 S
C1008  C1009   1.415   .     A
C1009  C1011   1.393   .     A
C1009  H1019   1.075   .     S
C1010  H1020   1.075   .     S
C1010  C1012   1.393   .     A
C1011  N1037   1.438   .     S
C1012  N1040   1.438   .     S
C1012  C376    1.406   1_556 S
H1015  C860    1.083   1_655 S
C1021  H1023   1.084   .     S
C1021  C888    1.399   1_655 S
C1022  H1024   1.084   .     S
C1022  C1236   1.385   .     S
C1025  C1027   1.407   .     A
C1025  Cl1043  1.764   .     S
C1025  C1231   1.385   .     S
C1026  C1028   1.407   .     A
C1026  Cl1044  1.764   .     S
C1027  C882    1.399   1_655 S
C1029  C1033   1.417   .     A
C1029  N1036   1.362   .     A
C1029  H1031   1.082   .     S
C1030  H1032   1.082   .     S
C1030  N1035   1.362   .     A
C1030  C1034   1.417   .     A
C1033  N1045   1.425   .     S
C1033  N1035   1.376   .     A
C1034  N1036   1.376   .     A
C1034  N1048   1.425   .     S
N1037  O1038   1.302   .     A
N1037  O1039   1.301   .     A
N1040  O1042   1.302   .     A
N1040  O1041   1.301   .     A
N1045  O1047   1.300   .     A
N1045  O1046   1.300   .     A
N1048  O1050   1.300   .     A
N1048  O1049   1.300   .     A
O1051  C1055   1.292   .     A
O1051  Cu1063  1.961   .     S
O1052  C1056   1.292   .     A
O1052  Cu1064  1.961   .     S
O1053  Cu1064  1.957   .     S
O1053  C1125   1.293   .     S
O1054  Cu1063  1.957   .     S
O1054  C1196   1.293   1_455 S
C1055  C1098   1.446   .     S
C1055  O1193   1.293   1_455 S
C1056  C1097   1.446   .     S
C1056  O1124   1.293   .     S
O1057  Cu1063  1.953   .     S
O1057  C1201   1.299   1_455 S
O1058  Cu1064  1.953   .     S
O1058  C1132   1.299   .     S
O1059  Cu1064  1.937   .     S
O1059  C1061   1.295   .     A
O1060  C1062   1.295   .     A
O1060  Cu1063  1.937   .     S
C1061  C1065   1.465   .     S
C1061  O1127   1.299   .     S
C1062  C1066   1.465   .     S
C1062  O1198   1.299   1_455 S
Cu1063 N1105   2.018   .     S
Cu1063 Cu1204  2.686   1_455 S
Cu1064 N1106   2.018   .     S
Cu1064 Cu1133  2.686   .     S
C1065  C1071   1.396   .     A
C1065  C1069   1.393   .     A
C1066  C1070   1.393   .     A
C1066  C1072   1.396   .     A
C1067  C1075   1.412   .     A
C1067  C1069   1.390   .     A
C1067  H1087   1.080   .     S
C1068  H1088   1.080   .     S
C1068  C1070   1.390   .     A
C1068  C1076   1.412   .     A
C1069  H1156   1.083   .     S
C1070  H1225   1.083   1_455 S
C1071  C1073   1.410   .     A
C1071  H1084   1.074   .     S
C1072  C1074   1.410   .     A
C1072  H1083   1.074   .     S
C1073  C1077   1.431   .     A
C1073  C1075   1.425   .     A
C1074  C1076   1.425   .     A
C1074  C1078   1.431   .     A
C1075  C451    1.406   1_556 S
C1077  C1080   1.415   .     A
C1077  C448    1.421   1_556 S
C1078  C1079   1.415   .     A
C1079  C1081   1.393   .     A
C1079  H1089   1.075   .     S
C1080  H1090   1.075   .     S
C1080  C1082   1.393   .     A
C1081  N1107   1.438   .     S
C1082  N1110   1.438   .     S
C1082  C446    1.406   1_556 S
H1085  C1140   1.083   .     S
H1086  C1209   1.083   1_455 S
C1091  H1093   1.084   .     S
C1091  C1168   1.399   .     S
C1092  H1094   1.084   .     S
C1092  C676    1.385   1_565 S
C1092  C1237   1.399   1_455 S
C1095  C1097   1.407   .     A
C1095  Cl1113  1.764   .     S
C1095  C671    1.385   1_565 S
C1096  C1098   1.407   .     A
C1096  Cl1114  1.764   .     S
C1097  C1162   1.399   .     S
C1098  C1231   1.399   1_455 S
C1099  C1103   1.417   .     A
C1099  N1106   1.362   .     A
C1099  H1101   1.082   .     S
C1100  H1102   1.082   .     S
C1100  N1105   1.362   .     A
C1100  C1104   1.417   .     A
C1103  N1115   1.425   .     S
C1103  N1105   1.376   .     A
C1104  N1106   1.376   .     A
C1104  N1118   1.425   .     S
N1107  O1108   1.302   .     A
N1107  O1109   1.301   .     A
N1110  O1112   1.302   .     A
N1110  O1111   1.301   .     A
N1115  O1117   1.300   .     A
N1115  O1116   1.300   .     A
N1118  O1120   1.300   .     A
N1118  O1119   1.300   .     A
O1121  C1125   1.292   .     A
O1121  Cu1133  1.961   .     S
O1122  C1126   1.292   .     A
O1122  Cu1134  1.961   .     S
O1123  Cu1134  1.957   .     S
O1123  C1195   1.293   .     S
O1124  Cu1133  1.957   .     S
C1125  C1168   1.446   .     S
C1126  C1167   1.446   .     S
C1126  O1194   1.293   .     S
O1127  Cu1133  1.953   .     S
O1128  Cu1134  1.953   .     S
O1128  C1202   1.299   .     S
O1129  Cu1134  1.937   .     S
O1129  C1131   1.295   .     A
O1130  C1132   1.295   .     A
O1130  Cu1133  1.937   .     S
C1131  C1135   1.465   .     S
C1131  O1197   1.299   .     S
C1132  C1136   1.465   .     S
Cu1133 N1175   2.018   .     S
Cu1134 N1176   2.018   .     S
Cu1134 Cu1203  2.686   .     S
C1135  C1141   1.396   .     A
C1135  C1139   1.393   .     A
C1136  C1140   1.393   .     A
C1136  C1142   1.396   .     A
C1137  C1145   1.412   .     A
C1137  C1139   1.390   .     A
C1137  H1157   1.080   .     S
C1138  H1158   1.080   .     S
C1138  C1140   1.390   .     A
C1138  C1146   1.412   .     A
C1139  H1226   1.083   .     S
C1141  C1143   1.410   .     A
C1141  H1154   1.074   .     S
C1142  C1144   1.410   .     A
C1142  H1153   1.074   .     S
C1143  C1147   1.431   .     A
C1143  C1145   1.425   .     A
C1144  C1146   1.425   .     A
C1144  C1148   1.431   .     A
C1145  C521    1.406   1_556 S
C1147  C1150   1.415   .     A
C1147  C518    1.421   1_556 S
C1148  C1149   1.415   .     A
C1149  C1151   1.393   .     A
C1149  H1159   1.075   .     S
C1150  H1160   1.075   .     S
C1150  C1152   1.393   .     A
C1151  N1177   1.438   .     S
C1152  N1180   1.438   .     S
C1152  C516    1.406   1_556 S
H1155  C1210   1.083   .     S
C1161  H1163   1.084   .     S
C1161  C1238   1.399   .     S
C1162  H1164   1.084   .     S
C1162  C746    1.385   1_565 S
C1165  C1167   1.407   .     A
C1165  Cl1183  1.764   .     S
C1165  C741    1.385   1_565 S
C1166  C1168   1.407   .     A
C1166  Cl1184  1.764   .     S
C1167  C1232   1.399   .     S
C1169  C1173   1.417   .     A
C1169  N1176   1.362   .     A
C1169  H1171   1.082   .     S
C1170  H1172   1.082   .     S
C1170  N1175   1.362   .     A
C1170  C1174   1.417   .     A
C1173  N1185   1.425   .     S
C1173  N1175   1.376   .     A
C1174  N1176   1.376   .     A
C1174  N1188   1.425   .     S
N1177  O1178   1.302   .     A
N1177  O1179   1.301   .     A
N1180  O1182   1.302   .     A
N1180  O1181   1.301   .     A
N1185  O1187   1.300   .     A
N1185  O1186   1.300   .     A
N1188  O1190   1.300   .     A
N1188  O1189   1.300   .     A
O1191  C1195   1.292   .     A
O1191  Cu1203  1.961   .     S
O1192  C1196   1.292   .     A
O1192  Cu1204  1.961   .     S
O1193  Cu1204  1.957   .     S
O1193  C1055   1.293   1_655 S
O1194  Cu1203  1.957   .     S
C1195  C1238   1.446   .     S
C1196  C1237   1.446   .     S
C1196  O1054   1.293   1_655 S
O1197  Cu1203  1.953   .     S
O1198  Cu1204  1.953   .     S
O1198  C1062   1.299   1_655 S
O1199  Cu1204  1.937   .     S
O1199  C1201   1.295   .     A
O1200  C1202   1.295   .     A
O1200  Cu1203  1.937   .     S
C1201  C1205   1.465   .     S
C1201  O1057   1.299   1_655 S
C1202  C1206   1.465   .     S
Cu1203 N1245   2.018   .     S
Cu1204 N1246   2.018   .     S
Cu1204 Cu1063  2.686   1_655 S
C1205  C1211   1.396   .     A
C1205  C1209   1.393   .     A
C1206  C1210   1.393   .     A
C1206  C1212   1.396   .     A
C1207  C1215   1.412   .     A
C1207  C1209   1.390   .     A
C1207  H1227   1.080   .     S
C1208  H1228   1.080   .     S
C1208  C1210   1.390   .     A
C1208  C1216   1.412   .     A
C1209  H1086   1.083   1_655 S
C1211  C1213   1.410   .     A
C1211  H1224   1.074   .     S
C1212  C1214   1.410   .     A
C1212  H1223   1.074   .     S
C1213  C1217   1.431   .     A
C1213  C1215   1.425   .     A
C1214  C1216   1.425   .     A
C1214  C1218   1.431   .     A
C1215  C591    1.406   1_556 S
C1217  C1220   1.415   .     A
C1217  C588    1.421   1_556 S
C1218  C1219   1.415   .     A
C1219  C1221   1.393   .     A
C1219  H1229   1.075   .     S
C1220  H1230   1.075   .     S
C1220  C1222   1.393   .     A
C1221  N1247   1.438   .     S
C1222  N1250   1.438   .     S
C1222  C586    1.406   1_556 S
H1225  C1070   1.083   1_655 S
C1231  H1233   1.084   .     S
C1231  C1098   1.399   1_655 S
C1232  H1234   1.084   .     S
C1232  C816    1.385   1_565 S
C1235  C1237   1.407   .     A
C1235  Cl1253  1.764   .     S
C1235  C811    1.385   1_565 S
C1236  C1238   1.407   .     A
C1236  Cl1254  1.764   .     S
C1237  C1092   1.399   1_655 S
C1239  C1243   1.417   .     A
C1239  N1246   1.362   .     A
C1239  H1241   1.082   .     S
C1240  H1242   1.082   .     S
C1240  N1245   1.362   .     A
C1240  C1244   1.417   .     A
C1243  N1255   1.425   .     S
C1243  N1245   1.376   .     A
C1244  N1246   1.376   .     A
C1244  N1258   1.425   .     S
N1247  O1248   1.302   .     A
N1247  O1249   1.301   .     A
N1250  O1252   1.302   .     A
N1250  O1251   1.301   .     A
N1255  O1257   1.300   .     A
N1255  O1256   1.300   .     A
N1258  O1260   1.300   .     A
N1258  O1259   1.300   .     A
