data_str_m3_o2_o10_pcu_sym.108
_audit_creation_date              2020-01-03
_audit_creation_method            'Materials Studio'
_symmetry_space_group_name_H-M    'P1'
_symmetry_Int_Tables_number       1
_symmetry_cell_setting            triclinic
loop_
_symmetry_equiv_pos_as_xyz
  x,y,z
_cell_length_a                    25.9763
_cell_length_b                    29.8518
_cell_length_c                    28.6437
_cell_angle_alpha                 92.9464
_cell_angle_beta                  97.5180
_cell_angle_gamma                 91.3790
loop_
_atom_site_label
_atom_site_type_symbol
_atom_site_fract_x
_atom_site_fract_y
_atom_site_fract_z
_atom_site_U_iso_or_equiv
_atom_site_adp_type
_atom_site_occupancy
C1     C     0.16595   0.16386   0.24913   0.00000  Uiso   1.00
C2     C     0.17598   0.20868   0.44566   0.00000  Uiso   1.00
C3     C     0.17155   0.25103   0.02728   0.00000  Uiso   1.00
C4     C     0.17099   0.24866   0.47404   0.00000  Uiso   1.00
C5     C     0.06755   0.25013   0.23828   0.00000  Uiso   1.00
C6     C     0.26594   0.24942   0.26183   0.00000  Uiso   1.00
C7     C     0.01447   0.25848   0.23442   0.00000  Uiso   1.00
C8     C     0.31944   0.24114   0.26612   0.00000  Uiso   1.00
C9     C     0.18855   0.04811   0.28762   0.00000  Uiso   1.00
C10    C     0.19378   0.45344   0.22356   0.00000  Uiso   1.00
C11    C     0.19178   0.09439   0.28579   0.00000  Uiso   1.00
C12    C     0.16596   0.33597   0.25074   0.00000  Uiso   1.00
C13    C     0.19660   0.40732   0.22562   0.00000  Uiso   1.00
C14    C     0.16370   0.11561   0.24853   0.00000  Uiso   1.00
C15    C     0.16359   0.38387   0.25121   0.00000  Uiso   1.00
C16    C     0.12946   0.09098   0.21463   0.00000  Uiso   1.00
C17    C     0.12494   0.40567   0.27224   0.00000  Uiso   1.00
C18    C     0.12626   0.04486   0.21567   0.00000  Uiso   1.00
C19    C     0.12212   0.45174   0.27110   0.00000  Uiso   1.00
C20    C     0.15666   0.02356   0.25120   0.00000  Uiso   1.00
C21    C     0.15720   0.47550   0.24794   0.00000  Uiso   1.00
C22    C     0.13884   0.22126   0.04582   0.00000  Uiso   1.00
C23    C     0.16287   0.28772   0.45031   0.00000  Uiso   1.00
C24    C     0.13885   0.21866   0.09461   0.00000  Uiso   1.00
C25    C     0.16891   0.28910   0.40252   0.00000  Uiso   1.00
C26    C     0.19511   0.28270   0.10864   0.00000  Uiso   1.00
C27    C     0.17019   0.21023   0.39562   0.00000  Uiso   1.00
C28    C     0.20064   0.28296   0.05989   0.00000  Uiso   1.00
H29    H     0.10420   0.10715   0.18827   0.00000  Uiso   1.00
H30    H     0.22390   0.02772   0.13351   0.00000  Uiso   1.00
H31    H     0.21583   0.11400   0.31348   0.00000  Uiso   1.00
H32    H     0.22421   0.38956   0.20713   0.00000  Uiso   1.00
H33    H     0.11462   0.19824   0.02157   0.00000  Uiso   1.00
H34    H     0.15710   0.31850   0.47020   0.00000  Uiso   1.00
H35    H     0.04027   0.15723   0.14420   0.00000  Uiso   1.00
H36    H     0.25006   0.36593   0.34558   0.00000  Uiso   1.00
H37    H     0.29622   0.32639   0.48896   0.00000  Uiso   1.00
H38    H     0.22876   0.13622   0.03788   0.00000  Uiso   1.00
H39    H     0.09652   0.38704   0.28861   0.00000  Uiso   1.00
H40    H     0.10077   0.02563   0.18849   0.00000  Uiso   1.00
H41    H     0.09313   0.46901   0.28860   0.00000  Uiso   1.00
H42    H     0.21528   0.30812   0.13293   0.00000  Uiso   1.00
H43    H     0.17198   0.17939   0.37462   0.00000  Uiso   1.00
H44    H     0.05263   0.35022   0.20612   0.00000  Uiso   1.00
H45    H     0.30561   0.15227   0.34830   0.00000  Uiso   1.00
H46    H     0.20343   0.47557   0.38610   0.00000  Uiso   1.00
N47    N     0.16667   0.24999   0.12623   0.00000  Uiso   1.00
N48    N     0.16667   0.25001   0.37377   0.00000  Uiso   1.00
O49    O     0.16667   0.18453   0.28974   0.00000  Uiso   1.00
O50    O     0.28710   0.32824   0.20781   0.00000  Uiso   1.00
O51    O     0.04374   0.32896   0.17841   0.00000  Uiso   1.00
O52    O     0.04183   0.16699   0.28531   0.00000  Uiso   1.00
O53    O     0.03823   0.22316   0.35048   0.00000  Uiso   1.00
O54    O     0.29038   0.17183   0.32353   0.00000  Uiso   1.00
O55    O     0.25967   0.48837   0.31721   0.00000  Uiso   1.00
O56    O     0.25551   0.05617   0.36832   0.00000  Uiso   1.00
O57    O     0.18185   0.49525   0.36523   0.00000  Uiso   1.00
O58    O     0.26788   0.01738   0.22129   0.00000  Uiso   1.00
O59    O     0.27089   0.45033   0.16879   0.00000  Uiso   1.00
O60    O     0.16666   0.31546   0.21026   0.00000  Uiso   1.00
O61    O     0.19926   0.00762   0.14672   0.00000  Uiso   1.00
O62    O     0.07694   0.14569   0.06884   0.00000  Uiso   1.00
O63    O     0.15227   0.13796   0.12738   0.00000  Uiso   1.00
O64    O     0.07102   0.17764   0.15304   0.00000  Uiso   1.00
O65    O     0.14864   0.36642   0.36255   0.00000  Uiso   1.00
O66    O     0.21430   0.36947   0.43108   0.00000  Uiso   1.00
O67    O     0.24122   0.33522   0.35420   0.00000  Uiso   1.00
O68    O     0.21691   0.36478   0.03018   0.00000  Uiso   1.00
O69    O     0.28762   0.33466   0.08251   0.00000  Uiso   1.00
O70    O     0.27210   0.30221   0.49602   0.00000  Uiso   1.00
O71    O     0.16667   0.18453   0.21026   0.00000  Uiso   1.00
O72    O     0.14435   0.13032   0.47488   0.00000  Uiso   1.00
O73    O     0.22424   0.13082   0.43823   0.00000  Uiso   1.00
O74    O     0.22865   0.16571   0.02353   0.00000  Uiso   1.00
O75    O     0.16666   0.31547   0.28974   0.00000  Uiso   1.00
O76    O     0.09058   0.25000   0.28045   0.00000  Uiso   1.00
O77    O     0.24275   0.25000   0.21955   0.00000  Uiso   1.00
O78    O     0.09058   0.24999   0.20097   0.00000  Uiso   1.00
O79    O     0.24275   0.25000   0.29903   0.00000  Uiso   1.00
O80    O     0.30388   0.27065   0.14753   0.00000  Uiso   1.00
S81    S     0.32678   0.29751   0.19137   0.00000  Uiso   1.00
S82    S     0.00797   0.20000   0.30723   0.00000  Uiso   1.00
S83    S     0.22394   0.02196   0.33549   0.00000  Uiso   1.00
S84    S     0.23555   0.48238   0.19014   0.00000  Uiso   1.00
S85    S     0.10949   0.16872   0.11100   0.00000  Uiso   1.00
S86    S     0.19274   0.34168   0.38735   0.00000  Uiso   1.00
S87    S     0.24519   0.32283   0.04262   0.00000  Uiso   1.00
S88    S     0.19305   0.15700   0.47024   0.00000  Uiso   1.00
Zn89   Zn    0.16667   0.25000   0.30307   0.00000  Uiso   1.00
Zn90   Zn    0.16667   0.24999   0.19693   0.00000  Uiso   1.00
C91    C     0.49928   0.16386   0.24913   0.00000  Uiso   1.00
C92    C     0.50932   0.20868   0.44566   0.00000  Uiso   1.00
C93    C     0.50488   0.25103   0.02728   0.00000  Uiso   1.00
C94    C     0.50433   0.24866   0.47404   0.00000  Uiso   1.00
C95    C     0.40089   0.25013   0.23828   0.00000  Uiso   1.00
C96    C     0.59928   0.24942   0.26183   0.00000  Uiso   1.00
C97    C     0.34780   0.25848   0.23442   0.00000  Uiso   1.00
C98    C     0.65278   0.24114   0.26612   0.00000  Uiso   1.00
C99    C     0.52188   0.04811   0.28762   0.00000  Uiso   1.00
C100   C     0.52712   0.45344   0.22356   0.00000  Uiso   1.00
C101   C     0.52511   0.09439   0.28579   0.00000  Uiso   1.00
C102   C     0.49930   0.33597   0.25074   0.00000  Uiso   1.00
C103   C     0.52993   0.40732   0.22562   0.00000  Uiso   1.00
C104   C     0.49704   0.11561   0.24853   0.00000  Uiso   1.00
C105   C     0.49693   0.38387   0.25121   0.00000  Uiso   1.00
C106   C     0.46279   0.09098   0.21463   0.00000  Uiso   1.00
C107   C     0.45827   0.40567   0.27224   0.00000  Uiso   1.00
C108   C     0.45960   0.04486   0.21567   0.00000  Uiso   1.00
C109   C     0.45545   0.45174   0.27110   0.00000  Uiso   1.00
C110   C     0.49000   0.02356   0.25120   0.00000  Uiso   1.00
C111   C     0.49054   0.47550   0.24794   0.00000  Uiso   1.00
C112   C     0.47217   0.22126   0.04582   0.00000  Uiso   1.00
C113   C     0.49620   0.28772   0.45031   0.00000  Uiso   1.00
C114   C     0.47219   0.21866   0.09461   0.00000  Uiso   1.00
C115   C     0.50225   0.28910   0.40252   0.00000  Uiso   1.00
C116   C     0.52844   0.28270   0.10864   0.00000  Uiso   1.00
C117   C     0.50352   0.21023   0.39562   0.00000  Uiso   1.00
C118   C     0.53397   0.28296   0.05989   0.00000  Uiso   1.00
H119   H     0.43753   0.10715   0.18827   0.00000  Uiso   1.00
H120   H     0.55723   0.02772   0.13351   0.00000  Uiso   1.00
H121   H     0.54916   0.11400   0.31348   0.00000  Uiso   1.00
H122   H     0.55754   0.38956   0.20713   0.00000  Uiso   1.00
H123   H     0.44795   0.19824   0.02157   0.00000  Uiso   1.00
H124   H     0.49044   0.31850   0.47020   0.00000  Uiso   1.00
H125   H     0.37360   0.15723   0.14420   0.00000  Uiso   1.00
H126   H     0.58339   0.36593   0.34558   0.00000  Uiso   1.00
H127   H     0.62956   0.32639   0.48896   0.00000  Uiso   1.00
H128   H     0.56209   0.13622   0.03788   0.00000  Uiso   1.00
H129   H     0.42986   0.38704   0.28861   0.00000  Uiso   1.00
H130   H     0.43411   0.02563   0.18849   0.00000  Uiso   1.00
H131   H     0.42646   0.46901   0.28860   0.00000  Uiso   1.00
H132   H     0.54862   0.30812   0.13293   0.00000  Uiso   1.00
H133   H     0.50531   0.17939   0.37462   0.00000  Uiso   1.00
H134   H     0.38596   0.35022   0.20612   0.00000  Uiso   1.00
H135   H     0.63894   0.15227   0.34830   0.00000  Uiso   1.00
H136   H     0.53676   0.47557   0.38610   0.00000  Uiso   1.00
N137   N     0.50000   0.24999   0.12623   0.00000  Uiso   1.00
N138   N     0.50000   0.25001   0.37377   0.00000  Uiso   1.00
O139   O     0.50000   0.18453   0.28974   0.00000  Uiso   1.00
O140   O     0.62044   0.32824   0.20781   0.00000  Uiso   1.00
O141   O     0.37708   0.32896   0.17841   0.00000  Uiso   1.00
O142   O     0.37516   0.16699   0.28531   0.00000  Uiso   1.00
O143   O     0.37156   0.22316   0.35048   0.00000  Uiso   1.00
O144   O     0.62372   0.17183   0.32353   0.00000  Uiso   1.00
O145   O     0.59300   0.48837   0.31721   0.00000  Uiso   1.00
O146   O     0.58884   0.05617   0.36832   0.00000  Uiso   1.00
O147   O     0.51518   0.49525   0.36523   0.00000  Uiso   1.00
O148   O     0.60121   0.01738   0.22129   0.00000  Uiso   1.00
O149   O     0.60423   0.45033   0.16879   0.00000  Uiso   1.00
O150   O     0.50000   0.31546   0.21026   0.00000  Uiso   1.00
O151   O     0.53260   0.00762   0.14672   0.00000  Uiso   1.00
O152   O     0.41027   0.14569   0.06884   0.00000  Uiso   1.00
O153   O     0.48560   0.13796   0.12738   0.00000  Uiso   1.00
O154   O     0.40435   0.17764   0.15304   0.00000  Uiso   1.00
O155   O     0.48197   0.36642   0.36255   0.00000  Uiso   1.00
O156   O     0.54764   0.36947   0.43108   0.00000  Uiso   1.00
O157   O     0.57456   0.33522   0.35420   0.00000  Uiso   1.00
O158   O     0.55024   0.36478   0.03018   0.00000  Uiso   1.00
O159   O     0.62095   0.33466   0.08251   0.00000  Uiso   1.00
O160   O     0.60543   0.30221   0.49602   0.00000  Uiso   1.00
O161   O     0.50000   0.18453   0.21026   0.00000  Uiso   1.00
O162   O     0.47768   0.13032   0.47488   0.00000  Uiso   1.00
O163   O     0.55757   0.13082   0.43823   0.00000  Uiso   1.00
O164   O     0.56199   0.16571   0.02353   0.00000  Uiso   1.00
O165   O     0.50000   0.31547   0.28974   0.00000  Uiso   1.00
O166   O     0.42392   0.25000   0.28045   0.00000  Uiso   1.00
O167   O     0.57608   0.25000   0.21955   0.00000  Uiso   1.00
O168   O     0.42392   0.24999   0.20097   0.00000  Uiso   1.00
O169   O     0.57608   0.25000   0.29903   0.00000  Uiso   1.00
O170   O     0.63721   0.27065   0.14753   0.00000  Uiso   1.00
S171   S     0.66011   0.29751   0.19137   0.00000  Uiso   1.00
S172   S     0.34130   0.20000   0.30723   0.00000  Uiso   1.00
S173   S     0.55727   0.02196   0.33549   0.00000  Uiso   1.00
S174   S     0.56889   0.48238   0.19014   0.00000  Uiso   1.00
S175   S     0.44282   0.16872   0.11100   0.00000  Uiso   1.00
S176   S     0.52607   0.34168   0.38735   0.00000  Uiso   1.00
S177   S     0.57852   0.32283   0.04262   0.00000  Uiso   1.00
S178   S     0.52639   0.15700   0.47024   0.00000  Uiso   1.00
Zn179  Zn    0.50000   0.25000   0.30307   0.00000  Uiso   1.00
Zn180  Zn    0.50000   0.24999   0.19693   0.00000  Uiso   1.00
C181   C     0.83261   0.16386   0.24913   0.00000  Uiso   1.00
C182   C     0.84265   0.20868   0.44566   0.00000  Uiso   1.00
C183   C     0.83821   0.25103   0.02728   0.00000  Uiso   1.00
C184   C     0.83766   0.24866   0.47404   0.00000  Uiso   1.00
C185   C     0.73422   0.25013   0.23828   0.00000  Uiso   1.00
C186   C     0.93261   0.24942   0.26183   0.00000  Uiso   1.00
C187   C     0.68114   0.25848   0.23442   0.00000  Uiso   1.00
C188   C     0.98611   0.24114   0.26612   0.00000  Uiso   1.00
C189   C     0.85522   0.04811   0.28762   0.00000  Uiso   1.00
C190   C     0.86045   0.45344   0.22356   0.00000  Uiso   1.00
C191   C     0.85845   0.09439   0.28579   0.00000  Uiso   1.00
C192   C     0.83263   0.33597   0.25074   0.00000  Uiso   1.00
C193   C     0.86327   0.40732   0.22562   0.00000  Uiso   1.00
C194   C     0.83037   0.11561   0.24853   0.00000  Uiso   1.00
C195   C     0.83026   0.38387   0.25121   0.00000  Uiso   1.00
C196   C     0.79613   0.09098   0.21463   0.00000  Uiso   1.00
C197   C     0.79161   0.40567   0.27224   0.00000  Uiso   1.00
C198   C     0.79293   0.04486   0.21567   0.00000  Uiso   1.00
C199   C     0.78878   0.45174   0.27110   0.00000  Uiso   1.00
C200   C     0.82333   0.02356   0.25120   0.00000  Uiso   1.00
C201   C     0.82387   0.47550   0.24794   0.00000  Uiso   1.00
C202   C     0.80550   0.22126   0.04582   0.00000  Uiso   1.00
C203   C     0.82953   0.28772   0.45031   0.00000  Uiso   1.00
C204   C     0.80552   0.21866   0.09461   0.00000  Uiso   1.00
C205   C     0.83558   0.28910   0.40252   0.00000  Uiso   1.00
C206   C     0.86178   0.28270   0.10864   0.00000  Uiso   1.00
C207   C     0.83686   0.21023   0.39562   0.00000  Uiso   1.00
C208   C     0.86730   0.28296   0.05989   0.00000  Uiso   1.00
H209   H     0.77087   0.10715   0.18827   0.00000  Uiso   1.00
H210   H     0.89056   0.02772   0.13351   0.00000  Uiso   1.00
H211   H     0.88249   0.11400   0.31348   0.00000  Uiso   1.00
H212   H     0.89087   0.38956   0.20713   0.00000  Uiso   1.00
H213   H     0.78128   0.19824   0.02157   0.00000  Uiso   1.00
H214   H     0.82377   0.31850   0.47020   0.00000  Uiso   1.00
H215   H     0.70693   0.15723   0.14420   0.00000  Uiso   1.00
H216   H     0.91672   0.36593   0.34558   0.00000  Uiso   1.00
H217   H     0.96289   0.32639   0.48896   0.00000  Uiso   1.00
H218   H     0.89542   0.13622   0.03788   0.00000  Uiso   1.00
H219   H     0.76319   0.38704   0.28861   0.00000  Uiso   1.00
H220   H     0.76744   0.02563   0.18849   0.00000  Uiso   1.00
H221   H     0.75980   0.46901   0.28860   0.00000  Uiso   1.00
H222   H     0.88195   0.30812   0.13293   0.00000  Uiso   1.00
H223   H     0.83864   0.17939   0.37462   0.00000  Uiso   1.00
H224   H     0.71930   0.35022   0.20612   0.00000  Uiso   1.00
H225   H     0.97228   0.15227   0.34830   0.00000  Uiso   1.00
H226   H     0.87009   0.47557   0.38610   0.00000  Uiso   1.00
N227   N     0.83333   0.24999   0.12623   0.00000  Uiso   1.00
N228   N     0.83333   0.25001   0.37377   0.00000  Uiso   1.00
O229   O     0.83334   0.18453   0.28974   0.00000  Uiso   1.00
O230   O     0.95377   0.32824   0.20781   0.00000  Uiso   1.00
O231   O     0.71041   0.32896   0.17841   0.00000  Uiso   1.00
O232   O     0.70850   0.16699   0.28531   0.00000  Uiso   1.00
O233   O     0.70489   0.22316   0.35048   0.00000  Uiso   1.00
O234   O     0.95705   0.17183   0.32353   0.00000  Uiso   1.00
O235   O     0.92633   0.48837   0.31721   0.00000  Uiso   1.00
O236   O     0.92217   0.05617   0.36832   0.00000  Uiso   1.00
O237   O     0.84852   0.49525   0.36523   0.00000  Uiso   1.00
O238   O     0.93454   0.01738   0.22129   0.00000  Uiso   1.00
O239   O     0.93756   0.45033   0.16879   0.00000  Uiso   1.00
O240   O     0.83333   0.31546   0.21026   0.00000  Uiso   1.00
O241   O     0.86593   0.00762   0.14672   0.00000  Uiso   1.00
O242   O     0.74360   0.14569   0.06884   0.00000  Uiso   1.00
O243   O     0.81893   0.13796   0.12738   0.00000  Uiso   1.00
O244   O     0.73768   0.17764   0.15304   0.00000  Uiso   1.00
O245   O     0.81530   0.36642   0.36255   0.00000  Uiso   1.00
O246   O     0.88097   0.36947   0.43108   0.00000  Uiso   1.00
O247   O     0.90789   0.33522   0.35420   0.00000  Uiso   1.00
O248   O     0.88358   0.36478   0.03018   0.00000  Uiso   1.00
O249   O     0.95429   0.33466   0.08251   0.00000  Uiso   1.00
O250   O     0.93877   0.30221   0.49602   0.00000  Uiso   1.00
O251   O     0.83334   0.18453   0.21026   0.00000  Uiso   1.00
O252   O     0.81101   0.13032   0.47488   0.00000  Uiso   1.00
O253   O     0.89090   0.13082   0.43823   0.00000  Uiso   1.00
O254   O     0.89532   0.16571   0.02353   0.00000  Uiso   1.00
O255   O     0.83333   0.31547   0.28974   0.00000  Uiso   1.00
O256   O     0.75725   0.25000   0.28045   0.00000  Uiso   1.00
O257   O     0.90942   0.25000   0.21955   0.00000  Uiso   1.00
O258   O     0.75725   0.24999   0.20097   0.00000  Uiso   1.00
O259   O     0.90942   0.25000   0.29903   0.00000  Uiso   1.00
O260   O     0.97055   0.27065   0.14753   0.00000  Uiso   1.00
S261   S     0.99344   0.29751   0.19137   0.00000  Uiso   1.00
S262   S     0.67464   0.20000   0.30723   0.00000  Uiso   1.00
S263   S     0.89060   0.02196   0.33549   0.00000  Uiso   1.00
S264   S     0.90222   0.48238   0.19014   0.00000  Uiso   1.00
S265   S     0.77615   0.16872   0.11100   0.00000  Uiso   1.00
S266   S     0.85940   0.34168   0.38735   0.00000  Uiso   1.00
S267   S     0.91186   0.32283   0.04262   0.00000  Uiso   1.00
S268   S     0.85972   0.15700   0.47024   0.00000  Uiso   1.00
Zn269  Zn    0.83333   0.25000   0.30307   0.00000  Uiso   1.00
Zn270  Zn    0.83333   0.24999   0.19693   0.00000  Uiso   1.00
C271   C     0.16595   0.66386   0.24913   0.00000  Uiso   1.00
C272   C     0.17598   0.70868   0.44566   0.00000  Uiso   1.00
C273   C     0.17155   0.75103   0.02728   0.00000  Uiso   1.00
C274   C     0.17099   0.74866   0.47404   0.00000  Uiso   1.00
C275   C     0.06755   0.75013   0.23828   0.00000  Uiso   1.00
C276   C     0.26594   0.74942   0.26183   0.00000  Uiso   1.00
C277   C     0.01447   0.75848   0.23442   0.00000  Uiso   1.00
C278   C     0.31944   0.74114   0.26612   0.00000  Uiso   1.00
C279   C     0.18855   0.54811   0.28762   0.00000  Uiso   1.00
C280   C     0.19378   0.95344   0.22356   0.00000  Uiso   1.00
C281   C     0.19178   0.59439   0.28579   0.00000  Uiso   1.00
C282   C     0.16596   0.83597   0.25074   0.00000  Uiso   1.00
C283   C     0.19660   0.90732   0.22562   0.00000  Uiso   1.00
C284   C     0.16370   0.61561   0.24853   0.00000  Uiso   1.00
C285   C     0.16359   0.88387   0.25121   0.00000  Uiso   1.00
C286   C     0.12946   0.59098   0.21463   0.00000  Uiso   1.00
C287   C     0.12494   0.90567   0.27224   0.00000  Uiso   1.00
C288   C     0.12626   0.54486   0.21567   0.00000  Uiso   1.00
C289   C     0.12212   0.95174   0.27110   0.00000  Uiso   1.00
C290   C     0.15666   0.52356   0.25120   0.00000  Uiso   1.00
C291   C     0.15720   0.97550   0.24794   0.00000  Uiso   1.00
C292   C     0.13884   0.72126   0.04582   0.00000  Uiso   1.00
C293   C     0.16287   0.78772   0.45031   0.00000  Uiso   1.00
C294   C     0.13885   0.71866   0.09461   0.00000  Uiso   1.00
C295   C     0.16891   0.78910   0.40252   0.00000  Uiso   1.00
C296   C     0.19511   0.78270   0.10864   0.00000  Uiso   1.00
C297   C     0.17019   0.71023   0.39562   0.00000  Uiso   1.00
C298   C     0.20064   0.78296   0.05989   0.00000  Uiso   1.00
H299   H     0.10420   0.60715   0.18827   0.00000  Uiso   1.00
H300   H     0.22390   0.52772   0.13351   0.00000  Uiso   1.00
H301   H     0.21583   0.61400   0.31348   0.00000  Uiso   1.00
H302   H     0.22421   0.88956   0.20713   0.00000  Uiso   1.00
H303   H     0.11462   0.69824   0.02157   0.00000  Uiso   1.00
H304   H     0.15710   0.81850   0.47020   0.00000  Uiso   1.00
H305   H     0.04027   0.65723   0.14420   0.00000  Uiso   1.00
H306   H     0.25006   0.86593   0.34558   0.00000  Uiso   1.00
H307   H     0.29622   0.82639   0.48896   0.00000  Uiso   1.00
H308   H     0.22876   0.63622   0.03788   0.00000  Uiso   1.00
H309   H     0.09652   0.88704   0.28861   0.00000  Uiso   1.00
H310   H     0.10077   0.52563   0.18849   0.00000  Uiso   1.00
H311   H     0.09313   0.96901   0.28860   0.00000  Uiso   1.00
H312   H     0.21528   0.80812   0.13293   0.00000  Uiso   1.00
H313   H     0.17198   0.67939   0.37462   0.00000  Uiso   1.00
H314   H     0.05263   0.85022   0.20612   0.00000  Uiso   1.00
H315   H     0.30561   0.65227   0.34830   0.00000  Uiso   1.00
H316   H     0.20343   0.97557   0.38610   0.00000  Uiso   1.00
N317   N     0.16667   0.74999   0.12623   0.00000  Uiso   1.00
N318   N     0.16667   0.75001   0.37377   0.00000  Uiso   1.00
O319   O     0.16667   0.68453   0.28974   0.00000  Uiso   1.00
O320   O     0.28710   0.82824   0.20781   0.00000  Uiso   1.00
O321   O     0.04374   0.82896   0.17841   0.00000  Uiso   1.00
O322   O     0.04183   0.66699   0.28531   0.00000  Uiso   1.00
O323   O     0.03823   0.72316   0.35048   0.00000  Uiso   1.00
O324   O     0.29038   0.67183   0.32353   0.00000  Uiso   1.00
O325   O     0.25967   0.98837   0.31721   0.00000  Uiso   1.00
O326   O     0.25551   0.55617   0.36832   0.00000  Uiso   1.00
O327   O     0.18185   0.99525   0.36523   0.00000  Uiso   1.00
O328   O     0.26788   0.51738   0.22129   0.00000  Uiso   1.00
O329   O     0.27089   0.95033   0.16879   0.00000  Uiso   1.00
O330   O     0.16666   0.81546   0.21026   0.00000  Uiso   1.00
O331   O     0.19926   0.50762   0.14672   0.00000  Uiso   1.00
O332   O     0.07694   0.64569   0.06884   0.00000  Uiso   1.00
O333   O     0.15227   0.63796   0.12738   0.00000  Uiso   1.00
O334   O     0.07102   0.67764   0.15304   0.00000  Uiso   1.00
O335   O     0.14864   0.86642   0.36255   0.00000  Uiso   1.00
O336   O     0.21430   0.86947   0.43108   0.00000  Uiso   1.00
O337   O     0.24122   0.83522   0.35420   0.00000  Uiso   1.00
O338   O     0.21691   0.86478   0.03018   0.00000  Uiso   1.00
O339   O     0.28762   0.83466   0.08251   0.00000  Uiso   1.00
O340   O     0.27210   0.80221   0.49602   0.00000  Uiso   1.00
O341   O     0.16667   0.68453   0.21026   0.00000  Uiso   1.00
O342   O     0.14435   0.63032   0.47488   0.00000  Uiso   1.00
O343   O     0.22424   0.63082   0.43823   0.00000  Uiso   1.00
O344   O     0.22865   0.66571   0.02353   0.00000  Uiso   1.00
O345   O     0.16666   0.81547   0.28974   0.00000  Uiso   1.00
O346   O     0.09058   0.75000   0.28045   0.00000  Uiso   1.00
O347   O     0.24275   0.75000   0.21955   0.00000  Uiso   1.00
O348   O     0.09058   0.74999   0.20097   0.00000  Uiso   1.00
O349   O     0.24275   0.75000   0.29903   0.00000  Uiso   1.00
O350   O     0.30388   0.77065   0.14753   0.00000  Uiso   1.00
S351   S     0.32678   0.79751   0.19137   0.00000  Uiso   1.00
S352   S     0.00797   0.70000   0.30723   0.00000  Uiso   1.00
S353   S     0.22394   0.52196   0.33549   0.00000  Uiso   1.00
S354   S     0.23555   0.98238   0.19014   0.00000  Uiso   1.00
S355   S     0.10949   0.66872   0.11100   0.00000  Uiso   1.00
S356   S     0.19274   0.84168   0.38735   0.00000  Uiso   1.00
S357   S     0.24519   0.82283   0.04262   0.00000  Uiso   1.00
S358   S     0.19305   0.65700   0.47024   0.00000  Uiso   1.00
Zn359  Zn    0.16667   0.75000   0.30307   0.00000  Uiso   1.00
Zn360  Zn    0.16667   0.74999   0.19693   0.00000  Uiso   1.00
C361   C     0.49928   0.66386   0.24913   0.00000  Uiso   1.00
C362   C     0.50932   0.70868   0.44566   0.00000  Uiso   1.00
C363   C     0.50488   0.75103   0.02728   0.00000  Uiso   1.00
C364   C     0.50433   0.74866   0.47404   0.00000  Uiso   1.00
C365   C     0.40089   0.75013   0.23828   0.00000  Uiso   1.00
C366   C     0.59928   0.74942   0.26183   0.00000  Uiso   1.00
C367   C     0.34780   0.75848   0.23442   0.00000  Uiso   1.00
C368   C     0.65278   0.74114   0.26612   0.00000  Uiso   1.00
C369   C     0.52188   0.54811   0.28762   0.00000  Uiso   1.00
C370   C     0.52712   0.95344   0.22356   0.00000  Uiso   1.00
C371   C     0.52511   0.59439   0.28579   0.00000  Uiso   1.00
C372   C     0.49930   0.83597   0.25074   0.00000  Uiso   1.00
C373   C     0.52993   0.90732   0.22562   0.00000  Uiso   1.00
C374   C     0.49704   0.61561   0.24853   0.00000  Uiso   1.00
C375   C     0.49693   0.88387   0.25121   0.00000  Uiso   1.00
C376   C     0.46279   0.59098   0.21463   0.00000  Uiso   1.00
C377   C     0.45827   0.90567   0.27224   0.00000  Uiso   1.00
C378   C     0.45960   0.54486   0.21567   0.00000  Uiso   1.00
C379   C     0.45545   0.95174   0.27110   0.00000  Uiso   1.00
C380   C     0.49000   0.52356   0.25120   0.00000  Uiso   1.00
C381   C     0.49054   0.97550   0.24794   0.00000  Uiso   1.00
C382   C     0.47217   0.72126   0.04582   0.00000  Uiso   1.00
C383   C     0.49620   0.78772   0.45031   0.00000  Uiso   1.00
C384   C     0.47219   0.71866   0.09461   0.00000  Uiso   1.00
C385   C     0.50225   0.78910   0.40252   0.00000  Uiso   1.00
C386   C     0.52844   0.78270   0.10864   0.00000  Uiso   1.00
C387   C     0.50352   0.71023   0.39562   0.00000  Uiso   1.00
C388   C     0.53397   0.78296   0.05989   0.00000  Uiso   1.00
H389   H     0.43753   0.60715   0.18827   0.00000  Uiso   1.00
H390   H     0.55723   0.52772   0.13351   0.00000  Uiso   1.00
H391   H     0.54916   0.61400   0.31348   0.00000  Uiso   1.00
H392   H     0.55754   0.88956   0.20713   0.00000  Uiso   1.00
H393   H     0.44795   0.69824   0.02157   0.00000  Uiso   1.00
H394   H     0.49044   0.81850   0.47020   0.00000  Uiso   1.00
H395   H     0.37360   0.65723   0.14420   0.00000  Uiso   1.00
H396   H     0.58339   0.86593   0.34558   0.00000  Uiso   1.00
H397   H     0.62956   0.82639   0.48896   0.00000  Uiso   1.00
H398   H     0.56209   0.63622   0.03788   0.00000  Uiso   1.00
H399   H     0.42986   0.88704   0.28861   0.00000  Uiso   1.00
H400   H     0.43411   0.52563   0.18849   0.00000  Uiso   1.00
H401   H     0.42646   0.96901   0.28860   0.00000  Uiso   1.00
H402   H     0.54862   0.80812   0.13293   0.00000  Uiso   1.00
H403   H     0.50531   0.67939   0.37462   0.00000  Uiso   1.00
H404   H     0.38596   0.85022   0.20612   0.00000  Uiso   1.00
H405   H     0.63894   0.65227   0.34830   0.00000  Uiso   1.00
H406   H     0.53676   0.97557   0.38610   0.00000  Uiso   1.00
N407   N     0.50000   0.74999   0.12623   0.00000  Uiso   1.00
N408   N     0.50000   0.75001   0.37377   0.00000  Uiso   1.00
O409   O     0.50000   0.68453   0.28974   0.00000  Uiso   1.00
O410   O     0.62044   0.82824   0.20781   0.00000  Uiso   1.00
O411   O     0.37708   0.82896   0.17841   0.00000  Uiso   1.00
O412   O     0.37516   0.66699   0.28531   0.00000  Uiso   1.00
O413   O     0.37156   0.72316   0.35048   0.00000  Uiso   1.00
O414   O     0.62372   0.67183   0.32353   0.00000  Uiso   1.00
O415   O     0.59300   0.98837   0.31721   0.00000  Uiso   1.00
O416   O     0.58884   0.55617   0.36832   0.00000  Uiso   1.00
O417   O     0.51518   0.99525   0.36523   0.00000  Uiso   1.00
O418   O     0.60121   0.51738   0.22129   0.00000  Uiso   1.00
O419   O     0.60423   0.95033   0.16879   0.00000  Uiso   1.00
O420   O     0.50000   0.81546   0.21026   0.00000  Uiso   1.00
O421   O     0.53260   0.50762   0.14672   0.00000  Uiso   1.00
O422   O     0.41027   0.64569   0.06884   0.00000  Uiso   1.00
O423   O     0.48560   0.63796   0.12738   0.00000  Uiso   1.00
O424   O     0.40435   0.67764   0.15304   0.00000  Uiso   1.00
O425   O     0.48197   0.86642   0.36255   0.00000  Uiso   1.00
O426   O     0.54764   0.86947   0.43108   0.00000  Uiso   1.00
O427   O     0.57456   0.83522   0.35420   0.00000  Uiso   1.00
O428   O     0.55024   0.86478   0.03018   0.00000  Uiso   1.00
O429   O     0.62095   0.83466   0.08251   0.00000  Uiso   1.00
O430   O     0.60543   0.80221   0.49602   0.00000  Uiso   1.00
O431   O     0.50000   0.68453   0.21026   0.00000  Uiso   1.00
O432   O     0.47768   0.63032   0.47488   0.00000  Uiso   1.00
O433   O     0.55757   0.63082   0.43823   0.00000  Uiso   1.00
O434   O     0.56199   0.66571   0.02353   0.00000  Uiso   1.00
O435   O     0.50000   0.81547   0.28974   0.00000  Uiso   1.00
O436   O     0.42392   0.75000   0.28045   0.00000  Uiso   1.00
O437   O     0.57608   0.75000   0.21955   0.00000  Uiso   1.00
O438   O     0.42392   0.74999   0.20097   0.00000  Uiso   1.00
O439   O     0.57608   0.75000   0.29903   0.00000  Uiso   1.00
O440   O     0.63721   0.77065   0.14753   0.00000  Uiso   1.00
S441   S     0.66011   0.79751   0.19137   0.00000  Uiso   1.00
S442   S     0.34130   0.70000   0.30723   0.00000  Uiso   1.00
S443   S     0.55727   0.52196   0.33549   0.00000  Uiso   1.00
S444   S     0.56889   0.98238   0.19014   0.00000  Uiso   1.00
S445   S     0.44282   0.66872   0.11100   0.00000  Uiso   1.00
S446   S     0.52607   0.84168   0.38735   0.00000  Uiso   1.00
S447   S     0.57852   0.82283   0.04262   0.00000  Uiso   1.00
S448   S     0.52639   0.65700   0.47024   0.00000  Uiso   1.00
Zn449  Zn    0.50000   0.75000   0.30307   0.00000  Uiso   1.00
Zn450  Zn    0.50000   0.74999   0.19693   0.00000  Uiso   1.00
C451   C     0.83261   0.66386   0.24913   0.00000  Uiso   1.00
C452   C     0.84265   0.70868   0.44566   0.00000  Uiso   1.00
C453   C     0.83821   0.75103   0.02728   0.00000  Uiso   1.00
C454   C     0.83766   0.74866   0.47404   0.00000  Uiso   1.00
C455   C     0.73422   0.75013   0.23828   0.00000  Uiso   1.00
C456   C     0.93261   0.74942   0.26183   0.00000  Uiso   1.00
C457   C     0.68114   0.75848   0.23442   0.00000  Uiso   1.00
C458   C     0.98611   0.74114   0.26612   0.00000  Uiso   1.00
C459   C     0.85522   0.54811   0.28762   0.00000  Uiso   1.00
C460   C     0.86045   0.95344   0.22356   0.00000  Uiso   1.00
C461   C     0.85845   0.59439   0.28579   0.00000  Uiso   1.00
C462   C     0.83263   0.83597   0.25074   0.00000  Uiso   1.00
C463   C     0.86327   0.90732   0.22562   0.00000  Uiso   1.00
C464   C     0.83037   0.61561   0.24853   0.00000  Uiso   1.00
C465   C     0.83026   0.88387   0.25121   0.00000  Uiso   1.00
C466   C     0.79613   0.59098   0.21463   0.00000  Uiso   1.00
C467   C     0.79161   0.90567   0.27224   0.00000  Uiso   1.00
C468   C     0.79293   0.54486   0.21567   0.00000  Uiso   1.00
C469   C     0.78878   0.95174   0.27110   0.00000  Uiso   1.00
C470   C     0.82333   0.52356   0.25120   0.00000  Uiso   1.00
C471   C     0.82387   0.97550   0.24794   0.00000  Uiso   1.00
C472   C     0.80550   0.72126   0.04582   0.00000  Uiso   1.00
C473   C     0.82953   0.78772   0.45031   0.00000  Uiso   1.00
C474   C     0.80552   0.71866   0.09461   0.00000  Uiso   1.00
C475   C     0.83558   0.78910   0.40252   0.00000  Uiso   1.00
C476   C     0.86178   0.78270   0.10864   0.00000  Uiso   1.00
C477   C     0.83686   0.71023   0.39562   0.00000  Uiso   1.00
C478   C     0.86730   0.78296   0.05989   0.00000  Uiso   1.00
H479   H     0.77087   0.60715   0.18827   0.00000  Uiso   1.00
H480   H     0.89056   0.52772   0.13351   0.00000  Uiso   1.00
H481   H     0.88249   0.61400   0.31348   0.00000  Uiso   1.00
H482   H     0.89087   0.88956   0.20713   0.00000  Uiso   1.00
H483   H     0.78128   0.69824   0.02157   0.00000  Uiso   1.00
H484   H     0.82377   0.81850   0.47020   0.00000  Uiso   1.00
H485   H     0.70693   0.65723   0.14420   0.00000  Uiso   1.00
H486   H     0.91672   0.86593   0.34558   0.00000  Uiso   1.00
H487   H     0.96289   0.82639   0.48896   0.00000  Uiso   1.00
H488   H     0.89542   0.63622   0.03788   0.00000  Uiso   1.00
H489   H     0.76319   0.88704   0.28861   0.00000  Uiso   1.00
H490   H     0.76744   0.52563   0.18849   0.00000  Uiso   1.00
H491   H     0.75980   0.96901   0.28860   0.00000  Uiso   1.00
H492   H     0.88195   0.80812   0.13293   0.00000  Uiso   1.00
H493   H     0.83864   0.67939   0.37462   0.00000  Uiso   1.00
H494   H     0.71930   0.85022   0.20612   0.00000  Uiso   1.00
H495   H     0.97228   0.65227   0.34830   0.00000  Uiso   1.00
H496   H     0.87009   0.97557   0.38610   0.00000  Uiso   1.00
N497   N     0.83333   0.74999   0.12623   0.00000  Uiso   1.00
N498   N     0.83333   0.75001   0.37377   0.00000  Uiso   1.00
O499   O     0.83334   0.68453   0.28974   0.00000  Uiso   1.00
O500   O     0.95377   0.82824   0.20781   0.00000  Uiso   1.00
O501   O     0.71041   0.82896   0.17841   0.00000  Uiso   1.00
O502   O     0.70850   0.66699   0.28531   0.00000  Uiso   1.00
O503   O     0.70489   0.72316   0.35048   0.00000  Uiso   1.00
O504   O     0.95705   0.67183   0.32353   0.00000  Uiso   1.00
O505   O     0.92633   0.98837   0.31721   0.00000  Uiso   1.00
O506   O     0.92217   0.55617   0.36832   0.00000  Uiso   1.00
O507   O     0.84852   0.99525   0.36523   0.00000  Uiso   1.00
O508   O     0.93454   0.51738   0.22129   0.00000  Uiso   1.00
O509   O     0.93756   0.95033   0.16879   0.00000  Uiso   1.00
O510   O     0.83333   0.81546   0.21026   0.00000  Uiso   1.00
O511   O     0.86593   0.50762   0.14672   0.00000  Uiso   1.00
O512   O     0.74360   0.64569   0.06884   0.00000  Uiso   1.00
O513   O     0.81893   0.63796   0.12738   0.00000  Uiso   1.00
O514   O     0.73768   0.67764   0.15304   0.00000  Uiso   1.00
O515   O     0.81530   0.86642   0.36255   0.00000  Uiso   1.00
O516   O     0.88097   0.86947   0.43108   0.00000  Uiso   1.00
O517   O     0.90789   0.83522   0.35420   0.00000  Uiso   1.00
O518   O     0.88358   0.86478   0.03018   0.00000  Uiso   1.00
O519   O     0.95429   0.83466   0.08251   0.00000  Uiso   1.00
O520   O     0.93877   0.80221   0.49602   0.00000  Uiso   1.00
O521   O     0.83334   0.68453   0.21026   0.00000  Uiso   1.00
O522   O     0.81101   0.63032   0.47488   0.00000  Uiso   1.00
O523   O     0.89090   0.63082   0.43823   0.00000  Uiso   1.00
O524   O     0.89532   0.66571   0.02353   0.00000  Uiso   1.00
O525   O     0.83333   0.81547   0.28974   0.00000  Uiso   1.00
O526   O     0.75725   0.75000   0.28045   0.00000  Uiso   1.00
O527   O     0.90942   0.75000   0.21955   0.00000  Uiso   1.00
O528   O     0.75725   0.74999   0.20097   0.00000  Uiso   1.00
O529   O     0.90942   0.75000   0.29903   0.00000  Uiso   1.00
O530   O     0.97055   0.77065   0.14753   0.00000  Uiso   1.00
S531   S     0.99344   0.79751   0.19137   0.00000  Uiso   1.00
S532   S     0.67464   0.70000   0.30723   0.00000  Uiso   1.00
S533   S     0.89060   0.52196   0.33549   0.00000  Uiso   1.00
S534   S     0.90222   0.98238   0.19014   0.00000  Uiso   1.00
S535   S     0.77615   0.66872   0.11100   0.00000  Uiso   1.00
S536   S     0.85940   0.84168   0.38735   0.00000  Uiso   1.00
S537   S     0.91186   0.82283   0.04262   0.00000  Uiso   1.00
S538   S     0.85972   0.65700   0.47024   0.00000  Uiso   1.00
Zn539  Zn    0.83333   0.75000   0.30307   0.00000  Uiso   1.00
Zn540  Zn    0.83333   0.74999   0.19693   0.00000  Uiso   1.00
C541   C     0.16595   0.16386   0.74913   0.00000  Uiso   1.00
C542   C     0.17598   0.20868   0.94566   0.00000  Uiso   1.00
C543   C     0.17155   0.25103   0.52728   0.00000  Uiso   1.00
C544   C     0.17099   0.24866   0.97404   0.00000  Uiso   1.00
C545   C     0.06755   0.25013   0.73828   0.00000  Uiso   1.00
C546   C     0.26594   0.24942   0.76183   0.00000  Uiso   1.00
C547   C     0.01447   0.25848   0.73442   0.00000  Uiso   1.00
C548   C     0.31944   0.24114   0.76612   0.00000  Uiso   1.00
C549   C     0.18855   0.04811   0.78762   0.00000  Uiso   1.00
C550   C     0.19378   0.45344   0.72356   0.00000  Uiso   1.00
C551   C     0.19178   0.09439   0.78579   0.00000  Uiso   1.00
C552   C     0.16596   0.33597   0.75074   0.00000  Uiso   1.00
C553   C     0.19660   0.40732   0.72562   0.00000  Uiso   1.00
C554   C     0.16370   0.11561   0.74853   0.00000  Uiso   1.00
C555   C     0.16359   0.38387   0.75121   0.00000  Uiso   1.00
C556   C     0.12946   0.09098   0.71463   0.00000  Uiso   1.00
C557   C     0.12494   0.40567   0.77224   0.00000  Uiso   1.00
C558   C     0.12626   0.04486   0.71567   0.00000  Uiso   1.00
C559   C     0.12212   0.45174   0.77110   0.00000  Uiso   1.00
C560   C     0.15666   0.02356   0.75120   0.00000  Uiso   1.00
C561   C     0.15720   0.47550   0.74794   0.00000  Uiso   1.00
C562   C     0.13884   0.22126   0.54582   0.00000  Uiso   1.00
C563   C     0.16287   0.28772   0.95031   0.00000  Uiso   1.00
C564   C     0.13885   0.21866   0.59461   0.00000  Uiso   1.00
C565   C     0.16891   0.28910   0.90252   0.00000  Uiso   1.00
C566   C     0.19511   0.28270   0.60864   0.00000  Uiso   1.00
C567   C     0.17019   0.21023   0.89562   0.00000  Uiso   1.00
C568   C     0.20064   0.28296   0.55989   0.00000  Uiso   1.00
H569   H     0.10420   0.10715   0.68827   0.00000  Uiso   1.00
H570   H     0.22390   0.02772   0.63351   0.00000  Uiso   1.00
H571   H     0.21583   0.11400   0.81348   0.00000  Uiso   1.00
H572   H     0.22421   0.38956   0.70713   0.00000  Uiso   1.00
H573   H     0.11462   0.19824   0.52157   0.00000  Uiso   1.00
H574   H     0.15710   0.31850   0.97020   0.00000  Uiso   1.00
H575   H     0.04027   0.15723   0.64420   0.00000  Uiso   1.00
H576   H     0.25006   0.36593   0.84558   0.00000  Uiso   1.00
H577   H     0.29622   0.32639   0.98896   0.00000  Uiso   1.00
H578   H     0.22876   0.13622   0.53788   0.00000  Uiso   1.00
H579   H     0.09652   0.38704   0.78861   0.00000  Uiso   1.00
H580   H     0.10077   0.02563   0.68849   0.00000  Uiso   1.00
H581   H     0.09313   0.46901   0.78860   0.00000  Uiso   1.00
H582   H     0.21528   0.30812   0.63293   0.00000  Uiso   1.00
H583   H     0.17198   0.17939   0.87462   0.00000  Uiso   1.00
H584   H     0.05263   0.35022   0.70612   0.00000  Uiso   1.00
H585   H     0.30561   0.15227   0.84830   0.00000  Uiso   1.00
H586   H     0.20343   0.47557   0.88610   0.00000  Uiso   1.00
N587   N     0.16667   0.24999   0.62623   0.00000  Uiso   1.00
N588   N     0.16667   0.25001   0.87377   0.00000  Uiso   1.00
O589   O     0.16667   0.18453   0.78974   0.00000  Uiso   1.00
O590   O     0.28710   0.32824   0.70781   0.00000  Uiso   1.00
O591   O     0.04374   0.32896   0.67841   0.00000  Uiso   1.00
O592   O     0.04183   0.16699   0.78531   0.00000  Uiso   1.00
O593   O     0.03823   0.22316   0.85048   0.00000  Uiso   1.00
O594   O     0.29038   0.17183   0.82353   0.00000  Uiso   1.00
O595   O     0.25967   0.48837   0.81721   0.00000  Uiso   1.00
O596   O     0.25551   0.05617   0.86832   0.00000  Uiso   1.00
O597   O     0.18185   0.49525   0.86523   0.00000  Uiso   1.00
O598   O     0.26788   0.01738   0.72129   0.00000  Uiso   1.00
O599   O     0.27089   0.45033   0.66879   0.00000  Uiso   1.00
O600   O     0.16666   0.31546   0.71026   0.00000  Uiso   1.00
O601   O     0.19926   0.00762   0.64672   0.00000  Uiso   1.00
O602   O     0.07694   0.14569   0.56884   0.00000  Uiso   1.00
O603   O     0.15227   0.13796   0.62738   0.00000  Uiso   1.00
O604   O     0.07102   0.17764   0.65304   0.00000  Uiso   1.00
O605   O     0.14864   0.36642   0.86255   0.00000  Uiso   1.00
O606   O     0.21430   0.36947   0.93108   0.00000  Uiso   1.00
O607   O     0.24122   0.33522   0.85420   0.00000  Uiso   1.00
O608   O     0.21691   0.36478   0.53018   0.00000  Uiso   1.00
O609   O     0.28762   0.33466   0.58251   0.00000  Uiso   1.00
O610   O     0.27210   0.30221   0.99602   0.00000  Uiso   1.00
O611   O     0.16667   0.18453   0.71026   0.00000  Uiso   1.00
O612   O     0.14435   0.13032   0.97488   0.00000  Uiso   1.00
O613   O     0.22424   0.13082   0.93823   0.00000  Uiso   1.00
O614   O     0.22865   0.16571   0.52353   0.00000  Uiso   1.00
O615   O     0.16666   0.31547   0.78974   0.00000  Uiso   1.00
O616   O     0.09058   0.25000   0.78045   0.00000  Uiso   1.00
O617   O     0.24275   0.25000   0.71955   0.00000  Uiso   1.00
O618   O     0.09058   0.24999   0.70097   0.00000  Uiso   1.00
O619   O     0.24275   0.25000   0.79903   0.00000  Uiso   1.00
O620   O     0.30388   0.27065   0.64753   0.00000  Uiso   1.00
S621   S     0.32678   0.29751   0.69137   0.00000  Uiso   1.00
S622   S     0.00797   0.20000   0.80723   0.00000  Uiso   1.00
S623   S     0.22394   0.02196   0.83549   0.00000  Uiso   1.00
S624   S     0.23555   0.48238   0.69014   0.00000  Uiso   1.00
S625   S     0.10949   0.16872   0.61100   0.00000  Uiso   1.00
S626   S     0.19274   0.34168   0.88735   0.00000  Uiso   1.00
S627   S     0.24519   0.32283   0.54262   0.00000  Uiso   1.00
S628   S     0.19305   0.15700   0.97024   0.00000  Uiso   1.00
Zn629  Zn    0.16667   0.25000   0.80307   0.00000  Uiso   1.00
Zn630  Zn    0.16667   0.24999   0.69693   0.00000  Uiso   1.00
C631   C     0.49928   0.16386   0.74913   0.00000  Uiso   1.00
C632   C     0.50932   0.20868   0.94566   0.00000  Uiso   1.00
C633   C     0.50488   0.25103   0.52728   0.00000  Uiso   1.00
C634   C     0.50433   0.24866   0.97404   0.00000  Uiso   1.00
C635   C     0.40089   0.25013   0.73828   0.00000  Uiso   1.00
C636   C     0.59928   0.24942   0.76183   0.00000  Uiso   1.00
C637   C     0.34780   0.25848   0.73442   0.00000  Uiso   1.00
C638   C     0.65278   0.24114   0.76612   0.00000  Uiso   1.00
C639   C     0.52188   0.04811   0.78762   0.00000  Uiso   1.00
C640   C     0.52712   0.45344   0.72356   0.00000  Uiso   1.00
C641   C     0.52511   0.09439   0.78579   0.00000  Uiso   1.00
C642   C     0.49930   0.33597   0.75074   0.00000  Uiso   1.00
C643   C     0.52993   0.40732   0.72562   0.00000  Uiso   1.00
C644   C     0.49704   0.11561   0.74853   0.00000  Uiso   1.00
C645   C     0.49693   0.38387   0.75121   0.00000  Uiso   1.00
C646   C     0.46279   0.09098   0.71463   0.00000  Uiso   1.00
C647   C     0.45827   0.40567   0.77224   0.00000  Uiso   1.00
C648   C     0.45960   0.04486   0.71567   0.00000  Uiso   1.00
C649   C     0.45545   0.45174   0.77110   0.00000  Uiso   1.00
C650   C     0.49000   0.02356   0.75120   0.00000  Uiso   1.00
C651   C     0.49054   0.47550   0.74794   0.00000  Uiso   1.00
C652   C     0.47217   0.22126   0.54582   0.00000  Uiso   1.00
C653   C     0.49620   0.28772   0.95031   0.00000  Uiso   1.00
C654   C     0.47219   0.21866   0.59461   0.00000  Uiso   1.00
C655   C     0.50225   0.28910   0.90252   0.00000  Uiso   1.00
C656   C     0.52844   0.28270   0.60864   0.00000  Uiso   1.00
C657   C     0.50352   0.21023   0.89562   0.00000  Uiso   1.00
C658   C     0.53397   0.28296   0.55989   0.00000  Uiso   1.00
H659   H     0.43753   0.10715   0.68827   0.00000  Uiso   1.00
H660   H     0.55723   0.02772   0.63351   0.00000  Uiso   1.00
H661   H     0.54916   0.11400   0.81348   0.00000  Uiso   1.00
H662   H     0.55754   0.38956   0.70713   0.00000  Uiso   1.00
H663   H     0.44795   0.19824   0.52157   0.00000  Uiso   1.00
H664   H     0.49044   0.31850   0.97020   0.00000  Uiso   1.00
H665   H     0.37360   0.15723   0.64420   0.00000  Uiso   1.00
H666   H     0.58339   0.36593   0.84558   0.00000  Uiso   1.00
H667   H     0.62956   0.32639   0.98896   0.00000  Uiso   1.00
H668   H     0.56209   0.13622   0.53788   0.00000  Uiso   1.00
H669   H     0.42986   0.38704   0.78861   0.00000  Uiso   1.00
H670   H     0.43411   0.02563   0.68849   0.00000  Uiso   1.00
H671   H     0.42646   0.46901   0.78860   0.00000  Uiso   1.00
H672   H     0.54862   0.30812   0.63293   0.00000  Uiso   1.00
H673   H     0.50531   0.17939   0.87462   0.00000  Uiso   1.00
H674   H     0.38596   0.35022   0.70612   0.00000  Uiso   1.00
H675   H     0.63894   0.15227   0.84830   0.00000  Uiso   1.00
H676   H     0.53676   0.47557   0.88610   0.00000  Uiso   1.00
N677   N     0.50000   0.24999   0.62623   0.00000  Uiso   1.00
N678   N     0.50000   0.25001   0.87377   0.00000  Uiso   1.00
O679   O     0.50000   0.18453   0.78974   0.00000  Uiso   1.00
O680   O     0.62044   0.32824   0.70781   0.00000  Uiso   1.00
O681   O     0.37708   0.32896   0.67841   0.00000  Uiso   1.00
O682   O     0.37516   0.16699   0.78531   0.00000  Uiso   1.00
O683   O     0.37156   0.22316   0.85048   0.00000  Uiso   1.00
O684   O     0.62372   0.17183   0.82353   0.00000  Uiso   1.00
O685   O     0.59300   0.48837   0.81721   0.00000  Uiso   1.00
O686   O     0.58884   0.05617   0.86832   0.00000  Uiso   1.00
O687   O     0.51518   0.49525   0.86523   0.00000  Uiso   1.00
O688   O     0.60121   0.01738   0.72129   0.00000  Uiso   1.00
O689   O     0.60423   0.45033   0.66879   0.00000  Uiso   1.00
O690   O     0.50000   0.31546   0.71026   0.00000  Uiso   1.00
O691   O     0.53260   0.00762   0.64672   0.00000  Uiso   1.00
O692   O     0.41027   0.14569   0.56884   0.00000  Uiso   1.00
O693   O     0.48560   0.13796   0.62738   0.00000  Uiso   1.00
O694   O     0.40435   0.17764   0.65304   0.00000  Uiso   1.00
O695   O     0.48197   0.36642   0.86255   0.00000  Uiso   1.00
O696   O     0.54764   0.36947   0.93108   0.00000  Uiso   1.00
O697   O     0.57456   0.33522   0.85420   0.00000  Uiso   1.00
O698   O     0.55024   0.36478   0.53018   0.00000  Uiso   1.00
O699   O     0.62095   0.33466   0.58251   0.00000  Uiso   1.00
O700   O     0.60543   0.30221   0.99602   0.00000  Uiso   1.00
O701   O     0.50000   0.18453   0.71026   0.00000  Uiso   1.00
O702   O     0.47768   0.13032   0.97488   0.00000  Uiso   1.00
O703   O     0.55757   0.13082   0.93823   0.00000  Uiso   1.00
O704   O     0.56199   0.16571   0.52353   0.00000  Uiso   1.00
O705   O     0.50000   0.31547   0.78974   0.00000  Uiso   1.00
O706   O     0.42392   0.25000   0.78045   0.00000  Uiso   1.00
O707   O     0.57608   0.25000   0.71955   0.00000  Uiso   1.00
O708   O     0.42392   0.24999   0.70097   0.00000  Uiso   1.00
O709   O     0.57608   0.25000   0.79903   0.00000  Uiso   1.00
O710   O     0.63721   0.27065   0.64753   0.00000  Uiso   1.00
S711   S     0.66011   0.29751   0.69137   0.00000  Uiso   1.00
S712   S     0.34130   0.20000   0.80723   0.00000  Uiso   1.00
S713   S     0.55727   0.02196   0.83549   0.00000  Uiso   1.00
S714   S     0.56889   0.48238   0.69014   0.00000  Uiso   1.00
S715   S     0.44282   0.16872   0.61100   0.00000  Uiso   1.00
S716   S     0.52607   0.34168   0.88735   0.00000  Uiso   1.00
S717   S     0.57852   0.32283   0.54262   0.00000  Uiso   1.00
S718   S     0.52639   0.15700   0.97024   0.00000  Uiso   1.00
Zn719  Zn    0.50000   0.25000   0.80307   0.00000  Uiso   1.00
Zn720  Zn    0.50000   0.24999   0.69693   0.00000  Uiso   1.00
C721   C     0.83261   0.16386   0.74913   0.00000  Uiso   1.00
C722   C     0.84265   0.20868   0.94566   0.00000  Uiso   1.00
C723   C     0.83821   0.25103   0.52728   0.00000  Uiso   1.00
C724   C     0.83766   0.24866   0.97404   0.00000  Uiso   1.00
C725   C     0.73422   0.25013   0.73828   0.00000  Uiso   1.00
C726   C     0.93261   0.24942   0.76183   0.00000  Uiso   1.00
C727   C     0.68114   0.25848   0.73442   0.00000  Uiso   1.00
C728   C     0.98611   0.24114   0.76612   0.00000  Uiso   1.00
C729   C     0.85522   0.04811   0.78762   0.00000  Uiso   1.00
C730   C     0.86045   0.45344   0.72356   0.00000  Uiso   1.00
C731   C     0.85845   0.09439   0.78579   0.00000  Uiso   1.00
C732   C     0.83263   0.33597   0.75074   0.00000  Uiso   1.00
C733   C     0.86327   0.40732   0.72562   0.00000  Uiso   1.00
C734   C     0.83037   0.11561   0.74853   0.00000  Uiso   1.00
C735   C     0.83026   0.38387   0.75121   0.00000  Uiso   1.00
C736   C     0.79613   0.09098   0.71463   0.00000  Uiso   1.00
C737   C     0.79161   0.40567   0.77224   0.00000  Uiso   1.00
C738   C     0.79293   0.04486   0.71567   0.00000  Uiso   1.00
C739   C     0.78878   0.45174   0.77110   0.00000  Uiso   1.00
C740   C     0.82333   0.02356   0.75120   0.00000  Uiso   1.00
C741   C     0.82387   0.47550   0.74794   0.00000  Uiso   1.00
C742   C     0.80550   0.22126   0.54582   0.00000  Uiso   1.00
C743   C     0.82953   0.28772   0.95031   0.00000  Uiso   1.00
C744   C     0.80552   0.21866   0.59461   0.00000  Uiso   1.00
C745   C     0.83558   0.28910   0.90252   0.00000  Uiso   1.00
C746   C     0.86178   0.28270   0.60864   0.00000  Uiso   1.00
C747   C     0.83686   0.21023   0.89562   0.00000  Uiso   1.00
C748   C     0.86730   0.28296   0.55989   0.00000  Uiso   1.00
H749   H     0.77087   0.10715   0.68827   0.00000  Uiso   1.00
H750   H     0.89056   0.02772   0.63351   0.00000  Uiso   1.00
H751   H     0.88249   0.11400   0.81348   0.00000  Uiso   1.00
H752   H     0.89087   0.38956   0.70713   0.00000  Uiso   1.00
H753   H     0.78128   0.19824   0.52157   0.00000  Uiso   1.00
H754   H     0.82377   0.31850   0.97020   0.00000  Uiso   1.00
H755   H     0.70693   0.15723   0.64420   0.00000  Uiso   1.00
H756   H     0.91672   0.36593   0.84558   0.00000  Uiso   1.00
H757   H     0.96289   0.32639   0.98896   0.00000  Uiso   1.00
H758   H     0.89542   0.13622   0.53788   0.00000  Uiso   1.00
H759   H     0.76319   0.38704   0.78861   0.00000  Uiso   1.00
H760   H     0.76744   0.02563   0.68849   0.00000  Uiso   1.00
H761   H     0.75980   0.46901   0.78860   0.00000  Uiso   1.00
H762   H     0.88195   0.30812   0.63293   0.00000  Uiso   1.00
H763   H     0.83864   0.17939   0.87462   0.00000  Uiso   1.00
H764   H     0.71930   0.35022   0.70612   0.00000  Uiso   1.00
H765   H     0.97228   0.15227   0.84830   0.00000  Uiso   1.00
H766   H     0.87009   0.47557   0.88610   0.00000  Uiso   1.00
N767   N     0.83333   0.24999   0.62623   0.00000  Uiso   1.00
N768   N     0.83333   0.25001   0.87377   0.00000  Uiso   1.00
O769   O     0.83334   0.18453   0.78974   0.00000  Uiso   1.00
O770   O     0.95377   0.32824   0.70781   0.00000  Uiso   1.00
O771   O     0.71041   0.32896   0.67841   0.00000  Uiso   1.00
O772   O     0.70850   0.16699   0.78531   0.00000  Uiso   1.00
O773   O     0.70489   0.22316   0.85048   0.00000  Uiso   1.00
O774   O     0.95705   0.17183   0.82353   0.00000  Uiso   1.00
O775   O     0.92633   0.48837   0.81721   0.00000  Uiso   1.00
O776   O     0.92217   0.05617   0.86832   0.00000  Uiso   1.00
O777   O     0.84852   0.49525   0.86523   0.00000  Uiso   1.00
O778   O     0.93454   0.01738   0.72129   0.00000  Uiso   1.00
O779   O     0.93756   0.45033   0.66879   0.00000  Uiso   1.00
O780   O     0.83333   0.31546   0.71026   0.00000  Uiso   1.00
O781   O     0.86593   0.00762   0.64672   0.00000  Uiso   1.00
O782   O     0.74360   0.14569   0.56884   0.00000  Uiso   1.00
O783   O     0.81893   0.13796   0.62738   0.00000  Uiso   1.00
O784   O     0.73768   0.17764   0.65304   0.00000  Uiso   1.00
O785   O     0.81530   0.36642   0.86255   0.00000  Uiso   1.00
O786   O     0.88097   0.36947   0.93108   0.00000  Uiso   1.00
O787   O     0.90789   0.33522   0.85420   0.00000  Uiso   1.00
O788   O     0.88358   0.36478   0.53018   0.00000  Uiso   1.00
O789   O     0.95429   0.33466   0.58251   0.00000  Uiso   1.00
O790   O     0.93877   0.30221   0.99602   0.00000  Uiso   1.00
O791   O     0.83334   0.18453   0.71026   0.00000  Uiso   1.00
O792   O     0.81101   0.13032   0.97488   0.00000  Uiso   1.00
O793   O     0.89090   0.13082   0.93823   0.00000  Uiso   1.00
O794   O     0.89532   0.16571   0.52353   0.00000  Uiso   1.00
O795   O     0.83333   0.31547   0.78974   0.00000  Uiso   1.00
O796   O     0.75725   0.25000   0.78045   0.00000  Uiso   1.00
O797   O     0.90942   0.25000   0.71955   0.00000  Uiso   1.00
O798   O     0.75725   0.24999   0.70097   0.00000  Uiso   1.00
O799   O     0.90942   0.25000   0.79903   0.00000  Uiso   1.00
O800   O     0.97055   0.27065   0.64753   0.00000  Uiso   1.00
S801   S     0.99344   0.29751   0.69137   0.00000  Uiso   1.00
S802   S     0.67464   0.20000   0.80723   0.00000  Uiso   1.00
S803   S     0.89060   0.02196   0.83549   0.00000  Uiso   1.00
S804   S     0.90222   0.48238   0.69014   0.00000  Uiso   1.00
S805   S     0.77615   0.16872   0.61100   0.00000  Uiso   1.00
S806   S     0.85940   0.34168   0.88735   0.00000  Uiso   1.00
S807   S     0.91186   0.32283   0.54262   0.00000  Uiso   1.00
S808   S     0.85972   0.15700   0.97024   0.00000  Uiso   1.00
Zn809  Zn    0.83333   0.25000   0.80307   0.00000  Uiso   1.00
Zn810  Zn    0.83333   0.24999   0.69693   0.00000  Uiso   1.00
C811   C     0.16595   0.66386   0.74913   0.00000  Uiso   1.00
C812   C     0.17598   0.70868   0.94566   0.00000  Uiso   1.00
C813   C     0.17155   0.75103   0.52728   0.00000  Uiso   1.00
C814   C     0.17099   0.74866   0.97404   0.00000  Uiso   1.00
C815   C     0.06755   0.75013   0.73828   0.00000  Uiso   1.00
C816   C     0.26594   0.74942   0.76183   0.00000  Uiso   1.00
C817   C     0.01447   0.75848   0.73442   0.00000  Uiso   1.00
C818   C     0.31944   0.74114   0.76612   0.00000  Uiso   1.00
C819   C     0.18855   0.54811   0.78762   0.00000  Uiso   1.00
C820   C     0.19378   0.95344   0.72356   0.00000  Uiso   1.00
C821   C     0.19178   0.59439   0.78579   0.00000  Uiso   1.00
C822   C     0.16596   0.83597   0.75074   0.00000  Uiso   1.00
C823   C     0.19660   0.90732   0.72562   0.00000  Uiso   1.00
C824   C     0.16370   0.61561   0.74853   0.00000  Uiso   1.00
C825   C     0.16359   0.88387   0.75121   0.00000  Uiso   1.00
C826   C     0.12946   0.59098   0.71463   0.00000  Uiso   1.00
C827   C     0.12494   0.90567   0.77224   0.00000  Uiso   1.00
C828   C     0.12626   0.54486   0.71567   0.00000  Uiso   1.00
C829   C     0.12212   0.95174   0.77110   0.00000  Uiso   1.00
C830   C     0.15666   0.52356   0.75120   0.00000  Uiso   1.00
C831   C     0.15720   0.97550   0.74794   0.00000  Uiso   1.00
C832   C     0.13884   0.72126   0.54582   0.00000  Uiso   1.00
C833   C     0.16287   0.78772   0.95031   0.00000  Uiso   1.00
C834   C     0.13885   0.71866   0.59461   0.00000  Uiso   1.00
C835   C     0.16891   0.78910   0.90252   0.00000  Uiso   1.00
C836   C     0.19511   0.78270   0.60864   0.00000  Uiso   1.00
C837   C     0.17019   0.71023   0.89562   0.00000  Uiso   1.00
C838   C     0.20064   0.78296   0.55989   0.00000  Uiso   1.00
H839   H     0.10420   0.60715   0.68827   0.00000  Uiso   1.00
H840   H     0.22390   0.52772   0.63351   0.00000  Uiso   1.00
H841   H     0.21583   0.61400   0.81348   0.00000  Uiso   1.00
H842   H     0.22421   0.88956   0.70713   0.00000  Uiso   1.00
H843   H     0.11462   0.69824   0.52157   0.00000  Uiso   1.00
H844   H     0.15710   0.81850   0.97020   0.00000  Uiso   1.00
H845   H     0.04027   0.65723   0.64420   0.00000  Uiso   1.00
H846   H     0.25006   0.86593   0.84558   0.00000  Uiso   1.00
H847   H     0.29622   0.82639   0.98896   0.00000  Uiso   1.00
H848   H     0.22876   0.63622   0.53788   0.00000  Uiso   1.00
H849   H     0.09652   0.88704   0.78861   0.00000  Uiso   1.00
H850   H     0.10077   0.52563   0.68849   0.00000  Uiso   1.00
H851   H     0.09313   0.96901   0.78860   0.00000  Uiso   1.00
H852   H     0.21528   0.80812   0.63293   0.00000  Uiso   1.00
H853   H     0.17198   0.67939   0.87462   0.00000  Uiso   1.00
H854   H     0.05263   0.85022   0.70612   0.00000  Uiso   1.00
H855   H     0.30561   0.65227   0.84830   0.00000  Uiso   1.00
H856   H     0.20343   0.97557   0.88610   0.00000  Uiso   1.00
N857   N     0.16667   0.74999   0.62623   0.00000  Uiso   1.00
N858   N     0.16667   0.75001   0.87377   0.00000  Uiso   1.00
O859   O     0.16667   0.68453   0.78974   0.00000  Uiso   1.00
O860   O     0.28710   0.82824   0.70781   0.00000  Uiso   1.00
O861   O     0.04374   0.82896   0.67841   0.00000  Uiso   1.00
O862   O     0.04183   0.66699   0.78531   0.00000  Uiso   1.00
O863   O     0.03823   0.72316   0.85048   0.00000  Uiso   1.00
O864   O     0.29038   0.67183   0.82353   0.00000  Uiso   1.00
O865   O     0.25967   0.98837   0.81721   0.00000  Uiso   1.00
O866   O     0.25551   0.55617   0.86832   0.00000  Uiso   1.00
O867   O     0.18185   0.99525   0.86523   0.00000  Uiso   1.00
O868   O     0.26788   0.51738   0.72129   0.00000  Uiso   1.00
O869   O     0.27089   0.95033   0.66879   0.00000  Uiso   1.00
O870   O     0.16666   0.81546   0.71026   0.00000  Uiso   1.00
O871   O     0.19926   0.50762   0.64672   0.00000  Uiso   1.00
O872   O     0.07694   0.64569   0.56884   0.00000  Uiso   1.00
O873   O     0.15227   0.63796   0.62738   0.00000  Uiso   1.00
O874   O     0.07102   0.67764   0.65304   0.00000  Uiso   1.00
O875   O     0.14864   0.86642   0.86255   0.00000  Uiso   1.00
O876   O     0.21430   0.86947   0.93108   0.00000  Uiso   1.00
O877   O     0.24122   0.83522   0.85420   0.00000  Uiso   1.00
O878   O     0.21691   0.86478   0.53018   0.00000  Uiso   1.00
O879   O     0.28762   0.83466   0.58251   0.00000  Uiso   1.00
O880   O     0.27210   0.80221   0.99602   0.00000  Uiso   1.00
O881   O     0.16667   0.68453   0.71026   0.00000  Uiso   1.00
O882   O     0.14435   0.63032   0.97488   0.00000  Uiso   1.00
O883   O     0.22424   0.63082   0.93823   0.00000  Uiso   1.00
O884   O     0.22865   0.66571   0.52353   0.00000  Uiso   1.00
O885   O     0.16666   0.81547   0.78974   0.00000  Uiso   1.00
O886   O     0.09058   0.75000   0.78045   0.00000  Uiso   1.00
O887   O     0.24275   0.75000   0.71955   0.00000  Uiso   1.00
O888   O     0.09058   0.74999   0.70097   0.00000  Uiso   1.00
O889   O     0.24275   0.75000   0.79903   0.00000  Uiso   1.00
O890   O     0.30388   0.77065   0.64753   0.00000  Uiso   1.00
S891   S     0.32678   0.79751   0.69137   0.00000  Uiso   1.00
S892   S     0.00797   0.70000   0.80723   0.00000  Uiso   1.00
S893   S     0.22394   0.52196   0.83549   0.00000  Uiso   1.00
S894   S     0.23555   0.98238   0.69014   0.00000  Uiso   1.00
S895   S     0.10949   0.66872   0.61100   0.00000  Uiso   1.00
S896   S     0.19274   0.84168   0.88735   0.00000  Uiso   1.00
S897   S     0.24519   0.82283   0.54262   0.00000  Uiso   1.00
S898   S     0.19305   0.65700   0.97024   0.00000  Uiso   1.00
Zn899  Zn    0.16667   0.75000   0.80307   0.00000  Uiso   1.00
Zn900  Zn    0.16667   0.74999   0.69693   0.00000  Uiso   1.00
C901   C     0.49928   0.66386   0.74913   0.00000  Uiso   1.00
C902   C     0.50932   0.70868   0.94566   0.00000  Uiso   1.00
C903   C     0.50488   0.75103   0.52728   0.00000  Uiso   1.00
C904   C     0.50433   0.74866   0.97404   0.00000  Uiso   1.00
C905   C     0.40089   0.75013   0.73828   0.00000  Uiso   1.00
C906   C     0.59928   0.74942   0.76183   0.00000  Uiso   1.00
C907   C     0.34780   0.75848   0.73442   0.00000  Uiso   1.00
C908   C     0.65278   0.74114   0.76612   0.00000  Uiso   1.00
C909   C     0.52188   0.54811   0.78762   0.00000  Uiso   1.00
C910   C     0.52712   0.95344   0.72356   0.00000  Uiso   1.00
C911   C     0.52511   0.59439   0.78579   0.00000  Uiso   1.00
C912   C     0.49930   0.83597   0.75074   0.00000  Uiso   1.00
C913   C     0.52993   0.90732   0.72562   0.00000  Uiso   1.00
C914   C     0.49704   0.61561   0.74853   0.00000  Uiso   1.00
C915   C     0.49693   0.88387   0.75121   0.00000  Uiso   1.00
C916   C     0.46279   0.59098   0.71463   0.00000  Uiso   1.00
C917   C     0.45827   0.90567   0.77224   0.00000  Uiso   1.00
C918   C     0.45960   0.54486   0.71567   0.00000  Uiso   1.00
C919   C     0.45545   0.95174   0.77110   0.00000  Uiso   1.00
C920   C     0.49000   0.52356   0.75120   0.00000  Uiso   1.00
C921   C     0.49054   0.97550   0.74794   0.00000  Uiso   1.00
C922   C     0.47217   0.72126   0.54582   0.00000  Uiso   1.00
C923   C     0.49620   0.78772   0.95031   0.00000  Uiso   1.00
C924   C     0.47219   0.71866   0.59461   0.00000  Uiso   1.00
C925   C     0.50225   0.78910   0.90252   0.00000  Uiso   1.00
C926   C     0.52844   0.78270   0.60864   0.00000  Uiso   1.00
C927   C     0.50352   0.71023   0.89562   0.00000  Uiso   1.00
C928   C     0.53397   0.78296   0.55989   0.00000  Uiso   1.00
H929   H     0.43753   0.60715   0.68827   0.00000  Uiso   1.00
H930   H     0.55723   0.52772   0.63351   0.00000  Uiso   1.00
H931   H     0.54916   0.61400   0.81348   0.00000  Uiso   1.00
H932   H     0.55754   0.88956   0.70713   0.00000  Uiso   1.00
H933   H     0.44795   0.69824   0.52157   0.00000  Uiso   1.00
H934   H     0.49044   0.81850   0.97020   0.00000  Uiso   1.00
H935   H     0.37360   0.65723   0.64420   0.00000  Uiso   1.00
H936   H     0.58339   0.86593   0.84558   0.00000  Uiso   1.00
H937   H     0.62956   0.82639   0.98896   0.00000  Uiso   1.00
H938   H     0.56209   0.63622   0.53788   0.00000  Uiso   1.00
H939   H     0.42986   0.88704   0.78861   0.00000  Uiso   1.00
H940   H     0.43411   0.52563   0.68849   0.00000  Uiso   1.00
H941   H     0.42646   0.96901   0.78860   0.00000  Uiso   1.00
H942   H     0.54862   0.80812   0.63293   0.00000  Uiso   1.00
H943   H     0.50531   0.67939   0.87462   0.00000  Uiso   1.00
H944   H     0.38596   0.85022   0.70612   0.00000  Uiso   1.00
H945   H     0.63894   0.65227   0.84830   0.00000  Uiso   1.00
H946   H     0.53676   0.97557   0.88610   0.00000  Uiso   1.00
N947   N     0.50000   0.74999   0.62623   0.00000  Uiso   1.00
N948   N     0.50000   0.75001   0.87377   0.00000  Uiso   1.00
O949   O     0.50000   0.68453   0.78974   0.00000  Uiso   1.00
O950   O     0.62044   0.82824   0.70781   0.00000  Uiso   1.00
O951   O     0.37708   0.82896   0.67841   0.00000  Uiso   1.00
O952   O     0.37516   0.66699   0.78531   0.00000  Uiso   1.00
O953   O     0.37156   0.72316   0.85048   0.00000  Uiso   1.00
O954   O     0.62372   0.67183   0.82353   0.00000  Uiso   1.00
O955   O     0.59300   0.98837   0.81721   0.00000  Uiso   1.00
O956   O     0.58884   0.55617   0.86832   0.00000  Uiso   1.00
O957   O     0.51518   0.99525   0.86523   0.00000  Uiso   1.00
O958   O     0.60121   0.51738   0.72129   0.00000  Uiso   1.00
O959   O     0.60423   0.95033   0.66879   0.00000  Uiso   1.00
O960   O     0.50000   0.81546   0.71026   0.00000  Uiso   1.00
O961   O     0.53260   0.50762   0.64672   0.00000  Uiso   1.00
O962   O     0.41027   0.64569   0.56884   0.00000  Uiso   1.00
O963   O     0.48560   0.63796   0.62738   0.00000  Uiso   1.00
O964   O     0.40435   0.67764   0.65304   0.00000  Uiso   1.00
O965   O     0.48197   0.86642   0.86255   0.00000  Uiso   1.00
O966   O     0.54764   0.86947   0.93108   0.00000  Uiso   1.00
O967   O     0.57456   0.83522   0.85420   0.00000  Uiso   1.00
O968   O     0.55024   0.86478   0.53018   0.00000  Uiso   1.00
O969   O     0.62095   0.83466   0.58251   0.00000  Uiso   1.00
O970   O     0.60543   0.80221   0.99602   0.00000  Uiso   1.00
O971   O     0.50000   0.68453   0.71026   0.00000  Uiso   1.00
O972   O     0.47768   0.63032   0.97488   0.00000  Uiso   1.00
O973   O     0.55757   0.63082   0.93823   0.00000  Uiso   1.00
O974   O     0.56199   0.66571   0.52353   0.00000  Uiso   1.00
O975   O     0.50000   0.81547   0.78974   0.00000  Uiso   1.00
O976   O     0.42392   0.75000   0.78045   0.00000  Uiso   1.00
O977   O     0.57608   0.75000   0.71955   0.00000  Uiso   1.00
O978   O     0.42392   0.74999   0.70097   0.00000  Uiso   1.00
O979   O     0.57608   0.75000   0.79903   0.00000  Uiso   1.00
O980   O     0.63721   0.77065   0.64753   0.00000  Uiso   1.00
S981   S     0.66011   0.79751   0.69137   0.00000  Uiso   1.00
S982   S     0.34130   0.70000   0.80723   0.00000  Uiso   1.00
S983   S     0.55727   0.52196   0.83549   0.00000  Uiso   1.00
S984   S     0.56889   0.98238   0.69014   0.00000  Uiso   1.00
S985   S     0.44282   0.66872   0.61100   0.00000  Uiso   1.00
S986   S     0.52607   0.84168   0.88735   0.00000  Uiso   1.00
S987   S     0.57852   0.82283   0.54262   0.00000  Uiso   1.00
S988   S     0.52639   0.65700   0.97024   0.00000  Uiso   1.00
Zn989  Zn    0.50000   0.75000   0.80307   0.00000  Uiso   1.00
Zn990  Zn    0.50000   0.74999   0.69693   0.00000  Uiso   1.00
C991   C     0.83261   0.66386   0.74913   0.00000  Uiso   1.00
C992   C     0.84265   0.70868   0.94566   0.00000  Uiso   1.00
C993   C     0.83821   0.75103   0.52728   0.00000  Uiso   1.00
C994   C     0.83766   0.74866   0.97404   0.00000  Uiso   1.00
C995   C     0.73422   0.75013   0.73828   0.00000  Uiso   1.00
C996   C     0.93261   0.74942   0.76183   0.00000  Uiso   1.00
C997   C     0.68114   0.75848   0.73442   0.00000  Uiso   1.00
C998   C     0.98611   0.74114   0.76612   0.00000  Uiso   1.00
C999   C     0.85522   0.54811   0.78762   0.00000  Uiso   1.00
C1000  C     0.86045   0.95344   0.72356   0.00000  Uiso   1.00
C1001  C     0.85845   0.59439   0.78579   0.00000  Uiso   1.00
C1002  C     0.83263   0.83597   0.75074   0.00000  Uiso   1.00
C1003  C     0.86327   0.90732   0.72562   0.00000  Uiso   1.00
C1004  C     0.83037   0.61561   0.74853   0.00000  Uiso   1.00
C1005  C     0.83026   0.88387   0.75121   0.00000  Uiso   1.00
C1006  C     0.79613   0.59098   0.71463   0.00000  Uiso   1.00
C1007  C     0.79161   0.90567   0.77224   0.00000  Uiso   1.00
C1008  C     0.79293   0.54486   0.71567   0.00000  Uiso   1.00
C1009  C     0.78878   0.95174   0.77110   0.00000  Uiso   1.00
C1010  C     0.82333   0.52356   0.75120   0.00000  Uiso   1.00
C1011  C     0.82387   0.97550   0.74794   0.00000  Uiso   1.00
C1012  C     0.80550   0.72126   0.54582   0.00000  Uiso   1.00
C1013  C     0.82953   0.78772   0.95031   0.00000  Uiso   1.00
C1014  C     0.80552   0.71866   0.59461   0.00000  Uiso   1.00
C1015  C     0.83558   0.78910   0.90252   0.00000  Uiso   1.00
C1016  C     0.86178   0.78270   0.60864   0.00000  Uiso   1.00
C1017  C     0.83686   0.71023   0.89562   0.00000  Uiso   1.00
C1018  C     0.86730   0.78296   0.55989   0.00000  Uiso   1.00
H1019  H     0.77087   0.60715   0.68827   0.00000  Uiso   1.00
H1020  H     0.89056   0.52772   0.63351   0.00000  Uiso   1.00
H1021  H     0.88249   0.61400   0.81348   0.00000  Uiso   1.00
H1022  H     0.89087   0.88956   0.70713   0.00000  Uiso   1.00
H1023  H     0.78128   0.69824   0.52157   0.00000  Uiso   1.00
H1024  H     0.82377   0.81850   0.97020   0.00000  Uiso   1.00
H1025  H     0.70693   0.65723   0.64420   0.00000  Uiso   1.00
H1026  H     0.91672   0.86593   0.84558   0.00000  Uiso   1.00
H1027  H     0.96289   0.82639   0.98896   0.00000  Uiso   1.00
H1028  H     0.89542   0.63622   0.53788   0.00000  Uiso   1.00
H1029  H     0.76319   0.88704   0.78861   0.00000  Uiso   1.00
H1030  H     0.76744   0.52563   0.68849   0.00000  Uiso   1.00
H1031  H     0.75980   0.96901   0.78860   0.00000  Uiso   1.00
H1032  H     0.88195   0.80812   0.63293   0.00000  Uiso   1.00
H1033  H     0.83864   0.67939   0.87462   0.00000  Uiso   1.00
H1034  H     0.71930   0.85022   0.70612   0.00000  Uiso   1.00
H1035  H     0.97228   0.65227   0.84830   0.00000  Uiso   1.00
H1036  H     0.87009   0.97557   0.88610   0.00000  Uiso   1.00
N1037  N     0.83333   0.74999   0.62623   0.00000  Uiso   1.00
N1038  N     0.83333   0.75001   0.87377   0.00000  Uiso   1.00
O1039  O     0.83334   0.68453   0.78974   0.00000  Uiso   1.00
O1040  O     0.95377   0.82824   0.70781   0.00000  Uiso   1.00
O1041  O     0.71041   0.82896   0.67841   0.00000  Uiso   1.00
O1042  O     0.70850   0.66699   0.78531   0.00000  Uiso   1.00
O1043  O     0.70489   0.72316   0.85048   0.00000  Uiso   1.00
O1044  O     0.95705   0.67183   0.82353   0.00000  Uiso   1.00
O1045  O     0.92633   0.98837   0.81721   0.00000  Uiso   1.00
O1046  O     0.92217   0.55617   0.86832   0.00000  Uiso   1.00
O1047  O     0.84852   0.99525   0.86523   0.00000  Uiso   1.00
O1048  O     0.93454   0.51738   0.72129   0.00000  Uiso   1.00
O1049  O     0.93756   0.95033   0.66879   0.00000  Uiso   1.00
O1050  O     0.83333   0.81546   0.71026   0.00000  Uiso   1.00
O1051  O     0.86593   0.50762   0.64672   0.00000  Uiso   1.00
O1052  O     0.74360   0.64569   0.56884   0.00000  Uiso   1.00
O1053  O     0.81893   0.63796   0.62738   0.00000  Uiso   1.00
O1054  O     0.73768   0.67764   0.65304   0.00000  Uiso   1.00
O1055  O     0.81530   0.86642   0.86255   0.00000  Uiso   1.00
O1056  O     0.88097   0.86947   0.93108   0.00000  Uiso   1.00
O1057  O     0.90789   0.83522   0.85420   0.00000  Uiso   1.00
O1058  O     0.88358   0.86478   0.53018   0.00000  Uiso   1.00
O1059  O     0.95429   0.83466   0.58251   0.00000  Uiso   1.00
O1060  O     0.93877   0.80221   0.99602   0.00000  Uiso   1.00
O1061  O     0.83334   0.68453   0.71026   0.00000  Uiso   1.00
O1062  O     0.81101   0.63032   0.97488   0.00000  Uiso   1.00
O1063  O     0.89090   0.63082   0.93823   0.00000  Uiso   1.00
O1064  O     0.89532   0.66571   0.52353   0.00000  Uiso   1.00
O1065  O     0.83333   0.81547   0.78974   0.00000  Uiso   1.00
O1066  O     0.75725   0.75000   0.78045   0.00000  Uiso   1.00
O1067  O     0.90942   0.75000   0.71955   0.00000  Uiso   1.00
O1068  O     0.75725   0.74999   0.70097   0.00000  Uiso   1.00
O1069  O     0.90942   0.75000   0.79903   0.00000  Uiso   1.00
O1070  O     0.97055   0.77065   0.64753   0.00000  Uiso   1.00
S1071  S     0.99344   0.79751   0.69137   0.00000  Uiso   1.00
S1072  S     0.67464   0.70000   0.80723   0.00000  Uiso   1.00
S1073  S     0.89060   0.52196   0.83549   0.00000  Uiso   1.00
S1074  S     0.90222   0.98238   0.69014   0.00000  Uiso   1.00
S1075  S     0.77615   0.66872   0.61100   0.00000  Uiso   1.00
S1076  S     0.85940   0.84168   0.88735   0.00000  Uiso   1.00
S1077  S     0.91186   0.82283   0.54262   0.00000  Uiso   1.00
S1078  S     0.85972   0.65700   0.97024   0.00000  Uiso   1.00
Zn1079 Zn    0.83333   0.75000   0.80307   0.00000  Uiso   1.00
Zn1080 Zn    0.83333   0.74999   0.69693   0.00000  Uiso   1.00
loop_
_geom_bond_atom_site_label_1
_geom_bond_atom_site_label_2
_geom_bond_distance
_geom_bond_site_symmetry_2
_ccdc_geom_bond_type
C1     O71     1.302   .     A
C1     C14     1.439   .     S
C1     O49     1.286   .     A
C2     S88     1.771   .     S
C2     C27     1.425   .     A
C2     C4      1.427   .     A
C3     C28     1.429   .     A
C3     C22     1.387   .     A
C3     C544    1.521   1_554 S
C4     C23     1.387   .     A
C4     C543    1.521   .     S
C5     C7      1.398   .     S
C5     O76     1.276   .     A
C5     O78     1.291   .     A
C6     O77     1.281   .     A
C6     C8      1.408   .     S
C6     O79     1.291   .     A
C7     C188    1.357   1_455 S
C7     S261    1.783   1_455 S
C8     C97     1.357   .     S
C8     S172    1.796   .     S
C9     C20     1.406   .     A
C9     C11     1.386   .     A
C9     S83     1.775   .     S
C10    C21     1.407   .     A
C10    C13     1.384   .     A
C10    S84     1.775   .     S
C11    C14     1.400   .     A
C11    H31     1.080   .     S
C12    C15     1.432   .     S
C12    O75     1.299   .     A
C12    O60     1.286   .     A
C13    H32     1.079   .     S
C13    C15     1.397   .     A
C14    C16     1.394   .     A
C15    C17     1.394   .     A
C16    H29     1.075   .     S
C16    C18     1.380   .     A
C17    H39     1.083   .     S
C17    C19     1.381   .     A
C18    H40     1.084   .     S
C18    C20     1.394   .     A
C19    C21     1.396   .     A
C19    H41     1.084   .     S
C20    C291    1.433   1_545 S
C21    C290    1.433   .     S
C22    C24     1.404   .     A
C22    H33     1.080   .     S
C23    H34     1.080   .     S
C23    C25     1.401   .     A
C24    S85     1.771   .     S
C24    N47     1.388   .     A
C25    N48     1.389   .     A
C25    S86     1.769   .     S
C26    N47     1.366   .     A
C26    H42     1.080   .     S
C26    C28     1.423   .     A
C27    N48     1.370   .     A
C27    H43     1.079   .     S
C28    S87     1.773   .     S
H30    O61     0.991   .     S
H35    O64     0.990   .     S
H36    O67     0.991   .     S
H37    O70     0.990   .     S
H38    O74     0.990   .     S
H44    O51     0.990   .     S
H45    O54     0.991   .     S
H46    O57     0.991   .     S
N47    Zn90    2.025   .     S
N48    Zn89    2.025   .     S
O49    Zn89    1.972   .     S
O50    S81     1.501   .     D
O51    S261    1.682   1_455 S
O52    S82     1.504   .     D
O53    S82     1.504   .     D
O54    S172    1.680   .     S
O55    S353    1.503   .     S
O56    S83     1.503   .     D
O57    S353    1.682   .     S
O58    S354    1.503   1_545 S
O59    S84     1.504   .     D
O60    Zn90    1.972   .     S
O61    S354    1.681   1_545 S
O62    S85     1.505   .     D
O63    S85     1.502   .     D
O64    S85     1.678   .     S
O65    S86     1.498   .     D
O66    S86     1.503   .     D
O67    S86     1.682   .     S
O68    S87     1.502   .     D
O69    S87     1.502   .     D
O70    S627    1.682   .     S
O71    Zn90    2.010   .     S
O72    S88     1.503   .     D
O73    S88     1.503   .     D
O74    S628    1.683   1_554 S
O75    Zn89    2.010   .     S
O76    Zn89    1.998   .     S
O77    Zn90    1.998   .     S
O78    Zn90    1.995   .     S
O79    Zn89    1.995   .     S
O80    S81     1.500   .     D
S81    O141    1.682   .     S
S81    C97     1.783   .     S
S82    O234    1.680   1_455 S
S82    C188    1.796   1_455 S
S83    O327    1.682   1_545 S
S83    O325    1.503   1_545 S
S84    O328    1.503   .     S
S84    O331    1.681   .     S
S87    O610    1.682   1_554 S
S88    O614    1.683   .     S
C91    O161    1.302   .     A
C91    C104    1.439   .     S
C91    O139    1.286   .     A
C92    S178    1.771   .     S
C92    C117    1.425   .     A
C92    C94     1.427   .     A
C93    C118    1.429   .     A
C93    C112    1.387   .     A
C93    C634    1.521   1_554 S
C94    C113    1.387   .     A
C94    C633    1.521   .     S
C95    C97     1.398   .     S
C95    O166    1.276   .     A
C95    O168    1.291   .     A
C96    O167    1.281   .     A
C96    C98     1.408   .     S
C96    O169    1.291   .     A
C98    C187    1.357   .     S
C98    S262    1.796   .     S
C99    C110    1.406   .     A
C99    C101    1.386   .     A
C99    S173    1.775   .     S
C100   C111    1.407   .     A
C100   C103    1.384   .     A
C100   S174    1.775   .     S
C101   C104    1.400   .     A
C101   H121    1.080   .     S
C102   C105    1.432   .     S
C102   O165    1.299   .     A
C102   O150    1.286   .     A
C103   H122    1.079   .     S
C103   C105    1.397   .     A
C104   C106    1.394   .     A
C105   C107    1.394   .     A
C106   H119    1.075   .     S
C106   C108    1.380   .     A
C107   H129    1.083   .     S
C107   C109    1.381   .     A
C108   H130    1.084   .     S
C108   C110    1.394   .     A
C109   C111    1.396   .     A
C109   H131    1.084   .     S
C110   C381    1.433   1_545 S
C111   C380    1.433   .     S
C112   C114    1.404   .     A
C112   H123    1.080   .     S
C113   H124    1.080   .     S
C113   C115    1.401   .     A
C114   S175    1.771   .     S
C114   N137    1.388   .     A
C115   N138    1.389   .     A
C115   S176    1.769   .     S
C116   N137    1.366   .     A
C116   H132    1.080   .     S
C116   C118    1.423   .     A
C117   N138    1.370   .     A
C117   H133    1.079   .     S
C118   S177    1.773   .     S
H120   O151    0.991   .     S
H125   O154    0.990   .     S
H126   O157    0.991   .     S
H127   O160    0.990   .     S
H128   O164    0.990   .     S
H134   O141    0.990   .     S
H135   O144    0.991   .     S
H136   O147    0.991   .     S
N137   Zn180   2.025   .     S
N138   Zn179   2.025   .     S
O139   Zn179   1.972   .     S
O140   S171    1.501   .     D
O142   S172    1.504   .     D
O143   S172    1.504   .     D
O144   S262    1.680   .     S
O145   S443    1.503   .     S
O146   S173    1.503   .     D
O147   S443    1.682   .     S
O148   S444    1.503   1_545 S
O149   S174    1.504   .     D
O150   Zn180   1.972   .     S
O151   S444    1.681   1_545 S
O152   S175    1.505   .     D
O153   S175    1.502   .     D
O154   S175    1.678   .     S
O155   S176    1.498   .     D
O156   S176    1.503   .     D
O157   S176    1.682   .     S
O158   S177    1.502   .     D
O159   S177    1.502   .     D
O160   S717    1.682   .     S
O161   Zn180   2.010   .     S
O162   S178    1.503   .     D
O163   S178    1.503   .     D
O164   S718    1.683   1_554 S
O165   Zn179   2.010   .     S
O166   Zn179   1.998   .     S
O167   Zn180   1.998   .     S
O168   Zn180   1.995   .     S
O169   Zn179   1.995   .     S
O170   S171    1.500   .     D
S171   O231    1.682   .     S
S171   C187    1.783   .     S
S173   O417    1.682   1_545 S
S173   O415    1.503   1_545 S
S174   O418    1.503   .     S
S174   O421    1.681   .     S
S177   O700    1.682   1_554 S
S178   O704    1.683   .     S
C181   O251    1.302   .     A
C181   C194    1.439   .     S
C181   O229    1.286   .     A
C182   S268    1.771   .     S
C182   C207    1.425   .     A
C182   C184    1.427   .     A
C183   C208    1.429   .     A
C183   C202    1.387   .     A
C183   C724    1.521   1_554 S
C184   C203    1.387   .     A
C184   C723    1.521   .     S
C185   C187    1.398   .     S
C185   O256    1.276   .     A
C185   O258    1.291   .     A
C186   O257    1.281   .     A
C186   C188    1.408   .     S
C186   O259    1.291   .     A
C188   C7      1.357   1_655 S
C188   S82     1.796   1_655 S
C189   C200    1.406   .     A
C189   C191    1.386   .     A
C189   S263    1.775   .     S
C190   C201    1.407   .     A
C190   C193    1.384   .     A
C190   S264    1.775   .     S
C191   C194    1.400   .     A
C191   H211    1.080   .     S
C192   C195    1.432   .     S
C192   O255    1.299   .     A
C192   O240    1.286   .     A
C193   H212    1.079   .     S
C193   C195    1.397   .     A
C194   C196    1.394   .     A
C195   C197    1.394   .     A
C196   H209    1.075   .     S
C196   C198    1.380   .     A
C197   H219    1.083   .     S
C197   C199    1.381   .     A
C198   H220    1.084   .     S
C198   C200    1.394   .     A
C199   C201    1.396   .     A
C199   H221    1.084   .     S
C200   C471    1.433   1_545 S
C201   C470    1.433   .     S
C202   C204    1.404   .     A
C202   H213    1.080   .     S
C203   H214    1.080   .     S
C203   C205    1.401   .     A
C204   S265    1.771   .     S
C204   N227    1.388   .     A
C205   N228    1.389   .     A
C205   S266    1.769   .     S
C206   N227    1.366   .     A
C206   H222    1.080   .     S
C206   C208    1.423   .     A
C207   N228    1.370   .     A
C207   H223    1.079   .     S
C208   S267    1.773   .     S
H210   O241    0.991   .     S
H215   O244    0.990   .     S
H216   O247    0.991   .     S
H217   O250    0.990   .     S
H218   O254    0.990   .     S
H224   O231    0.990   .     S
H225   O234    0.991   .     S
H226   O237    0.991   .     S
N227   Zn270   2.025   .     S
N228   Zn269   2.025   .     S
O229   Zn269   1.972   .     S
O230   S261    1.501   .     D
O232   S262    1.504   .     D
O233   S262    1.504   .     D
O234   S82     1.680   1_655 S
O235   S533    1.503   .     S
O236   S263    1.503   .     D
O237   S533    1.682   .     S
O238   S534    1.503   1_545 S
O239   S264    1.504   .     D
O240   Zn270   1.972   .     S
O241   S534    1.681   1_545 S
O242   S265    1.505   .     D
O243   S265    1.502   .     D
O244   S265    1.678   .     S
O245   S266    1.498   .     D
O246   S266    1.503   .     D
O247   S266    1.682   .     S
O248   S267    1.502   .     D
O249   S267    1.502   .     D
O250   S807    1.682   .     S
O251   Zn270   2.010   .     S
O252   S268    1.503   .     D
O253   S268    1.503   .     D
O254   S808    1.683   1_554 S
O255   Zn269   2.010   .     S
O256   Zn269   1.998   .     S
O257   Zn270   1.998   .     S
O258   Zn270   1.995   .     S
O259   Zn269   1.995   .     S
O260   S261    1.500   .     D
S261   O51     1.682   1_655 S
S261   C7      1.783   1_655 S
S263   O507    1.682   1_545 S
S263   O505    1.503   1_545 S
S264   O508    1.503   .     S
S264   O511    1.681   .     S
S267   O790    1.682   1_554 S
S268   O794    1.683   .     S
C271   O341    1.302   .     A
C271   C284    1.439   .     S
C271   O319    1.286   .     A
C272   S358    1.771   .     S
C272   C297    1.425   .     A
C272   C274    1.427   .     A
C273   C298    1.429   .     A
C273   C292    1.387   .     A
C273   C814    1.521   1_554 S
C274   C293    1.387   .     A
C274   C813    1.521   .     S
C275   C277    1.398   .     S
C275   O346    1.276   .     A
C275   O348    1.291   .     A
C276   O347    1.281   .     A
C276   C278    1.408   .     S
C276   O349    1.291   .     A
C277   C458    1.357   1_455 S
C277   S531    1.783   1_455 S
C278   C367    1.357   .     S
C278   S442    1.796   .     S
C279   C290    1.406   .     A
C279   C281    1.386   .     A
C279   S353    1.775   .     S
C280   C291    1.407   .     A
C280   C283    1.384   .     A
C280   S354    1.775   .     S
C281   C284    1.400   .     A
C281   H301    1.080   .     S
C282   C285    1.432   .     S
C282   O345    1.299   .     A
C282   O330    1.286   .     A
C283   H302    1.079   .     S
C283   C285    1.397   .     A
C284   C286    1.394   .     A
C285   C287    1.394   .     A
C286   H299    1.075   .     S
C286   C288    1.380   .     A
C287   H309    1.083   .     S
C287   C289    1.381   .     A
C288   H310    1.084   .     S
C288   C290    1.394   .     A
C289   C291    1.396   .     A
C289   H311    1.084   .     S
C291   C20     1.433   1_565 S
C292   C294    1.404   .     A
C292   H303    1.080   .     S
C293   H304    1.080   .     S
C293   C295    1.401   .     A
C294   S355    1.771   .     S
C294   N317    1.388   .     A
C295   N318    1.389   .     A
C295   S356    1.769   .     S
C296   N317    1.366   .     A
C296   H312    1.080   .     S
C296   C298    1.423   .     A
C297   N318    1.370   .     A
C297   H313    1.079   .     S
C298   S357    1.773   .     S
H300   O331    0.991   .     S
H305   O334    0.990   .     S
H306   O337    0.991   .     S
H307   O340    0.990   .     S
H308   O344    0.990   .     S
H314   O321    0.990   .     S
H315   O324    0.991   .     S
H316   O327    0.991   .     S
N317   Zn360   2.025   .     S
N318   Zn359   2.025   .     S
O319   Zn359   1.972   .     S
O320   S351    1.501   .     D
O321   S531    1.682   1_455 S
O322   S352    1.504   .     D
O323   S352    1.504   .     D
O324   S442    1.680   .     S
O325   S83     1.503   1_565 S
O326   S353    1.503   .     D
O327   S83     1.682   1_565 S
O329   S354    1.504   .     D
O330   Zn360   1.972   .     S
O332   S355    1.505   .     D
O333   S355    1.502   .     D
O334   S355    1.678   .     S
O335   S356    1.498   .     D
O336   S356    1.503   .     D
O337   S356    1.682   .     S
O338   S357    1.502   .     D
O339   S357    1.502   .     D
O340   S897    1.682   .     S
O341   Zn360   2.010   .     S
O342   S358    1.503   .     D
O343   S358    1.503   .     D
O344   S898    1.683   1_554 S
O345   Zn359   2.010   .     S
O346   Zn359   1.998   .     S
O347   Zn360   1.998   .     S
O348   Zn360   1.995   .     S
O349   Zn359   1.995   .     S
O350   S351    1.500   .     D
S351   O411    1.682   .     S
S351   C367    1.783   .     S
S352   O504    1.680   1_455 S
S352   C458    1.796   1_455 S
S354   O58     1.503   1_565 S
S354   O61     1.681   1_565 S
S357   O880    1.682   1_554 S
S358   O884    1.683   .     S
C361   O431    1.302   .     A
C361   C374    1.439   .     S
C361   O409    1.286   .     A
C362   S448    1.771   .     S
C362   C387    1.425   .     A
C362   C364    1.427   .     A
C363   C388    1.429   .     A
C363   C382    1.387   .     A
C363   C904    1.521   1_554 S
C364   C383    1.387   .     A
C364   C903    1.521   .     S
C365   C367    1.398   .     S
C365   O436    1.276   .     A
C365   O438    1.291   .     A
C366   O437    1.281   .     A
C366   C368    1.408   .     S
C366   O439    1.291   .     A
C368   C457    1.357   .     S
C368   S532    1.796   .     S
C369   C380    1.406   .     A
C369   C371    1.386   .     A
C369   S443    1.775   .     S
C370   C381    1.407   .     A
C370   C373    1.384   .     A
C370   S444    1.775   .     S
C371   C374    1.400   .     A
C371   H391    1.080   .     S
C372   C375    1.432   .     S
C372   O435    1.299   .     A
C372   O420    1.286   .     A
C373   H392    1.079   .     S
C373   C375    1.397   .     A
C374   C376    1.394   .     A
C375   C377    1.394   .     A
C376   H389    1.075   .     S
C376   C378    1.380   .     A
C377   H399    1.083   .     S
C377   C379    1.381   .     A
C378   H400    1.084   .     S
C378   C380    1.394   .     A
C379   C381    1.396   .     A
C379   H401    1.084   .     S
C381   C110    1.433   1_565 S
C382   C384    1.404   .     A
C382   H393    1.080   .     S
C383   H394    1.080   .     S
C383   C385    1.401   .     A
C384   S445    1.771   .     S
C384   N407    1.388   .     A
C385   N408    1.389   .     A
C385   S446    1.769   .     S
C386   N407    1.366   .     A
C386   H402    1.080   .     S
C386   C388    1.423   .     A
C387   N408    1.370   .     A
C387   H403    1.079   .     S
C388   S447    1.773   .     S
H390   O421    0.991   .     S
H395   O424    0.990   .     S
H396   O427    0.991   .     S
H397   O430    0.990   .     S
H398   O434    0.990   .     S
H404   O411    0.990   .     S
H405   O414    0.991   .     S
H406   O417    0.991   .     S
N407   Zn450   2.025   .     S
N408   Zn449   2.025   .     S
O409   Zn449   1.972   .     S
O410   S441    1.501   .     D
O412   S442    1.504   .     D
O413   S442    1.504   .     D
O414   S532    1.680   .     S
O415   S173    1.503   1_565 S
O416   S443    1.503   .     D
O417   S173    1.682   1_565 S
O419   S444    1.504   .     D
O420   Zn450   1.972   .     S
O422   S445    1.505   .     D
O423   S445    1.502   .     D
O424   S445    1.678   .     S
O425   S446    1.498   .     D
O426   S446    1.503   .     D
O427   S446    1.682   .     S
O428   S447    1.502   .     D
O429   S447    1.502   .     D
O430   S987    1.682   .     S
O431   Zn450   2.010   .     S
O432   S448    1.503   .     D
O433   S448    1.503   .     D
O434   S988    1.683   1_554 S
O435   Zn449   2.010   .     S
O436   Zn449   1.998   .     S
O437   Zn450   1.998   .     S
O438   Zn450   1.995   .     S
O439   Zn449   1.995   .     S
O440   S441    1.500   .     D
S441   O501    1.682   .     S
S441   C457    1.783   .     S
S444   O148    1.503   1_565 S
S444   O151    1.681   1_565 S
S447   O970    1.682   1_554 S
S448   O974    1.683   .     S
C451   O521    1.302   .     A
C451   C464    1.439   .     S
C451   O499    1.286   .     A
C452   S538    1.771   .     S
C452   C477    1.425   .     A
C452   C454    1.427   .     A
C453   C478    1.429   .     A
C453   C472    1.387   .     A
C453   C994    1.521   1_554 S
C454   C473    1.387   .     A
C454   C993    1.521   .     S
C455   C457    1.398   .     S
C455   O526    1.276   .     A
C455   O528    1.291   .     A
C456   O527    1.281   .     A
C456   C458    1.408   .     S
C456   O529    1.291   .     A
C458   C277    1.357   1_655 S
C458   S352    1.796   1_655 S
C459   C470    1.406   .     A
C459   C461    1.386   .     A
C459   S533    1.775   .     S
C460   C471    1.407   .     A
C460   C463    1.384   .     A
C460   S534    1.775   .     S
C461   C464    1.400   .     A
C461   H481    1.080   .     S
C462   C465    1.432   .     S
C462   O525    1.299   .     A
C462   O510    1.286   .     A
C463   H482    1.079   .     S
C463   C465    1.397   .     A
C464   C466    1.394   .     A
C465   C467    1.394   .     A
C466   H479    1.075   .     S
C466   C468    1.380   .     A
C467   H489    1.083   .     S
C467   C469    1.381   .     A
C468   H490    1.084   .     S
C468   C470    1.394   .     A
C469   C471    1.396   .     A
C469   H491    1.084   .     S
C471   C200    1.433   1_565 S
C472   C474    1.404   .     A
C472   H483    1.080   .     S
C473   H484    1.080   .     S
C473   C475    1.401   .     A
C474   S535    1.771   .     S
C474   N497    1.388   .     A
C475   N498    1.389   .     A
C475   S536    1.769   .     S
C476   N497    1.366   .     A
C476   H492    1.080   .     S
C476   C478    1.423   .     A
C477   N498    1.370   .     A
C477   H493    1.079   .     S
C478   S537    1.773   .     S
H480   O511    0.991   .     S
H485   O514    0.990   .     S
H486   O517    0.991   .     S
H487   O520    0.990   .     S
H488   O524    0.990   .     S
H494   O501    0.990   .     S
H495   O504    0.991   .     S
H496   O507    0.991   .     S
N497   Zn540   2.025   .     S
N498   Zn539   2.025   .     S
O499   Zn539   1.972   .     S
O500   S531    1.501   .     D
O502   S532    1.504   .     D
O503   S532    1.504   .     D
O504   S352    1.680   1_655 S
O505   S263    1.503   1_565 S
O506   S533    1.503   .     D
O507   S263    1.682   1_565 S
O509   S534    1.504   .     D
O510   Zn540   1.972   .     S
O512   S535    1.505   .     D
O513   S535    1.502   .     D
O514   S535    1.678   .     S
O515   S536    1.498   .     D
O516   S536    1.503   .     D
O517   S536    1.682   .     S
O518   S537    1.502   .     D
O519   S537    1.502   .     D
O520   S1077   1.682   .     S
O521   Zn540   2.010   .     S
O522   S538    1.503   .     D
O523   S538    1.503   .     D
O524   S1078   1.683   1_554 S
O525   Zn539   2.010   .     S
O526   Zn539   1.998   .     S
O527   Zn540   1.998   .     S
O528   Zn540   1.995   .     S
O529   Zn539   1.995   .     S
O530   S531    1.500   .     D
S531   O321    1.682   1_655 S
S531   C277    1.783   1_655 S
S534   O238    1.503   1_565 S
S534   O241    1.681   1_565 S
S537   O1060   1.682   1_554 S
S538   O1064   1.683   .     S
C541   O611    1.302   .     A
C541   C554    1.439   .     S
C541   O589    1.286   .     A
C542   S628    1.771   .     S
C542   C567    1.425   .     A
C542   C544    1.427   .     A
C543   C568    1.429   .     A
C543   C562    1.387   .     A
C544   C563    1.387   .     A
C544   C3      1.521   1_556 S
C545   C547    1.398   .     S
C545   O616    1.276   .     A
C545   O618    1.291   .     A
C546   O617    1.281   .     A
C546   C548    1.408   .     S
C546   O619    1.291   .     A
C547   C728    1.357   1_455 S
C547   S801    1.783   1_455 S
C548   C637    1.357   .     S
C548   S712    1.796   .     S
C549   C560    1.406   .     A
C549   C551    1.386   .     A
C549   S623    1.775   .     S
C550   C561    1.407   .     A
C550   C553    1.384   .     A
C550   S624    1.775   .     S
C551   C554    1.400   .     A
C551   H571    1.080   .     S
C552   C555    1.432   .     S
C552   O615    1.299   .     A
C552   O600    1.286   .     A
C553   H572    1.079   .     S
C553   C555    1.397   .     A
C554   C556    1.394   .     A
C555   C557    1.394   .     A
C556   H569    1.075   .     S
C556   C558    1.380   .     A
C557   H579    1.083   .     S
C557   C559    1.381   .     A
C558   H580    1.084   .     S
C558   C560    1.394   .     A
C559   C561    1.396   .     A
C559   H581    1.084   .     S
C560   C831    1.433   1_545 S
C561   C830    1.433   .     S
C562   C564    1.404   .     A
C562   H573    1.080   .     S
C563   H574    1.080   .     S
C563   C565    1.401   .     A
C564   S625    1.771   .     S
C564   N587    1.388   .     A
C565   N588    1.389   .     A
C565   S626    1.769   .     S
C566   N587    1.366   .     A
C566   H582    1.080   .     S
C566   C568    1.423   .     A
C567   N588    1.370   .     A
C567   H583    1.079   .     S
C568   S627    1.773   .     S
H570   O601    0.991   .     S
H575   O604    0.990   .     S
H576   O607    0.991   .     S
H577   O610    0.990   .     S
H578   O614    0.990   .     S
H584   O591    0.990   .     S
H585   O594    0.991   .     S
H586   O597    0.991   .     S
N587   Zn630   2.025   .     S
N588   Zn629   2.025   .     S
O589   Zn629   1.972   .     S
O590   S621    1.501   .     D
O591   S801    1.682   1_455 S
O592   S622    1.504   .     D
O593   S622    1.504   .     D
O594   S712    1.680   .     S
O595   S893    1.503   .     S
O596   S623    1.503   .     D
O597   S893    1.682   .     S
O598   S894    1.503   1_545 S
O599   S624    1.504   .     D
O600   Zn630   1.972   .     S
O601   S894    1.681   1_545 S
O602   S625    1.505   .     D
O603   S625    1.502   .     D
O604   S625    1.678   .     S
O605   S626    1.498   .     D
O606   S626    1.503   .     D
O607   S626    1.682   .     S
O608   S627    1.502   .     D
O609   S627    1.502   .     D
O610   S87     1.682   1_556 S
O611   Zn630   2.010   .     S
O612   S628    1.503   .     D
O613   S628    1.503   .     D
O615   Zn629   2.010   .     S
O616   Zn629   1.998   .     S
O617   Zn630   1.998   .     S
O618   Zn630   1.995   .     S
O619   Zn629   1.995   .     S
O620   S621    1.500   .     D
S621   O681    1.682   .     S
S621   C637    1.783   .     S
S622   O774    1.680   1_455 S
S622   C728    1.796   1_455 S
S623   O867    1.682   1_545 S
S623   O865    1.503   1_545 S
S624   O868    1.503   .     S
S624   O871    1.681   .     S
S628   O74     1.683   1_556 S
C631   O701    1.302   .     A
C631   C644    1.439   .     S
C631   O679    1.286   .     A
C632   S718    1.771   .     S
C632   C657    1.425   .     A
C632   C634    1.427   .     A
C633   C658    1.429   .     A
C633   C652    1.387   .     A
C634   C653    1.387   .     A
C634   C93     1.521   1_556 S
C635   C637    1.398   .     S
C635   O706    1.276   .     A
C635   O708    1.291   .     A
C636   O707    1.281   .     A
C636   C638    1.408   .     S
C636   O709    1.291   .     A
C638   C727    1.357   .     S
C638   S802    1.796   .     S
C639   C650    1.406   .     A
C639   C641    1.386   .     A
C639   S713    1.775   .     S
C640   C651    1.407   .     A
C640   C643    1.384   .     A
C640   S714    1.775   .     S
C641   C644    1.400   .     A
C641   H661    1.080   .     S
C642   C645    1.432   .     S
C642   O705    1.299   .     A
C642   O690    1.286   .     A
C643   H662    1.079   .     S
C643   C645    1.397   .     A
C644   C646    1.394   .     A
C645   C647    1.394   .     A
C646   H659    1.075   .     S
C646   C648    1.380   .     A
C647   H669    1.083   .     S
C647   C649    1.381   .     A
C648   H670    1.084   .     S
C648   C650    1.394   .     A
C649   C651    1.396   .     A
C649   H671    1.084   .     S
C650   C921    1.433   1_545 S
C651   C920    1.433   .     S
C652   C654    1.404   .     A
C652   H663    1.080   .     S
C653   H664    1.080   .     S
C653   C655    1.401   .     A
C654   S715    1.771   .     S
C654   N677    1.388   .     A
C655   N678    1.389   .     A
C655   S716    1.769   .     S
C656   N677    1.366   .     A
C656   H672    1.080   .     S
C656   C658    1.423   .     A
C657   N678    1.370   .     A
C657   H673    1.079   .     S
C658   S717    1.773   .     S
H660   O691    0.991   .     S
H665   O694    0.990   .     S
H666   O697    0.991   .     S
H667   O700    0.990   .     S
H668   O704    0.990   .     S
H674   O681    0.990   .     S
H675   O684    0.991   .     S
H676   O687    0.991   .     S
N677   Zn720   2.025   .     S
N678   Zn719   2.025   .     S
O679   Zn719   1.972   .     S
O680   S711    1.501   .     D
O682   S712    1.504   .     D
O683   S712    1.504   .     D
O684   S802    1.680   .     S
O685   S983    1.503   .     S
O686   S713    1.503   .     D
O687   S983    1.682   .     S
O688   S984    1.503   1_545 S
O689   S714    1.504   .     D
O690   Zn720   1.972   .     S
O691   S984    1.681   1_545 S
O692   S715    1.505   .     D
O693   S715    1.502   .     D
O694   S715    1.678   .     S
O695   S716    1.498   .     D
O696   S716    1.503   .     D
O697   S716    1.682   .     S
O698   S717    1.502   .     D
O699   S717    1.502   .     D
O700   S177    1.682   1_556 S
O701   Zn720   2.010   .     S
O702   S718    1.503   .     D
O703   S718    1.503   .     D
O705   Zn719   2.010   .     S
O706   Zn719   1.998   .     S
O707   Zn720   1.998   .     S
O708   Zn720   1.995   .     S
O709   Zn719   1.995   .     S
O710   S711    1.500   .     D
S711   O771    1.682   .     S
S711   C727    1.783   .     S
S713   O957    1.682   1_545 S
S713   O955    1.503   1_545 S
S714   O958    1.503   .     S
S714   O961    1.681   .     S
S718   O164    1.683   1_556 S
C721   O791    1.302   .     A
C721   C734    1.439   .     S
C721   O769    1.286   .     A
C722   S808    1.771   .     S
C722   C747    1.425   .     A
C722   C724    1.427   .     A
C723   C748    1.429   .     A
C723   C742    1.387   .     A
C724   C743    1.387   .     A
C724   C183    1.521   1_556 S
C725   C727    1.398   .     S
C725   O796    1.276   .     A
C725   O798    1.291   .     A
C726   O797    1.281   .     A
C726   C728    1.408   .     S
C726   O799    1.291   .     A
C728   C547    1.357   1_655 S
C728   S622    1.796   1_655 S
C729   C740    1.406   .     A
C729   C731    1.386   .     A
C729   S803    1.775   .     S
C730   C741    1.407   .     A
C730   C733    1.384   .     A
C730   S804    1.775   .     S
C731   C734    1.400   .     A
C731   H751    1.080   .     S
C732   C735    1.432   .     S
C732   O795    1.299   .     A
C732   O780    1.286   .     A
C733   H752    1.079   .     S
C733   C735    1.397   .     A
C734   C736    1.394   .     A
C735   C737    1.394   .     A
C736   H749    1.075   .     S
C736   C738    1.380   .     A
C737   H759    1.083   .     S
C737   C739    1.381   .     A
C738   H760    1.084   .     S
C738   C740    1.394   .     A
C739   C741    1.396   .     A
C739   H761    1.084   .     S
C740   C1011   1.433   1_545 S
C741   C1010   1.433   .     S
C742   C744    1.404   .     A
C742   H753    1.080   .     S
C743   H754    1.080   .     S
C743   C745    1.401   .     A
C744   S805    1.771   .     S
C744   N767    1.388   .     A
C745   N768    1.389   .     A
C745   S806    1.769   .     S
C746   N767    1.366   .     A
C746   H762    1.080   .     S
C746   C748    1.423   .     A
C747   N768    1.370   .     A
C747   H763    1.079   .     S
C748   S807    1.773   .     S
H750   O781    0.991   .     S
H755   O784    0.990   .     S
H756   O787    0.991   .     S
H757   O790    0.990   .     S
H758   O794    0.990   .     S
H764   O771    0.990   .     S
H765   O774    0.991   .     S
H766   O777    0.991   .     S
N767   Zn810   2.025   .     S
N768   Zn809   2.025   .     S
O769   Zn809   1.972   .     S
O770   S801    1.501   .     D
O772   S802    1.504   .     D
O773   S802    1.504   .     D
O774   S622    1.680   1_655 S
O775   S1073   1.503   .     S
O776   S803    1.503   .     D
O777   S1073   1.682   .     S
O778   S1074   1.503   1_545 S
O779   S804    1.504   .     D
O780   Zn810   1.972   .     S
O781   S1074   1.681   1_545 S
O782   S805    1.505   .     D
O783   S805    1.502   .     D
O784   S805    1.678   .     S
O785   S806    1.498   .     D
O786   S806    1.503   .     D
O787   S806    1.682   .     S
O788   S807    1.502   .     D
O789   S807    1.502   .     D
O790   S267    1.682   1_556 S
O791   Zn810   2.010   .     S
O792   S808    1.503   .     D
O793   S808    1.503   .     D
O795   Zn809   2.010   .     S
O796   Zn809   1.998   .     S
O797   Zn810   1.998   .     S
O798   Zn810   1.995   .     S
O799   Zn809   1.995   .     S
O800   S801    1.500   .     D
S801   O591    1.682   1_655 S
S801   C547    1.783   1_655 S
S803   O1047   1.682   1_545 S
S803   O1045   1.503   1_545 S
S804   O1048   1.503   .     S
S804   O1051   1.681   .     S
S808   O254    1.683   1_556 S
C811   O881    1.302   .     A
C811   C824    1.439   .     S
C811   O859    1.286   .     A
C812   S898    1.771   .     S
C812   C837    1.425   .     A
C812   C814    1.427   .     A
C813   C838    1.429   .     A
C813   C832    1.387   .     A
C814   C833    1.387   .     A
C814   C273    1.521   1_556 S
C815   C817    1.398   .     S
C815   O886    1.276   .     A
C815   O888    1.291   .     A
C816   O887    1.281   .     A
C816   C818    1.408   .     S
C816   O889    1.291   .     A
C817   C998    1.357   1_455 S
C817   S1071   1.783   1_455 S
C818   C907    1.357   .     S
C818   S982    1.796   .     S
C819   C830    1.406   .     A
C819   C821    1.386   .     A
C819   S893    1.775   .     S
C820   C831    1.407   .     A
C820   C823    1.384   .     A
C820   S894    1.775   .     S
C821   C824    1.400   .     A
C821   H841    1.080   .     S
C822   C825    1.432   .     S
C822   O885    1.299   .     A
C822   O870    1.286   .     A
C823   H842    1.079   .     S
C823   C825    1.397   .     A
C824   C826    1.394   .     A
C825   C827    1.394   .     A
C826   H839    1.075   .     S
C826   C828    1.380   .     A
C827   H849    1.083   .     S
C827   C829    1.381   .     A
C828   H850    1.084   .     S
C828   C830    1.394   .     A
C829   C831    1.396   .     A
C829   H851    1.084   .     S
C831   C560    1.433   1_565 S
C832   C834    1.404   .     A
C832   H843    1.080   .     S
C833   H844    1.080   .     S
C833   C835    1.401   .     A
C834   S895    1.771   .     S
C834   N857    1.388   .     A
C835   N858    1.389   .     A
C835   S896    1.769   .     S
C836   N857    1.366   .     A
C836   H852    1.080   .     S
C836   C838    1.423   .     A
C837   N858    1.370   .     A
C837   H853    1.079   .     S
C838   S897    1.773   .     S
H840   O871    0.991   .     S
H845   O874    0.990   .     S
H846   O877    0.991   .     S
H847   O880    0.990   .     S
H848   O884    0.990   .     S
H854   O861    0.990   .     S
H855   O864    0.991   .     S
H856   O867    0.991   .     S
N857   Zn900   2.025   .     S
N858   Zn899   2.025   .     S
O859   Zn899   1.972   .     S
O860   S891    1.501   .     D
O861   S1071   1.682   1_455 S
O862   S892    1.504   .     D
O863   S892    1.504   .     D
O864   S982    1.680   .     S
O865   S623    1.503   1_565 S
O866   S893    1.503   .     D
O867   S623    1.682   1_565 S
O869   S894    1.504   .     D
O870   Zn900   1.972   .     S
O872   S895    1.505   .     D
O873   S895    1.502   .     D
O874   S895    1.678   .     S
O875   S896    1.498   .     D
O876   S896    1.503   .     D
O877   S896    1.682   .     S
O878   S897    1.502   .     D
O879   S897    1.502   .     D
O880   S357    1.682   1_556 S
O881   Zn900   2.010   .     S
O882   S898    1.503   .     D
O883   S898    1.503   .     D
O885   Zn899   2.010   .     S
O886   Zn899   1.998   .     S
O887   Zn900   1.998   .     S
O888   Zn900   1.995   .     S
O889   Zn899   1.995   .     S
O890   S891    1.500   .     D
S891   O951    1.682   .     S
S891   C907    1.783   .     S
S892   O1044   1.680   1_455 S
S892   C998    1.796   1_455 S
S894   O598    1.503   1_565 S
S894   O601    1.681   1_565 S
S898   O344    1.683   1_556 S
C901   O971    1.302   .     A
C901   C914    1.439   .     S
C901   O949    1.286   .     A
C902   S988    1.771   .     S
C902   C927    1.425   .     A
C902   C904    1.427   .     A
C903   C928    1.429   .     A
C903   C922    1.387   .     A
C904   C923    1.387   .     A
C904   C363    1.521   1_556 S
C905   C907    1.398   .     S
C905   O976    1.276   .     A
C905   O978    1.291   .     A
C906   O977    1.281   .     A
C906   C908    1.408   .     S
C906   O979    1.291   .     A
C908   C997    1.357   .     S
C908   S1072   1.796   .     S
C909   C920    1.406   .     A
C909   C911    1.386   .     A
C909   S983    1.775   .     S
C910   C921    1.407   .     A
C910   C913    1.384   .     A
C910   S984    1.775   .     S
C911   C914    1.400   .     A
C911   H931    1.080   .     S
C912   C915    1.432   .     S
C912   O975    1.299   .     A
C912   O960    1.286   .     A
C913   H932    1.079   .     S
C913   C915    1.397   .     A
C914   C916    1.394   .     A
C915   C917    1.394   .     A
C916   H929    1.075   .     S
C916   C918    1.380   .     A
C917   H939    1.083   .     S
C917   C919    1.381   .     A
C918   H940    1.084   .     S
C918   C920    1.394   .     A
C919   C921    1.396   .     A
C919   H941    1.084   .     S
C921   C650    1.433   1_565 S
C922   C924    1.404   .     A
C922   H933    1.080   .     S
C923   H934    1.080   .     S
C923   C925    1.401   .     A
C924   S985    1.771   .     S
C924   N947    1.388   .     A
C925   N948    1.389   .     A
C925   S986    1.769   .     S
C926   N947    1.366   .     A
C926   H942    1.080   .     S
C926   C928    1.423   .     A
C927   N948    1.370   .     A
C927   H943    1.079   .     S
C928   S987    1.773   .     S
H930   O961    0.991   .     S
H935   O964    0.990   .     S
H936   O967    0.991   .     S
H937   O970    0.990   .     S
H938   O974    0.990   .     S
H944   O951    0.990   .     S
H945   O954    0.991   .     S
H946   O957    0.991   .     S
N947   Zn990   2.025   .     S
N948   Zn989   2.025   .     S
O949   Zn989   1.972   .     S
O950   S981    1.501   .     D
O952   S982    1.504   .     D
O953   S982    1.504   .     D
O954   S1072   1.680   .     S
O955   S713    1.503   1_565 S
O956   S983    1.503   .     D
O957   S713    1.682   1_565 S
O959   S984    1.504   .     D
O960   Zn990   1.972   .     S
O962   S985    1.505   .     D
O963   S985    1.502   .     D
O964   S985    1.678   .     S
O965   S986    1.498   .     D
O966   S986    1.503   .     D
O967   S986    1.682   .     S
O968   S987    1.502   .     D
O969   S987    1.502   .     D
O970   S447    1.682   1_556 S
O971   Zn990   2.010   .     S
O972   S988    1.503   .     D
O973   S988    1.503   .     D
O975   Zn989   2.010   .     S
O976   Zn989   1.998   .     S
O977   Zn990   1.998   .     S
O978   Zn990   1.995   .     S
O979   Zn989   1.995   .     S
O980   S981    1.500   .     D
S981   O1041   1.682   .     S
S981   C997    1.783   .     S
S984   O688    1.503   1_565 S
S984   O691    1.681   1_565 S
S988   O434    1.683   1_556 S
C991   O1061   1.302   .     A
C991   C1004   1.439   .     S
C991   O1039   1.286   .     A
C992   S1078   1.771   .     S
C992   C1017   1.425   .     A
C992   C994    1.427   .     A
C993   C1018   1.429   .     A
C993   C1012   1.387   .     A
C994   C1013   1.387   .     A
C994   C453    1.521   1_556 S
C995   C997    1.398   .     S
C995   O1066   1.276   .     A
C995   O1068   1.291   .     A
C996   O1067   1.281   .     A
C996   C998    1.408   .     S
C996   O1069   1.291   .     A
C998   C817    1.357   1_655 S
C998   S892    1.796   1_655 S
C999   C1010   1.406   .     A
C999   C1001   1.386   .     A
C999   S1073   1.775   .     S
C1000  C1011   1.407   .     A
C1000  C1003   1.384   .     A
C1000  S1074   1.775   .     S
C1001  C1004   1.400   .     A
C1001  H1021   1.080   .     S
C1002  C1005   1.432   .     S
C1002  O1065   1.299   .     A
C1002  O1050   1.286   .     A
C1003  H1022   1.079   .     S
C1003  C1005   1.397   .     A
C1004  C1006   1.394   .     A
C1005  C1007   1.394   .     A
C1006  H1019   1.075   .     S
C1006  C1008   1.380   .     A
C1007  H1029   1.083   .     S
C1007  C1009   1.381   .     A
C1008  H1030   1.084   .     S
C1008  C1010   1.394   .     A
C1009  C1011   1.396   .     A
C1009  H1031   1.084   .     S
C1011  C740    1.433   1_565 S
C1012  C1014   1.404   .     A
C1012  H1023   1.080   .     S
C1013  H1024   1.080   .     S
C1013  C1015   1.401   .     A
C1014  S1075   1.771   .     S
C1014  N1037   1.388   .     A
C1015  N1038   1.389   .     A
C1015  S1076   1.769   .     S
C1016  N1037   1.366   .     A
C1016  H1032   1.080   .     S
C1016  C1018   1.423   .     A
C1017  N1038   1.370   .     A
C1017  H1033   1.079   .     S
C1018  S1077   1.773   .     S
H1020  O1051   0.991   .     S
H1025  O1054   0.990   .     S
H1026  O1057   0.991   .     S
H1027  O1060   0.990   .     S
H1028  O1064   0.990   .     S
H1034  O1041   0.990   .     S
H1035  O1044   0.991   .     S
H1036  O1047   0.991   .     S
N1037  Zn1080  2.025   .     S
N1038  Zn1079  2.025   .     S
O1039  Zn1079  1.972   .     S
O1040  S1071   1.501   .     D
O1042  S1072   1.504   .     D
O1043  S1072   1.504   .     D
O1044  S892    1.680   1_655 S
O1045  S803    1.503   1_565 S
O1046  S1073   1.503   .     D
O1047  S803    1.682   1_565 S
O1049  S1074   1.504   .     D
O1050  Zn1080  1.972   .     S
O1052  S1075   1.505   .     D
O1053  S1075   1.502   .     D
O1054  S1075   1.678   .     S
O1055  S1076   1.498   .     D
O1056  S1076   1.503   .     D
O1057  S1076   1.682   .     S
O1058  S1077   1.502   .     D
O1059  S1077   1.502   .     D
O1060  S537    1.682   1_556 S
O1061  Zn1080  2.010   .     S
O1062  S1078   1.503   .     D
O1063  S1078   1.503   .     D
O1065  Zn1079  2.010   .     S
O1066  Zn1079  1.998   .     S
O1067  Zn1080  1.998   .     S
O1068  Zn1080  1.995   .     S
O1069  Zn1079  1.995   .     S
O1070  S1071   1.500   .     D
S1071  O861    1.682   1_655 S
S1071  C817    1.783   1_655 S
S1074  O778    1.503   1_565 S
S1074  O781    1.681   1_565 S
S1078  O524    1.683   1_556 S
