data_str_m2_o1_o2_pcu_sym.109
_audit_creation_date              2020-01-03
_audit_creation_method            'Materials Studio'
_symmetry_space_group_name_H-M    'P1'
_symmetry_Int_Tables_number       1
_symmetry_cell_setting            triclinic
loop_
_symmetry_equiv_pos_as_xyz
  x,y,z
_cell_length_a                    32.4933
_cell_length_b                    28.5267
_cell_length_c                    30.3847
_cell_angle_alpha                 89.9997
_cell_angle_beta                  90.1354
_cell_angle_gamma                 90.0000
loop_
_atom_site_label
_atom_site_type_symbol
_atom_site_fract_x
_atom_site_fract_y
_atom_site_fract_z
_atom_site_U_iso_or_equiv
_atom_site_adp_type
_atom_site_occupancy
C1     C     0.08735   0.16667   0.24992   0.00000  Uiso   1.00
C2     C     0.24599   0.16667   0.25008   0.00000  Uiso   1.00
C3     C     0.16671   0.16660   0.16481   0.00000  Uiso   1.00
C4     C     0.16662   0.16660   0.33519   0.00000  Uiso   1.00
C5     C     0.13432   0.02480   0.23270   0.00000  Uiso   1.00
C6     C     0.19916   0.30858   0.26695   0.00000  Uiso   1.00
C7     C     0.19901   0.02480   0.26730   0.00000  Uiso   1.00
C8     C     0.13417   0.30858   0.23305   0.00000  Uiso   1.00
C9     C     0.02128   0.12409   0.24978   0.00000  Uiso   1.00
C10    C     0.31205   0.20928   0.24993   0.00000  Uiso   1.00
C11    C     0.31206   0.12409   0.25022   0.00000  Uiso   1.00
C12    C     0.02128   0.20928   0.25007   0.00000  Uiso   1.00
C13    C     0.14396   0.19858   0.04611   0.00000  Uiso   1.00
C14    C     0.14432   0.13136   0.45306   0.00000  Uiso   1.00
C15    C     0.18937   0.19858   0.45389   0.00000  Uiso   1.00
C16    C     0.18902   0.13136   0.04694   0.00000  Uiso   1.00
C17    C     0.14289   0.19929   0.09196   0.00000  Uiso   1.00
C18    C     0.14300   0.13206   0.40716   0.00000  Uiso   1.00
C19    C     0.19044   0.19929   0.40804   0.00000  Uiso   1.00
C20    C     0.19034   0.13206   0.09284   0.00000  Uiso   1.00
C21    C     0.16675   0.16614   0.11620   0.00000  Uiso   1.00
C22    C     0.16659   0.16614   0.38380   0.00000  Uiso   1.00
C23    C     0.16645   0.16467   0.02392   0.00000  Uiso   1.00
C24    C     0.16688   0.16467   0.47608   0.00000  Uiso   1.00
C25    C     0.29060   0.16668   0.25011   0.00000  Uiso   1.00
C26    C     0.04273   0.16668   0.24989   0.00000  Uiso   1.00
Cu27   Cu    0.16667   0.21355   0.25000   0.00000  Uiso   1.00
Cu28   Cu    0.16667   0.11978   0.25000   0.00000  Uiso   1.00
H29    H     0.10849   0.04335   0.21852   0.00000  Uiso   1.00
H30    H     0.22525   0.29008   0.28056   0.00000  Uiso   1.00
H31    H     0.22485   0.04335   0.28148   0.00000  Uiso   1.00
H32    H     0.10808   0.29008   0.21944   0.00000  Uiso   1.00
H33    H     0.12665   0.22407   0.02721   0.00000  Uiso   1.00
H34    H     0.12689   0.10552   0.47132   0.00000  Uiso   1.00
H35    H     0.20668   0.22407   0.47279   0.00000  Uiso   1.00
H36    H     0.20644   0.10552   0.02868   0.00000  Uiso   1.00
H37    H     0.03728   0.09078   0.24955   0.00000  Uiso   1.00
H38    H     0.29605   0.24258   0.24982   0.00000  Uiso   1.00
H39    H     0.29606   0.09078   0.25045   0.00000  Uiso   1.00
H40    H     0.03729   0.24258   0.25018   0.00000  Uiso   1.00
N41    N     0.16667   0.28402   0.25000   0.00000  Uiso   1.00
N42    N     0.16667   0.04931   0.25000   0.00000  Uiso   1.00
O43    O     0.10655   0.20625   0.24999   0.00000  Uiso   1.00
O44    O     0.22679   0.12709   0.25000   0.00000  Uiso   1.00
O45    O     0.22679   0.20625   0.25000   0.00000  Uiso   1.00
O46    O     0.10655   0.12709   0.24999   0.00000  Uiso   1.00
O47    O     0.16666   0.20626   0.18573   0.00000  Uiso   1.00
O48    O     0.16667   0.12707   0.31427   0.00000  Uiso   1.00
O49    O     0.16667   0.20626   0.31427   0.00000  Uiso   1.00
O50    O     0.16666   0.12707   0.18573   0.00000  Uiso   1.00
S51    S     0.11008   0.24136   0.11669   0.00000  Uiso   1.00
O52    O     0.13583   0.28058   0.13493   0.00000  Uiso   1.00
O53    O     0.08065   0.26111   0.08321   0.00000  Uiso   1.00
O54    O     0.08287   0.21627   0.15729   0.00000  Uiso   1.00
H55    H     0.06255   0.24033   0.16617   0.00000  Uiso   1.00
S56    S     0.10955   0.09120   0.38123   0.00000  Uiso   1.00
O57    O     0.13452   0.05318   0.35983   0.00000  Uiso   1.00
O58    O     0.08119   0.06932   0.41445   0.00000  Uiso   1.00
O59    O     0.08107   0.11876   0.34299   0.00000  Uiso   1.00
H60    H     0.06178   0.09456   0.33197   0.00000  Uiso   1.00
S61    S     0.22325   0.24136   0.38331   0.00000  Uiso   1.00
O62    O     0.19750   0.28058   0.36507   0.00000  Uiso   1.00
O63    O     0.25268   0.26111   0.41679   0.00000  Uiso   1.00
O64    O     0.25046   0.21627   0.34271   0.00000  Uiso   1.00
H65    H     0.27078   0.24033   0.33382   0.00000  Uiso   1.00
S66    S     0.22379   0.09120   0.11877   0.00000  Uiso   1.00
O67    O     0.19882   0.05318   0.14017   0.00000  Uiso   1.00
O68    O     0.25215   0.06932   0.08555   0.00000  Uiso   1.00
O69    O     0.25226   0.11876   0.15701   0.00000  Uiso   1.00
H70    H     0.27156   0.09457   0.16803   0.00000  Uiso   1.00
C71    C     0.42068   0.16667   0.24992   0.00000  Uiso   1.00
C72    C     0.57932   0.16667   0.25008   0.00000  Uiso   1.00
C73    C     0.50004   0.16660   0.16481   0.00000  Uiso   1.00
C74    C     0.49996   0.16660   0.33519   0.00000  Uiso   1.00
C75    C     0.46765   0.02480   0.23270   0.00000  Uiso   1.00
C76    C     0.53249   0.30858   0.26695   0.00000  Uiso   1.00
C77    C     0.53235   0.02480   0.26730   0.00000  Uiso   1.00
C78    C     0.46751   0.30858   0.23305   0.00000  Uiso   1.00
C79    C     0.35461   0.12409   0.24978   0.00000  Uiso   1.00
C80    C     0.64539   0.20928   0.24993   0.00000  Uiso   1.00
C81    C     0.64539   0.12409   0.25022   0.00000  Uiso   1.00
C82    C     0.35461   0.20928   0.25007   0.00000  Uiso   1.00
C83    C     0.47729   0.19858   0.04611   0.00000  Uiso   1.00
C84    C     0.47765   0.13136   0.45306   0.00000  Uiso   1.00
C85    C     0.52270   0.19858   0.45389   0.00000  Uiso   1.00
C86    C     0.52235   0.13136   0.04694   0.00000  Uiso   1.00
C87    C     0.47623   0.19929   0.09196   0.00000  Uiso   1.00
C88    C     0.47633   0.13206   0.40716   0.00000  Uiso   1.00
C89    C     0.52377   0.19929   0.40804   0.00000  Uiso   1.00
C90    C     0.52367   0.13206   0.09284   0.00000  Uiso   1.00
C91    C     0.50008   0.16614   0.11620   0.00000  Uiso   1.00
C92    C     0.49992   0.16614   0.38380   0.00000  Uiso   1.00
C93    C     0.49979   0.16467   0.02392   0.00000  Uiso   1.00
C94    C     0.50021   0.16467   0.47608   0.00000  Uiso   1.00
C95    C     0.62394   0.16668   0.25011   0.00000  Uiso   1.00
C96    C     0.37606   0.16668   0.24989   0.00000  Uiso   1.00
Cu97   Cu    0.50000   0.21355   0.25000   0.00000  Uiso   1.00
Cu98   Cu    0.50000   0.11978   0.25000   0.00000  Uiso   1.00
H99    H     0.44182   0.04335   0.21852   0.00000  Uiso   1.00
H100   H     0.55859   0.29008   0.28056   0.00000  Uiso   1.00
H101   H     0.55818   0.04335   0.28148   0.00000  Uiso   1.00
H102   H     0.44141   0.29008   0.21944   0.00000  Uiso   1.00
H103   H     0.45998   0.22407   0.02721   0.00000  Uiso   1.00
H104   H     0.46023   0.10552   0.47132   0.00000  Uiso   1.00
H105   H     0.54002   0.22407   0.47279   0.00000  Uiso   1.00
H106   H     0.53978   0.10552   0.02868   0.00000  Uiso   1.00
H107   H     0.37061   0.09078   0.24955   0.00000  Uiso   1.00
H108   H     0.62938   0.24258   0.24982   0.00000  Uiso   1.00
H109   H     0.62939   0.09078   0.25045   0.00000  Uiso   1.00
H110   H     0.37062   0.24258   0.25018   0.00000  Uiso   1.00
N111   N     0.50000   0.28402   0.25000   0.00000  Uiso   1.00
N112   N     0.50000   0.04931   0.25000   0.00000  Uiso   1.00
O113   O     0.43988   0.20625   0.24999   0.00000  Uiso   1.00
O114   O     0.56012   0.12709   0.25000   0.00000  Uiso   1.00
O115   O     0.56012   0.20625   0.25000   0.00000  Uiso   1.00
O116   O     0.43988   0.12709   0.24999   0.00000  Uiso   1.00
O117   O     0.50000   0.20626   0.18573   0.00000  Uiso   1.00
O118   O     0.50000   0.12707   0.31427   0.00000  Uiso   1.00
O119   O     0.50000   0.20626   0.31427   0.00000  Uiso   1.00
O120   O     0.50000   0.12707   0.18573   0.00000  Uiso   1.00
S121   S     0.44341   0.24136   0.11669   0.00000  Uiso   1.00
O122   O     0.46916   0.28058   0.13493   0.00000  Uiso   1.00
O123   O     0.41398   0.26111   0.08321   0.00000  Uiso   1.00
O124   O     0.41620   0.21627   0.15729   0.00000  Uiso   1.00
H125   H     0.39588   0.24033   0.16617   0.00000  Uiso   1.00
S126   S     0.44288   0.09120   0.38123   0.00000  Uiso   1.00
O127   O     0.46785   0.05318   0.35983   0.00000  Uiso   1.00
O128   O     0.41452   0.06932   0.41445   0.00000  Uiso   1.00
O129   O     0.41440   0.11876   0.34299   0.00000  Uiso   1.00
H130   H     0.39511   0.09456   0.33197   0.00000  Uiso   1.00
S131   S     0.55659   0.24136   0.38331   0.00000  Uiso   1.00
O132   O     0.53084   0.28058   0.36507   0.00000  Uiso   1.00
O133   O     0.58601   0.26111   0.41679   0.00000  Uiso   1.00
O134   O     0.58380   0.21627   0.34271   0.00000  Uiso   1.00
H135   H     0.60412   0.24033   0.33382   0.00000  Uiso   1.00
S136   S     0.55712   0.09120   0.11877   0.00000  Uiso   1.00
O137   O     0.53215   0.05318   0.14017   0.00000  Uiso   1.00
O138   O     0.58548   0.06932   0.08555   0.00000  Uiso   1.00
O139   O     0.58560   0.11876   0.15701   0.00000  Uiso   1.00
H140   H     0.60490   0.09457   0.16803   0.00000  Uiso   1.00
C141   C     0.75401   0.16667   0.24992   0.00000  Uiso   1.00
C142   C     0.91266   0.16667   0.25008   0.00000  Uiso   1.00
C143   C     0.83338   0.16660   0.16481   0.00000  Uiso   1.00
C144   C     0.83329   0.16660   0.33519   0.00000  Uiso   1.00
C145   C     0.80099   0.02480   0.23270   0.00000  Uiso   1.00
C146   C     0.86583   0.30858   0.26695   0.00000  Uiso   1.00
C147   C     0.86568   0.02480   0.26730   0.00000  Uiso   1.00
C148   C     0.80084   0.30858   0.23305   0.00000  Uiso   1.00
C149   C     0.68794   0.12409   0.24978   0.00000  Uiso   1.00
C150   C     0.97872   0.20928   0.24993   0.00000  Uiso   1.00
C151   C     0.97872   0.12409   0.25022   0.00000  Uiso   1.00
C152   C     0.68795   0.20928   0.25007   0.00000  Uiso   1.00
C153   C     0.81063   0.19858   0.04611   0.00000  Uiso   1.00
C154   C     0.81098   0.13136   0.45306   0.00000  Uiso   1.00
C155   C     0.85604   0.19858   0.45389   0.00000  Uiso   1.00
C156   C     0.85568   0.13136   0.04694   0.00000  Uiso   1.00
C157   C     0.80956   0.19929   0.09196   0.00000  Uiso   1.00
C158   C     0.80966   0.13206   0.40716   0.00000  Uiso   1.00
C159   C     0.85711   0.19929   0.40804   0.00000  Uiso   1.00
C160   C     0.85701   0.13206   0.09284   0.00000  Uiso   1.00
C161   C     0.83341   0.16614   0.11620   0.00000  Uiso   1.00
C162   C     0.83325   0.16614   0.38380   0.00000  Uiso   1.00
C163   C     0.83312   0.16467   0.02392   0.00000  Uiso   1.00
C164   C     0.83355   0.16467   0.47608   0.00000  Uiso   1.00
C165   C     0.95727   0.16668   0.25011   0.00000  Uiso   1.00
C166   C     0.70940   0.16668   0.24989   0.00000  Uiso   1.00
Cu167  Cu    0.83333   0.21355   0.25000   0.00000  Uiso   1.00
Cu168  Cu    0.83333   0.11978   0.25000   0.00000  Uiso   1.00
H169   H     0.77515   0.04335   0.21852   0.00000  Uiso   1.00
H170   H     0.89192   0.29008   0.28056   0.00000  Uiso   1.00
H171   H     0.89151   0.04335   0.28148   0.00000  Uiso   1.00
H172   H     0.77475   0.29008   0.21944   0.00000  Uiso   1.00
H173   H     0.79332   0.22407   0.02721   0.00000  Uiso   1.00
H174   H     0.79356   0.10552   0.47132   0.00000  Uiso   1.00
H175   H     0.87335   0.22407   0.47279   0.00000  Uiso   1.00
H176   H     0.87311   0.10552   0.02868   0.00000  Uiso   1.00
H177   H     0.70394   0.09078   0.24955   0.00000  Uiso   1.00
H178   H     0.96271   0.24258   0.24982   0.00000  Uiso   1.00
H179   H     0.96272   0.09078   0.25045   0.00000  Uiso   1.00
H180   H     0.70396   0.24258   0.25018   0.00000  Uiso   1.00
N181   N     0.83333   0.28402   0.25000   0.00000  Uiso   1.00
N182   N     0.83333   0.04931   0.25000   0.00000  Uiso   1.00
O183   O     0.77321   0.20625   0.24999   0.00000  Uiso   1.00
O184   O     0.89345   0.12709   0.25000   0.00000  Uiso   1.00
O185   O     0.89345   0.20625   0.25000   0.00000  Uiso   1.00
O186   O     0.77321   0.12709   0.24999   0.00000  Uiso   1.00
O187   O     0.83333   0.20626   0.18573   0.00000  Uiso   1.00
O188   O     0.83334   0.12707   0.31427   0.00000  Uiso   1.00
O189   O     0.83334   0.20626   0.31427   0.00000  Uiso   1.00
O190   O     0.83333   0.12707   0.18573   0.00000  Uiso   1.00
S191   S     0.77675   0.24136   0.11669   0.00000  Uiso   1.00
O192   O     0.80250   0.28058   0.13493   0.00000  Uiso   1.00
O193   O     0.74732   0.26111   0.08321   0.00000  Uiso   1.00
O194   O     0.74954   0.21627   0.15729   0.00000  Uiso   1.00
H195   H     0.72921   0.24033   0.16617   0.00000  Uiso   1.00
S196   S     0.77622   0.09120   0.38123   0.00000  Uiso   1.00
O197   O     0.80119   0.05318   0.35983   0.00000  Uiso   1.00
O198   O     0.74786   0.06932   0.41445   0.00000  Uiso   1.00
O199   O     0.74774   0.11876   0.34299   0.00000  Uiso   1.00
H200   H     0.72845   0.09456   0.33197   0.00000  Uiso   1.00
S201   S     0.88992   0.24136   0.38331   0.00000  Uiso   1.00
O202   O     0.86417   0.28058   0.36507   0.00000  Uiso   1.00
O203   O     0.91935   0.26111   0.41679   0.00000  Uiso   1.00
O204   O     0.91713   0.21627   0.34271   0.00000  Uiso   1.00
H205   H     0.93745   0.24033   0.33382   0.00000  Uiso   1.00
S206   S     0.89045   0.09120   0.11877   0.00000  Uiso   1.00
O207   O     0.86549   0.05318   0.14017   0.00000  Uiso   1.00
O208   O     0.91881   0.06932   0.08555   0.00000  Uiso   1.00
O209   O     0.91893   0.11876   0.15701   0.00000  Uiso   1.00
H210   H     0.93823   0.09457   0.16803   0.00000  Uiso   1.00
C211   C     0.08735   0.50000   0.24992   0.00000  Uiso   1.00
C212   C     0.24599   0.50000   0.25008   0.00000  Uiso   1.00
C213   C     0.16671   0.49993   0.16481   0.00000  Uiso   1.00
C214   C     0.16662   0.49993   0.33519   0.00000  Uiso   1.00
C215   C     0.13432   0.35814   0.23270   0.00000  Uiso   1.00
C216   C     0.19916   0.64191   0.26695   0.00000  Uiso   1.00
C217   C     0.19901   0.35814   0.26730   0.00000  Uiso   1.00
C218   C     0.13417   0.64191   0.23305   0.00000  Uiso   1.00
C219   C     0.02128   0.45742   0.24978   0.00000  Uiso   1.00
C220   C     0.31205   0.54261   0.24993   0.00000  Uiso   1.00
C221   C     0.31206   0.45742   0.25022   0.00000  Uiso   1.00
C222   C     0.02128   0.54261   0.25007   0.00000  Uiso   1.00
C223   C     0.14396   0.53191   0.04611   0.00000  Uiso   1.00
C224   C     0.14432   0.46469   0.45306   0.00000  Uiso   1.00
C225   C     0.18937   0.53191   0.45389   0.00000  Uiso   1.00
C226   C     0.18902   0.46469   0.04694   0.00000  Uiso   1.00
C227   C     0.14289   0.53262   0.09196   0.00000  Uiso   1.00
C228   C     0.14300   0.46539   0.40716   0.00000  Uiso   1.00
C229   C     0.19044   0.53262   0.40804   0.00000  Uiso   1.00
C230   C     0.19034   0.46539   0.09284   0.00000  Uiso   1.00
C231   C     0.16675   0.49947   0.11620   0.00000  Uiso   1.00
C232   C     0.16659   0.49947   0.38380   0.00000  Uiso   1.00
C233   C     0.16645   0.49800   0.02392   0.00000  Uiso   1.00
C234   C     0.16688   0.49800   0.47608   0.00000  Uiso   1.00
C235   C     0.29060   0.50001   0.25011   0.00000  Uiso   1.00
C236   C     0.04273   0.50001   0.24989   0.00000  Uiso   1.00
Cu237  Cu    0.16667   0.54689   0.25000   0.00000  Uiso   1.00
Cu238  Cu    0.16667   0.45311   0.25000   0.00000  Uiso   1.00
H239   H     0.10849   0.37668   0.21852   0.00000  Uiso   1.00
H240   H     0.22525   0.62342   0.28056   0.00000  Uiso   1.00
H241   H     0.22485   0.37668   0.28148   0.00000  Uiso   1.00
H242   H     0.10808   0.62342   0.21944   0.00000  Uiso   1.00
H243   H     0.12665   0.55741   0.02721   0.00000  Uiso   1.00
H244   H     0.12689   0.43885   0.47132   0.00000  Uiso   1.00
H245   H     0.20668   0.55741   0.47279   0.00000  Uiso   1.00
H246   H     0.20644   0.43886   0.02868   0.00000  Uiso   1.00
H247   H     0.03728   0.42411   0.24955   0.00000  Uiso   1.00
H248   H     0.29605   0.57592   0.24982   0.00000  Uiso   1.00
H249   H     0.29606   0.42411   0.25045   0.00000  Uiso   1.00
H250   H     0.03729   0.57592   0.25018   0.00000  Uiso   1.00
N251   N     0.16667   0.61736   0.25000   0.00000  Uiso   1.00
N252   N     0.16667   0.38264   0.25000   0.00000  Uiso   1.00
O253   O     0.10655   0.53958   0.24999   0.00000  Uiso   1.00
O254   O     0.22679   0.46042   0.25000   0.00000  Uiso   1.00
O255   O     0.22679   0.53958   0.25000   0.00000  Uiso   1.00
O256   O     0.10655   0.46042   0.24999   0.00000  Uiso   1.00
O257   O     0.16666   0.53959   0.18573   0.00000  Uiso   1.00
O258   O     0.16667   0.46041   0.31427   0.00000  Uiso   1.00
O259   O     0.16667   0.53959   0.31427   0.00000  Uiso   1.00
O260   O     0.16666   0.46041   0.18573   0.00000  Uiso   1.00
S261   S     0.11008   0.57469   0.11669   0.00000  Uiso   1.00
O262   O     0.13583   0.61391   0.13493   0.00000  Uiso   1.00
O263   O     0.08065   0.59444   0.08321   0.00000  Uiso   1.00
O264   O     0.08287   0.54960   0.15729   0.00000  Uiso   1.00
H265   H     0.06255   0.57366   0.16617   0.00000  Uiso   1.00
S266   S     0.10955   0.42453   0.38123   0.00000  Uiso   1.00
O267   O     0.13452   0.38652   0.35983   0.00000  Uiso   1.00
O268   O     0.08119   0.40265   0.41445   0.00000  Uiso   1.00
O269   O     0.08107   0.45209   0.34299   0.00000  Uiso   1.00
H270   H     0.06178   0.42789   0.33197   0.00000  Uiso   1.00
S271   S     0.22325   0.57469   0.38331   0.00000  Uiso   1.00
O272   O     0.19750   0.61391   0.36507   0.00000  Uiso   1.00
O273   O     0.25268   0.59444   0.41679   0.00000  Uiso   1.00
O274   O     0.25046   0.54961   0.34271   0.00000  Uiso   1.00
H275   H     0.27078   0.57367   0.33382   0.00000  Uiso   1.00
S276   S     0.22379   0.42454   0.11877   0.00000  Uiso   1.00
O277   O     0.19882   0.38652   0.14017   0.00000  Uiso   1.00
O278   O     0.25215   0.40266   0.08555   0.00000  Uiso   1.00
O279   O     0.25226   0.45210   0.15701   0.00000  Uiso   1.00
H280   H     0.27156   0.42790   0.16803   0.00000  Uiso   1.00
C281   C     0.42068   0.50000   0.24992   0.00000  Uiso   1.00
C282   C     0.57932   0.50000   0.25008   0.00000  Uiso   1.00
C283   C     0.50004   0.49993   0.16481   0.00000  Uiso   1.00
C284   C     0.49996   0.49993   0.33519   0.00000  Uiso   1.00
C285   C     0.46765   0.35814   0.23270   0.00000  Uiso   1.00
C286   C     0.53249   0.64191   0.26695   0.00000  Uiso   1.00
C287   C     0.53235   0.35814   0.26730   0.00000  Uiso   1.00
C288   C     0.46751   0.64191   0.23305   0.00000  Uiso   1.00
C289   C     0.35461   0.45742   0.24978   0.00000  Uiso   1.00
C290   C     0.64539   0.54261   0.24993   0.00000  Uiso   1.00
C291   C     0.64539   0.45742   0.25022   0.00000  Uiso   1.00
C292   C     0.35461   0.54261   0.25007   0.00000  Uiso   1.00
C293   C     0.47729   0.53191   0.04611   0.00000  Uiso   1.00
C294   C     0.47765   0.46469   0.45306   0.00000  Uiso   1.00
C295   C     0.52270   0.53191   0.45389   0.00000  Uiso   1.00
C296   C     0.52235   0.46469   0.04694   0.00000  Uiso   1.00
C297   C     0.47623   0.53262   0.09196   0.00000  Uiso   1.00
C298   C     0.47633   0.46539   0.40716   0.00000  Uiso   1.00
C299   C     0.52377   0.53262   0.40804   0.00000  Uiso   1.00
C300   C     0.52367   0.46539   0.09284   0.00000  Uiso   1.00
C301   C     0.50008   0.49947   0.11620   0.00000  Uiso   1.00
C302   C     0.49992   0.49947   0.38380   0.00000  Uiso   1.00
C303   C     0.49979   0.49800   0.02392   0.00000  Uiso   1.00
C304   C     0.50021   0.49800   0.47608   0.00000  Uiso   1.00
C305   C     0.62394   0.50001   0.25011   0.00000  Uiso   1.00
C306   C     0.37606   0.50001   0.24989   0.00000  Uiso   1.00
Cu307  Cu    0.50000   0.54689   0.25000   0.00000  Uiso   1.00
Cu308  Cu    0.50000   0.45311   0.25000   0.00000  Uiso   1.00
H309   H     0.44182   0.37668   0.21852   0.00000  Uiso   1.00
H310   H     0.55859   0.62342   0.28056   0.00000  Uiso   1.00
H311   H     0.55818   0.37668   0.28148   0.00000  Uiso   1.00
H312   H     0.44141   0.62342   0.21944   0.00000  Uiso   1.00
H313   H     0.45998   0.55741   0.02721   0.00000  Uiso   1.00
H314   H     0.46023   0.43885   0.47132   0.00000  Uiso   1.00
H315   H     0.54002   0.55741   0.47279   0.00000  Uiso   1.00
H316   H     0.53978   0.43886   0.02868   0.00000  Uiso   1.00
H317   H     0.37061   0.42411   0.24955   0.00000  Uiso   1.00
H318   H     0.62938   0.57592   0.24982   0.00000  Uiso   1.00
H319   H     0.62939   0.42411   0.25045   0.00000  Uiso   1.00
H320   H     0.37062   0.57592   0.25018   0.00000  Uiso   1.00
N321   N     0.50000   0.61736   0.25000   0.00000  Uiso   1.00
N322   N     0.50000   0.38264   0.25000   0.00000  Uiso   1.00
O323   O     0.43988   0.53958   0.24999   0.00000  Uiso   1.00
O324   O     0.56012   0.46042   0.25000   0.00000  Uiso   1.00
O325   O     0.56012   0.53958   0.25000   0.00000  Uiso   1.00
O326   O     0.43988   0.46042   0.24999   0.00000  Uiso   1.00
O327   O     0.50000   0.53959   0.18573   0.00000  Uiso   1.00
O328   O     0.50000   0.46041   0.31427   0.00000  Uiso   1.00
O329   O     0.50000   0.53959   0.31427   0.00000  Uiso   1.00
O330   O     0.50000   0.46041   0.18573   0.00000  Uiso   1.00
S331   S     0.44341   0.57469   0.11669   0.00000  Uiso   1.00
O332   O     0.46916   0.61391   0.13493   0.00000  Uiso   1.00
O333   O     0.41398   0.59444   0.08321   0.00000  Uiso   1.00
O334   O     0.41620   0.54960   0.15729   0.00000  Uiso   1.00
H335   H     0.39588   0.57366   0.16617   0.00000  Uiso   1.00
S336   S     0.44288   0.42453   0.38123   0.00000  Uiso   1.00
O337   O     0.46785   0.38652   0.35983   0.00000  Uiso   1.00
O338   O     0.41452   0.40265   0.41445   0.00000  Uiso   1.00
O339   O     0.41440   0.45209   0.34299   0.00000  Uiso   1.00
H340   H     0.39511   0.42789   0.33197   0.00000  Uiso   1.00
S341   S     0.55659   0.57469   0.38331   0.00000  Uiso   1.00
O342   O     0.53084   0.61391   0.36507   0.00000  Uiso   1.00
O343   O     0.58601   0.59444   0.41679   0.00000  Uiso   1.00
O344   O     0.58380   0.54961   0.34271   0.00000  Uiso   1.00
H345   H     0.60412   0.57367   0.33382   0.00000  Uiso   1.00
S346   S     0.55712   0.42454   0.11877   0.00000  Uiso   1.00
O347   O     0.53215   0.38652   0.14017   0.00000  Uiso   1.00
O348   O     0.58548   0.40266   0.08555   0.00000  Uiso   1.00
O349   O     0.58560   0.45210   0.15701   0.00000  Uiso   1.00
H350   H     0.60490   0.42790   0.16803   0.00000  Uiso   1.00
C351   C     0.75401   0.50000   0.24992   0.00000  Uiso   1.00
C352   C     0.91266   0.50000   0.25008   0.00000  Uiso   1.00
C353   C     0.83338   0.49993   0.16481   0.00000  Uiso   1.00
C354   C     0.83329   0.49993   0.33519   0.00000  Uiso   1.00
C355   C     0.80099   0.35814   0.23270   0.00000  Uiso   1.00
C356   C     0.86583   0.64191   0.26695   0.00000  Uiso   1.00
C357   C     0.86568   0.35814   0.26730   0.00000  Uiso   1.00
C358   C     0.80084   0.64191   0.23305   0.00000  Uiso   1.00
C359   C     0.68794   0.45742   0.24978   0.00000  Uiso   1.00
C360   C     0.97872   0.54261   0.24993   0.00000  Uiso   1.00
C361   C     0.97872   0.45742   0.25022   0.00000  Uiso   1.00
C362   C     0.68795   0.54261   0.25007   0.00000  Uiso   1.00
C363   C     0.81063   0.53191   0.04611   0.00000  Uiso   1.00
C364   C     0.81098   0.46469   0.45306   0.00000  Uiso   1.00
C365   C     0.85604   0.53191   0.45389   0.00000  Uiso   1.00
C366   C     0.85568   0.46469   0.04694   0.00000  Uiso   1.00
C367   C     0.80956   0.53262   0.09196   0.00000  Uiso   1.00
C368   C     0.80966   0.46539   0.40716   0.00000  Uiso   1.00
C369   C     0.85711   0.53262   0.40804   0.00000  Uiso   1.00
C370   C     0.85701   0.46539   0.09284   0.00000  Uiso   1.00
C371   C     0.83341   0.49947   0.11620   0.00000  Uiso   1.00
C372   C     0.83325   0.49947   0.38380   0.00000  Uiso   1.00
C373   C     0.83312   0.49800   0.02392   0.00000  Uiso   1.00
C374   C     0.83355   0.49800   0.47608   0.00000  Uiso   1.00
C375   C     0.95727   0.50001   0.25011   0.00000  Uiso   1.00
C376   C     0.70940   0.50001   0.24989   0.00000  Uiso   1.00
Cu377  Cu    0.83333   0.54689   0.25000   0.00000  Uiso   1.00
Cu378  Cu    0.83333   0.45311   0.25000   0.00000  Uiso   1.00
H379   H     0.77515   0.37668   0.21852   0.00000  Uiso   1.00
H380   H     0.89192   0.62342   0.28056   0.00000  Uiso   1.00
H381   H     0.89151   0.37668   0.28148   0.00000  Uiso   1.00
H382   H     0.77475   0.62342   0.21944   0.00000  Uiso   1.00
H383   H     0.79332   0.55741   0.02721   0.00000  Uiso   1.00
H384   H     0.79356   0.43885   0.47132   0.00000  Uiso   1.00
H385   H     0.87335   0.55741   0.47279   0.00000  Uiso   1.00
H386   H     0.87311   0.43886   0.02868   0.00000  Uiso   1.00
H387   H     0.70394   0.42411   0.24955   0.00000  Uiso   1.00
H388   H     0.96271   0.57592   0.24982   0.00000  Uiso   1.00
H389   H     0.96272   0.42411   0.25045   0.00000  Uiso   1.00
H390   H     0.70396   0.57592   0.25018   0.00000  Uiso   1.00
N391   N     0.83333   0.61736   0.25000   0.00000  Uiso   1.00
N392   N     0.83333   0.38264   0.25000   0.00000  Uiso   1.00
O393   O     0.77321   0.53958   0.24999   0.00000  Uiso   1.00
O394   O     0.89345   0.46042   0.25000   0.00000  Uiso   1.00
O395   O     0.89345   0.53958   0.25000   0.00000  Uiso   1.00
O396   O     0.77321   0.46042   0.24999   0.00000  Uiso   1.00
O397   O     0.83333   0.53959   0.18573   0.00000  Uiso   1.00
O398   O     0.83334   0.46041   0.31427   0.00000  Uiso   1.00
O399   O     0.83334   0.53959   0.31427   0.00000  Uiso   1.00
O400   O     0.83333   0.46041   0.18573   0.00000  Uiso   1.00
S401   S     0.77675   0.57469   0.11669   0.00000  Uiso   1.00
O402   O     0.80250   0.61391   0.13493   0.00000  Uiso   1.00
O403   O     0.74732   0.59444   0.08321   0.00000  Uiso   1.00
O404   O     0.74954   0.54960   0.15729   0.00000  Uiso   1.00
H405   H     0.72921   0.57366   0.16617   0.00000  Uiso   1.00
S406   S     0.77622   0.42453   0.38123   0.00000  Uiso   1.00
O407   O     0.80119   0.38652   0.35983   0.00000  Uiso   1.00
O408   O     0.74786   0.40265   0.41445   0.00000  Uiso   1.00
O409   O     0.74774   0.45209   0.34299   0.00000  Uiso   1.00
H410   H     0.72845   0.42789   0.33197   0.00000  Uiso   1.00
S411   S     0.88992   0.57469   0.38331   0.00000  Uiso   1.00
O412   O     0.86417   0.61391   0.36507   0.00000  Uiso   1.00
O413   O     0.91935   0.59444   0.41679   0.00000  Uiso   1.00
O414   O     0.91713   0.54961   0.34271   0.00000  Uiso   1.00
H415   H     0.93745   0.57367   0.33382   0.00000  Uiso   1.00
S416   S     0.89045   0.42454   0.11877   0.00000  Uiso   1.00
O417   O     0.86549   0.38652   0.14017   0.00000  Uiso   1.00
O418   O     0.91881   0.40266   0.08555   0.00000  Uiso   1.00
O419   O     0.91893   0.45210   0.15701   0.00000  Uiso   1.00
H420   H     0.93823   0.42790   0.16803   0.00000  Uiso   1.00
C421   C     0.08735   0.83334   0.24992   0.00000  Uiso   1.00
C422   C     0.24599   0.83334   0.25008   0.00000  Uiso   1.00
C423   C     0.16671   0.83327   0.16481   0.00000  Uiso   1.00
C424   C     0.16662   0.83327   0.33519   0.00000  Uiso   1.00
C425   C     0.13432   0.69147   0.23270   0.00000  Uiso   1.00
C426   C     0.19916   0.97524   0.26695   0.00000  Uiso   1.00
C427   C     0.19901   0.69147   0.26730   0.00000  Uiso   1.00
C428   C     0.13417   0.97524   0.23305   0.00000  Uiso   1.00
C429   C     0.02128   0.79075   0.24978   0.00000  Uiso   1.00
C430   C     0.31205   0.87594   0.24993   0.00000  Uiso   1.00
C431   C     0.31206   0.79075   0.25022   0.00000  Uiso   1.00
C432   C     0.02128   0.87594   0.25007   0.00000  Uiso   1.00
C433   C     0.14396   0.86524   0.04611   0.00000  Uiso   1.00
C434   C     0.14432   0.79803   0.45306   0.00000  Uiso   1.00
C435   C     0.18937   0.86524   0.45389   0.00000  Uiso   1.00
C436   C     0.18902   0.79803   0.04694   0.00000  Uiso   1.00
C437   C     0.14289   0.86595   0.09196   0.00000  Uiso   1.00
C438   C     0.14300   0.79872   0.40716   0.00000  Uiso   1.00
C439   C     0.19044   0.86595   0.40804   0.00000  Uiso   1.00
C440   C     0.19034   0.79873   0.09284   0.00000  Uiso   1.00
C441   C     0.16675   0.83281   0.11620   0.00000  Uiso   1.00
C442   C     0.16659   0.83281   0.38380   0.00000  Uiso   1.00
C443   C     0.16645   0.83134   0.02392   0.00000  Uiso   1.00
C444   C     0.16688   0.83134   0.47608   0.00000  Uiso   1.00
C445   C     0.29060   0.83334   0.25011   0.00000  Uiso   1.00
C446   C     0.04273   0.83334   0.24989   0.00000  Uiso   1.00
Cu447  Cu    0.16667   0.88022   0.25000   0.00000  Uiso   1.00
Cu448  Cu    0.16667   0.78645   0.25000   0.00000  Uiso   1.00
H449   H     0.10849   0.71002   0.21852   0.00000  Uiso   1.00
H450   H     0.22525   0.95675   0.28056   0.00000  Uiso   1.00
H451   H     0.22485   0.71001   0.28148   0.00000  Uiso   1.00
H452   H     0.10808   0.95675   0.21944   0.00000  Uiso   1.00
H453   H     0.12665   0.89074   0.02721   0.00000  Uiso   1.00
H454   H     0.12689   0.77219   0.47132   0.00000  Uiso   1.00
H455   H     0.20668   0.89074   0.47279   0.00000  Uiso   1.00
H456   H     0.20644   0.77219   0.02868   0.00000  Uiso   1.00
H457   H     0.03728   0.75744   0.24955   0.00000  Uiso   1.00
H458   H     0.29605   0.90925   0.24982   0.00000  Uiso   1.00
H459   H     0.29606   0.75744   0.25045   0.00000  Uiso   1.00
H460   H     0.03729   0.90925   0.25018   0.00000  Uiso   1.00
N461   N     0.16667   0.95069   0.25000   0.00000  Uiso   1.00
N462   N     0.16667   0.71598   0.25000   0.00000  Uiso   1.00
O463   O     0.10655   0.87291   0.24999   0.00000  Uiso   1.00
O464   O     0.22679   0.79375   0.25000   0.00000  Uiso   1.00
O465   O     0.22679   0.87291   0.25000   0.00000  Uiso   1.00
O466   O     0.10655   0.79375   0.24999   0.00000  Uiso   1.00
O467   O     0.16666   0.87293   0.18573   0.00000  Uiso   1.00
O468   O     0.16667   0.79374   0.31427   0.00000  Uiso   1.00
O469   O     0.16667   0.87293   0.31427   0.00000  Uiso   1.00
O470   O     0.16666   0.79374   0.18573   0.00000  Uiso   1.00
S471   S     0.11008   0.90802   0.11669   0.00000  Uiso   1.00
O472   O     0.13583   0.94724   0.13493   0.00000  Uiso   1.00
O473   O     0.08065   0.92778   0.08321   0.00000  Uiso   1.00
O474   O     0.08287   0.88294   0.15729   0.00000  Uiso   1.00
H475   H     0.06255   0.90700   0.16617   0.00000  Uiso   1.00
S476   S     0.10955   0.75787   0.38123   0.00000  Uiso   1.00
O477   O     0.13452   0.71985   0.35983   0.00000  Uiso   1.00
O478   O     0.08119   0.73598   0.41445   0.00000  Uiso   1.00
O479   O     0.08107   0.78542   0.34299   0.00000  Uiso   1.00
H480   H     0.06178   0.76122   0.33197   0.00000  Uiso   1.00
S481   S     0.22325   0.90802   0.38331   0.00000  Uiso   1.00
O482   O     0.19750   0.94724   0.36507   0.00000  Uiso   1.00
O483   O     0.25268   0.92778   0.41679   0.00000  Uiso   1.00
O484   O     0.25046   0.88294   0.34271   0.00000  Uiso   1.00
H485   H     0.27078   0.90700   0.33382   0.00000  Uiso   1.00
S486   S     0.22379   0.75787   0.11877   0.00000  Uiso   1.00
O487   O     0.19882   0.71985   0.14017   0.00000  Uiso   1.00
O488   O     0.25215   0.73599   0.08555   0.00000  Uiso   1.00
O489   O     0.25226   0.78543   0.15701   0.00000  Uiso   1.00
H490   H     0.27156   0.76123   0.16803   0.00000  Uiso   1.00
C491   C     0.42068   0.83334   0.24992   0.00000  Uiso   1.00
C492   C     0.57932   0.83334   0.25008   0.00000  Uiso   1.00
C493   C     0.50004   0.83327   0.16481   0.00000  Uiso   1.00
C494   C     0.49996   0.83327   0.33519   0.00000  Uiso   1.00
C495   C     0.46765   0.69147   0.23270   0.00000  Uiso   1.00
C496   C     0.53249   0.97524   0.26695   0.00000  Uiso   1.00
C497   C     0.53235   0.69147   0.26730   0.00000  Uiso   1.00
C498   C     0.46751   0.97524   0.23305   0.00000  Uiso   1.00
C499   C     0.35461   0.79075   0.24978   0.00000  Uiso   1.00
C500   C     0.64539   0.87594   0.24993   0.00000  Uiso   1.00
C501   C     0.64539   0.79075   0.25022   0.00000  Uiso   1.00
C502   C     0.35461   0.87594   0.25007   0.00000  Uiso   1.00
C503   C     0.47729   0.86524   0.04611   0.00000  Uiso   1.00
C504   C     0.47765   0.79803   0.45306   0.00000  Uiso   1.00
C505   C     0.52270   0.86524   0.45389   0.00000  Uiso   1.00
C506   C     0.52235   0.79803   0.04694   0.00000  Uiso   1.00
C507   C     0.47623   0.86595   0.09196   0.00000  Uiso   1.00
C508   C     0.47633   0.79872   0.40716   0.00000  Uiso   1.00
C509   C     0.52377   0.86595   0.40804   0.00000  Uiso   1.00
C510   C     0.52367   0.79873   0.09284   0.00000  Uiso   1.00
C511   C     0.50008   0.83281   0.11620   0.00000  Uiso   1.00
C512   C     0.49992   0.83281   0.38380   0.00000  Uiso   1.00
C513   C     0.49979   0.83134   0.02392   0.00000  Uiso   1.00
C514   C     0.50021   0.83134   0.47608   0.00000  Uiso   1.00
C515   C     0.62394   0.83334   0.25011   0.00000  Uiso   1.00
C516   C     0.37606   0.83334   0.24989   0.00000  Uiso   1.00
Cu517  Cu    0.50000   0.88022   0.25000   0.00000  Uiso   1.00
Cu518  Cu    0.50000   0.78645   0.25000   0.00000  Uiso   1.00
H519   H     0.44182   0.71002   0.21852   0.00000  Uiso   1.00
H520   H     0.55859   0.95675   0.28056   0.00000  Uiso   1.00
H521   H     0.55818   0.71001   0.28148   0.00000  Uiso   1.00
H522   H     0.44141   0.95675   0.21944   0.00000  Uiso   1.00
H523   H     0.45998   0.89074   0.02721   0.00000  Uiso   1.00
H524   H     0.46023   0.77219   0.47132   0.00000  Uiso   1.00
H525   H     0.54002   0.89074   0.47279   0.00000  Uiso   1.00
H526   H     0.53978   0.77219   0.02868   0.00000  Uiso   1.00
H527   H     0.37061   0.75744   0.24955   0.00000  Uiso   1.00
H528   H     0.62938   0.90925   0.24982   0.00000  Uiso   1.00
H529   H     0.62939   0.75744   0.25045   0.00000  Uiso   1.00
H530   H     0.37062   0.90925   0.25018   0.00000  Uiso   1.00
N531   N     0.50000   0.95069   0.25000   0.00000  Uiso   1.00
N532   N     0.50000   0.71598   0.25000   0.00000  Uiso   1.00
O533   O     0.43988   0.87291   0.24999   0.00000  Uiso   1.00
O534   O     0.56012   0.79375   0.25000   0.00000  Uiso   1.00
O535   O     0.56012   0.87291   0.25000   0.00000  Uiso   1.00
O536   O     0.43988   0.79375   0.24999   0.00000  Uiso   1.00
O537   O     0.50000   0.87293   0.18573   0.00000  Uiso   1.00
O538   O     0.50000   0.79374   0.31427   0.00000  Uiso   1.00
O539   O     0.50000   0.87293   0.31427   0.00000  Uiso   1.00
O540   O     0.50000   0.79374   0.18573   0.00000  Uiso   1.00
S541   S     0.44341   0.90802   0.11669   0.00000  Uiso   1.00
O542   O     0.46916   0.94724   0.13493   0.00000  Uiso   1.00
O543   O     0.41398   0.92778   0.08321   0.00000  Uiso   1.00
O544   O     0.41620   0.88294   0.15729   0.00000  Uiso   1.00
H545   H     0.39588   0.90700   0.16617   0.00000  Uiso   1.00
S546   S     0.44288   0.75787   0.38123   0.00000  Uiso   1.00
O547   O     0.46785   0.71985   0.35983   0.00000  Uiso   1.00
O548   O     0.41452   0.73598   0.41445   0.00000  Uiso   1.00
O549   O     0.41440   0.78542   0.34299   0.00000  Uiso   1.00
H550   H     0.39511   0.76122   0.33197   0.00000  Uiso   1.00
S551   S     0.55659   0.90802   0.38331   0.00000  Uiso   1.00
O552   O     0.53084   0.94724   0.36507   0.00000  Uiso   1.00
O553   O     0.58601   0.92778   0.41679   0.00000  Uiso   1.00
O554   O     0.58380   0.88294   0.34271   0.00000  Uiso   1.00
H555   H     0.60412   0.90700   0.33382   0.00000  Uiso   1.00
S556   S     0.55712   0.75787   0.11877   0.00000  Uiso   1.00
O557   O     0.53215   0.71985   0.14017   0.00000  Uiso   1.00
O558   O     0.58548   0.73599   0.08555   0.00000  Uiso   1.00
O559   O     0.58560   0.78543   0.15701   0.00000  Uiso   1.00
H560   H     0.60490   0.76123   0.16803   0.00000  Uiso   1.00
C561   C     0.75401   0.83334   0.24992   0.00000  Uiso   1.00
C562   C     0.91266   0.83334   0.25008   0.00000  Uiso   1.00
C563   C     0.83338   0.83327   0.16481   0.00000  Uiso   1.00
C564   C     0.83329   0.83327   0.33519   0.00000  Uiso   1.00
C565   C     0.80099   0.69147   0.23270   0.00000  Uiso   1.00
C566   C     0.86583   0.97524   0.26695   0.00000  Uiso   1.00
C567   C     0.86568   0.69147   0.26730   0.00000  Uiso   1.00
C568   C     0.80084   0.97524   0.23305   0.00000  Uiso   1.00
C569   C     0.68794   0.79075   0.24978   0.00000  Uiso   1.00
C570   C     0.97872   0.87594   0.24993   0.00000  Uiso   1.00
C571   C     0.97872   0.79075   0.25022   0.00000  Uiso   1.00
C572   C     0.68795   0.87594   0.25007   0.00000  Uiso   1.00
C573   C     0.81063   0.86524   0.04611   0.00000  Uiso   1.00
C574   C     0.81098   0.79803   0.45306   0.00000  Uiso   1.00
C575   C     0.85604   0.86524   0.45389   0.00000  Uiso   1.00
C576   C     0.85568   0.79803   0.04694   0.00000  Uiso   1.00
C577   C     0.80956   0.86595   0.09196   0.00000  Uiso   1.00
C578   C     0.80966   0.79872   0.40716   0.00000  Uiso   1.00
C579   C     0.85711   0.86595   0.40804   0.00000  Uiso   1.00
C580   C     0.85701   0.79873   0.09284   0.00000  Uiso   1.00
C581   C     0.83341   0.83281   0.11620   0.00000  Uiso   1.00
C582   C     0.83325   0.83281   0.38380   0.00000  Uiso   1.00
C583   C     0.83312   0.83134   0.02392   0.00000  Uiso   1.00
C584   C     0.83355   0.83134   0.47608   0.00000  Uiso   1.00
C585   C     0.95727   0.83334   0.25011   0.00000  Uiso   1.00
C586   C     0.70940   0.83334   0.24989   0.00000  Uiso   1.00
Cu587  Cu    0.83333   0.88022   0.25000   0.00000  Uiso   1.00
Cu588  Cu    0.83333   0.78645   0.25000   0.00000  Uiso   1.00
H589   H     0.77515   0.71002   0.21852   0.00000  Uiso   1.00
H590   H     0.89192   0.95675   0.28056   0.00000  Uiso   1.00
H591   H     0.89151   0.71001   0.28148   0.00000  Uiso   1.00
H592   H     0.77475   0.95675   0.21944   0.00000  Uiso   1.00
H593   H     0.79332   0.89074   0.02721   0.00000  Uiso   1.00
H594   H     0.79356   0.77219   0.47132   0.00000  Uiso   1.00
H595   H     0.87335   0.89074   0.47279   0.00000  Uiso   1.00
H596   H     0.87311   0.77219   0.02868   0.00000  Uiso   1.00
H597   H     0.70394   0.75744   0.24955   0.00000  Uiso   1.00
H598   H     0.96271   0.90925   0.24982   0.00000  Uiso   1.00
H599   H     0.96272   0.75744   0.25045   0.00000  Uiso   1.00
H600   H     0.70396   0.90925   0.25018   0.00000  Uiso   1.00
N601   N     0.83333   0.95069   0.25000   0.00000  Uiso   1.00
N602   N     0.83333   0.71598   0.25000   0.00000  Uiso   1.00
O603   O     0.77321   0.87291   0.24999   0.00000  Uiso   1.00
O604   O     0.89345   0.79375   0.25000   0.00000  Uiso   1.00
O605   O     0.89345   0.87291   0.25000   0.00000  Uiso   1.00
O606   O     0.77321   0.79375   0.24999   0.00000  Uiso   1.00
O607   O     0.83333   0.87293   0.18573   0.00000  Uiso   1.00
O608   O     0.83334   0.79374   0.31427   0.00000  Uiso   1.00
O609   O     0.83334   0.87293   0.31427   0.00000  Uiso   1.00
O610   O     0.83333   0.79374   0.18573   0.00000  Uiso   1.00
S611   S     0.77675   0.90802   0.11669   0.00000  Uiso   1.00
O612   O     0.80250   0.94724   0.13493   0.00000  Uiso   1.00
O613   O     0.74732   0.92778   0.08321   0.00000  Uiso   1.00
O614   O     0.74954   0.88294   0.15729   0.00000  Uiso   1.00
H615   H     0.72921   0.90700   0.16617   0.00000  Uiso   1.00
S616   S     0.77622   0.75787   0.38123   0.00000  Uiso   1.00
O617   O     0.80119   0.71985   0.35983   0.00000  Uiso   1.00
O618   O     0.74786   0.73598   0.41445   0.00000  Uiso   1.00
O619   O     0.74774   0.78542   0.34299   0.00000  Uiso   1.00
H620   H     0.72845   0.76122   0.33197   0.00000  Uiso   1.00
S621   S     0.88992   0.90802   0.38331   0.00000  Uiso   1.00
O622   O     0.86417   0.94724   0.36507   0.00000  Uiso   1.00
O623   O     0.91935   0.92778   0.41679   0.00000  Uiso   1.00
O624   O     0.91713   0.88294   0.34271   0.00000  Uiso   1.00
H625   H     0.93745   0.90700   0.33382   0.00000  Uiso   1.00
S626   S     0.89045   0.75787   0.11877   0.00000  Uiso   1.00
O627   O     0.86549   0.71985   0.14017   0.00000  Uiso   1.00
O628   O     0.91881   0.73599   0.08555   0.00000  Uiso   1.00
O629   O     0.91893   0.78543   0.15701   0.00000  Uiso   1.00
H630   H     0.93823   0.76123   0.16803   0.00000  Uiso   1.00
C631   C     0.08735   0.16667   0.74992   0.00000  Uiso   1.00
C632   C     0.24599   0.16667   0.75008   0.00000  Uiso   1.00
C633   C     0.16671   0.16660   0.66481   0.00000  Uiso   1.00
C634   C     0.16662   0.16660   0.83519   0.00000  Uiso   1.00
C635   C     0.13432   0.02480   0.73270   0.00000  Uiso   1.00
C636   C     0.19916   0.30858   0.76695   0.00000  Uiso   1.00
C637   C     0.19901   0.02480   0.76730   0.00000  Uiso   1.00
C638   C     0.13417   0.30858   0.73305   0.00000  Uiso   1.00
C639   C     0.02128   0.12409   0.74978   0.00000  Uiso   1.00
C640   C     0.31205   0.20928   0.74993   0.00000  Uiso   1.00
C641   C     0.31206   0.12409   0.75022   0.00000  Uiso   1.00
C642   C     0.02128   0.20928   0.75007   0.00000  Uiso   1.00
C643   C     0.14396   0.19858   0.54611   0.00000  Uiso   1.00
C644   C     0.14432   0.13136   0.95306   0.00000  Uiso   1.00
C645   C     0.18937   0.19858   0.95389   0.00000  Uiso   1.00
C646   C     0.18902   0.13136   0.54694   0.00000  Uiso   1.00
C647   C     0.14289   0.19929   0.59196   0.00000  Uiso   1.00
C648   C     0.14300   0.13206   0.90716   0.00000  Uiso   1.00
C649   C     0.19044   0.19929   0.90804   0.00000  Uiso   1.00
C650   C     0.19034   0.13206   0.59284   0.00000  Uiso   1.00
C651   C     0.16675   0.16614   0.61620   0.00000  Uiso   1.00
C652   C     0.16659   0.16614   0.88380   0.00000  Uiso   1.00
C653   C     0.16645   0.16467   0.52392   0.00000  Uiso   1.00
C654   C     0.16688   0.16467   0.97608   0.00000  Uiso   1.00
C655   C     0.29060   0.16668   0.75011   0.00000  Uiso   1.00
C656   C     0.04273   0.16668   0.74989   0.00000  Uiso   1.00
Cu657  Cu    0.16667   0.21355   0.75000   0.00000  Uiso   1.00
Cu658  Cu    0.16667   0.11978   0.75000   0.00000  Uiso   1.00
H659   H     0.10849   0.04335   0.71852   0.00000  Uiso   1.00
H660   H     0.22525   0.29008   0.78056   0.00000  Uiso   1.00
H661   H     0.22485   0.04335   0.78148   0.00000  Uiso   1.00
H662   H     0.10808   0.29008   0.71944   0.00000  Uiso   1.00
H663   H     0.12665   0.22407   0.52721   0.00000  Uiso   1.00
H664   H     0.12689   0.10552   0.97132   0.00000  Uiso   1.00
H665   H     0.20668   0.22407   0.97279   0.00000  Uiso   1.00
H666   H     0.20644   0.10552   0.52868   0.00000  Uiso   1.00
H667   H     0.03728   0.09078   0.74955   0.00000  Uiso   1.00
H668   H     0.29605   0.24258   0.74982   0.00000  Uiso   1.00
H669   H     0.29606   0.09078   0.75045   0.00000  Uiso   1.00
H670   H     0.03729   0.24258   0.75018   0.00000  Uiso   1.00
N671   N     0.16667   0.28402   0.75000   0.00000  Uiso   1.00
N672   N     0.16667   0.04931   0.75000   0.00000  Uiso   1.00
O673   O     0.10655   0.20625   0.74999   0.00000  Uiso   1.00
O674   O     0.22679   0.12709   0.75000   0.00000  Uiso   1.00
O675   O     0.22679   0.20625   0.75000   0.00000  Uiso   1.00
O676   O     0.10655   0.12709   0.74999   0.00000  Uiso   1.00
O677   O     0.16666   0.20626   0.68573   0.00000  Uiso   1.00
O678   O     0.16667   0.12707   0.81427   0.00000  Uiso   1.00
O679   O     0.16667   0.20626   0.81427   0.00000  Uiso   1.00
O680   O     0.16666   0.12707   0.68573   0.00000  Uiso   1.00
S681   S     0.11008   0.24136   0.61669   0.00000  Uiso   1.00
O682   O     0.13583   0.28058   0.63493   0.00000  Uiso   1.00
O683   O     0.08065   0.26111   0.58321   0.00000  Uiso   1.00
O684   O     0.08287   0.21627   0.65729   0.00000  Uiso   1.00
H685   H     0.06255   0.24033   0.66617   0.00000  Uiso   1.00
S686   S     0.10955   0.09120   0.88123   0.00000  Uiso   1.00
O687   O     0.13452   0.05318   0.85983   0.00000  Uiso   1.00
O688   O     0.08119   0.06932   0.91445   0.00000  Uiso   1.00
O689   O     0.08107   0.11876   0.84299   0.00000  Uiso   1.00
H690   H     0.06178   0.09456   0.83197   0.00000  Uiso   1.00
S691   S     0.22325   0.24136   0.88331   0.00000  Uiso   1.00
O692   O     0.19750   0.28058   0.86507   0.00000  Uiso   1.00
O693   O     0.25268   0.26111   0.91679   0.00000  Uiso   1.00
O694   O     0.25046   0.21627   0.84271   0.00000  Uiso   1.00
H695   H     0.27078   0.24033   0.83382   0.00000  Uiso   1.00
S696   S     0.22379   0.09120   0.61877   0.00000  Uiso   1.00
O697   O     0.19882   0.05318   0.64017   0.00000  Uiso   1.00
O698   O     0.25215   0.06932   0.58555   0.00000  Uiso   1.00
O699   O     0.25226   0.11876   0.65701   0.00000  Uiso   1.00
H700   H     0.27156   0.09457   0.66803   0.00000  Uiso   1.00
C701   C     0.42068   0.16667   0.74992   0.00000  Uiso   1.00
C702   C     0.57932   0.16667   0.75008   0.00000  Uiso   1.00
C703   C     0.50004   0.16660   0.66481   0.00000  Uiso   1.00
C704   C     0.49996   0.16660   0.83519   0.00000  Uiso   1.00
C705   C     0.46765   0.02480   0.73270   0.00000  Uiso   1.00
C706   C     0.53249   0.30858   0.76695   0.00000  Uiso   1.00
C707   C     0.53235   0.02480   0.76730   0.00000  Uiso   1.00
C708   C     0.46751   0.30858   0.73305   0.00000  Uiso   1.00
C709   C     0.35461   0.12409   0.74978   0.00000  Uiso   1.00
C710   C     0.64539   0.20928   0.74993   0.00000  Uiso   1.00
C711   C     0.64539   0.12409   0.75022   0.00000  Uiso   1.00
C712   C     0.35461   0.20928   0.75007   0.00000  Uiso   1.00
C713   C     0.47729   0.19858   0.54611   0.00000  Uiso   1.00
C714   C     0.47765   0.13136   0.95306   0.00000  Uiso   1.00
C715   C     0.52270   0.19858   0.95389   0.00000  Uiso   1.00
C716   C     0.52235   0.13136   0.54694   0.00000  Uiso   1.00
C717   C     0.47623   0.19929   0.59196   0.00000  Uiso   1.00
C718   C     0.47633   0.13206   0.90716   0.00000  Uiso   1.00
C719   C     0.52377   0.19929   0.90804   0.00000  Uiso   1.00
C720   C     0.52367   0.13206   0.59284   0.00000  Uiso   1.00
C721   C     0.50008   0.16614   0.61620   0.00000  Uiso   1.00
C722   C     0.49992   0.16614   0.88380   0.00000  Uiso   1.00
C723   C     0.49979   0.16467   0.52392   0.00000  Uiso   1.00
C724   C     0.50021   0.16467   0.97608   0.00000  Uiso   1.00
C725   C     0.62394   0.16668   0.75011   0.00000  Uiso   1.00
C726   C     0.37606   0.16668   0.74989   0.00000  Uiso   1.00
Cu727  Cu    0.50000   0.21355   0.75000   0.00000  Uiso   1.00
Cu728  Cu    0.50000   0.11978   0.75000   0.00000  Uiso   1.00
H729   H     0.44182   0.04335   0.71852   0.00000  Uiso   1.00
H730   H     0.55859   0.29008   0.78056   0.00000  Uiso   1.00
H731   H     0.55818   0.04335   0.78148   0.00000  Uiso   1.00
H732   H     0.44141   0.29008   0.71944   0.00000  Uiso   1.00
H733   H     0.45998   0.22407   0.52721   0.00000  Uiso   1.00
H734   H     0.46023   0.10552   0.97132   0.00000  Uiso   1.00
H735   H     0.54002   0.22407   0.97279   0.00000  Uiso   1.00
H736   H     0.53978   0.10552   0.52868   0.00000  Uiso   1.00
H737   H     0.37061   0.09078   0.74955   0.00000  Uiso   1.00
H738   H     0.62938   0.24258   0.74982   0.00000  Uiso   1.00
H739   H     0.62939   0.09078   0.75045   0.00000  Uiso   1.00
H740   H     0.37062   0.24258   0.75018   0.00000  Uiso   1.00
N741   N     0.50000   0.28402   0.75000   0.00000  Uiso   1.00
N742   N     0.50000   0.04931   0.75000   0.00000  Uiso   1.00
O743   O     0.43988   0.20625   0.74999   0.00000  Uiso   1.00
O744   O     0.56012   0.12709   0.75000   0.00000  Uiso   1.00
O745   O     0.56012   0.20625   0.75000   0.00000  Uiso   1.00
O746   O     0.43988   0.12709   0.74999   0.00000  Uiso   1.00
O747   O     0.50000   0.20626   0.68573   0.00000  Uiso   1.00
O748   O     0.50000   0.12707   0.81427   0.00000  Uiso   1.00
O749   O     0.50000   0.20626   0.81427   0.00000  Uiso   1.00
O750   O     0.50000   0.12707   0.68573   0.00000  Uiso   1.00
S751   S     0.44341   0.24136   0.61669   0.00000  Uiso   1.00
O752   O     0.46916   0.28058   0.63493   0.00000  Uiso   1.00
O753   O     0.41398   0.26111   0.58321   0.00000  Uiso   1.00
O754   O     0.41620   0.21627   0.65729   0.00000  Uiso   1.00
H755   H     0.39588   0.24033   0.66617   0.00000  Uiso   1.00
S756   S     0.44288   0.09120   0.88123   0.00000  Uiso   1.00
O757   O     0.46785   0.05318   0.85983   0.00000  Uiso   1.00
O758   O     0.41452   0.06932   0.91445   0.00000  Uiso   1.00
O759   O     0.41440   0.11876   0.84299   0.00000  Uiso   1.00
H760   H     0.39511   0.09456   0.83197   0.00000  Uiso   1.00
S761   S     0.55659   0.24136   0.88331   0.00000  Uiso   1.00
O762   O     0.53084   0.28058   0.86507   0.00000  Uiso   1.00
O763   O     0.58601   0.26111   0.91679   0.00000  Uiso   1.00
O764   O     0.58380   0.21627   0.84271   0.00000  Uiso   1.00
H765   H     0.60412   0.24033   0.83382   0.00000  Uiso   1.00
S766   S     0.55712   0.09120   0.61877   0.00000  Uiso   1.00
O767   O     0.53215   0.05318   0.64017   0.00000  Uiso   1.00
O768   O     0.58548   0.06932   0.58555   0.00000  Uiso   1.00
O769   O     0.58560   0.11876   0.65701   0.00000  Uiso   1.00
H770   H     0.60490   0.09457   0.66803   0.00000  Uiso   1.00
C771   C     0.75401   0.16667   0.74992   0.00000  Uiso   1.00
C772   C     0.91266   0.16667   0.75008   0.00000  Uiso   1.00
C773   C     0.83338   0.16660   0.66481   0.00000  Uiso   1.00
C774   C     0.83329   0.16660   0.83519   0.00000  Uiso   1.00
C775   C     0.80099   0.02480   0.73270   0.00000  Uiso   1.00
C776   C     0.86583   0.30858   0.76695   0.00000  Uiso   1.00
C777   C     0.86568   0.02480   0.76730   0.00000  Uiso   1.00
C778   C     0.80084   0.30858   0.73305   0.00000  Uiso   1.00
C779   C     0.68794   0.12409   0.74978   0.00000  Uiso   1.00
C780   C     0.97872   0.20928   0.74993   0.00000  Uiso   1.00
C781   C     0.97872   0.12409   0.75022   0.00000  Uiso   1.00
C782   C     0.68795   0.20928   0.75007   0.00000  Uiso   1.00
C783   C     0.81063   0.19858   0.54611   0.00000  Uiso   1.00
C784   C     0.81098   0.13136   0.95306   0.00000  Uiso   1.00
C785   C     0.85604   0.19858   0.95389   0.00000  Uiso   1.00
C786   C     0.85568   0.13136   0.54694   0.00000  Uiso   1.00
C787   C     0.80956   0.19929   0.59196   0.00000  Uiso   1.00
C788   C     0.80966   0.13206   0.90716   0.00000  Uiso   1.00
C789   C     0.85711   0.19929   0.90804   0.00000  Uiso   1.00
C790   C     0.85701   0.13206   0.59284   0.00000  Uiso   1.00
C791   C     0.83341   0.16614   0.61620   0.00000  Uiso   1.00
C792   C     0.83325   0.16614   0.88380   0.00000  Uiso   1.00
C793   C     0.83312   0.16467   0.52392   0.00000  Uiso   1.00
C794   C     0.83355   0.16467   0.97608   0.00000  Uiso   1.00
C795   C     0.95727   0.16668   0.75011   0.00000  Uiso   1.00
C796   C     0.70940   0.16668   0.74989   0.00000  Uiso   1.00
Cu797  Cu    0.83333   0.21355   0.75000   0.00000  Uiso   1.00
Cu798  Cu    0.83333   0.11978   0.75000   0.00000  Uiso   1.00
H799   H     0.77515   0.04335   0.71852   0.00000  Uiso   1.00
H800   H     0.89192   0.29008   0.78056   0.00000  Uiso   1.00
H801   H     0.89151   0.04335   0.78148   0.00000  Uiso   1.00
H802   H     0.77475   0.29008   0.71944   0.00000  Uiso   1.00
H803   H     0.79332   0.22407   0.52721   0.00000  Uiso   1.00
H804   H     0.79356   0.10552   0.97132   0.00000  Uiso   1.00
H805   H     0.87335   0.22407   0.97279   0.00000  Uiso   1.00
H806   H     0.87311   0.10552   0.52868   0.00000  Uiso   1.00
H807   H     0.70394   0.09078   0.74955   0.00000  Uiso   1.00
H808   H     0.96271   0.24258   0.74982   0.00000  Uiso   1.00
H809   H     0.96272   0.09078   0.75045   0.00000  Uiso   1.00
H810   H     0.70396   0.24258   0.75018   0.00000  Uiso   1.00
N811   N     0.83333   0.28402   0.75000   0.00000  Uiso   1.00
N812   N     0.83333   0.04931   0.75000   0.00000  Uiso   1.00
O813   O     0.77321   0.20625   0.74999   0.00000  Uiso   1.00
O814   O     0.89345   0.12709   0.75000   0.00000  Uiso   1.00
O815   O     0.89345   0.20625   0.75000   0.00000  Uiso   1.00
O816   O     0.77321   0.12709   0.74999   0.00000  Uiso   1.00
O817   O     0.83333   0.20626   0.68573   0.00000  Uiso   1.00
O818   O     0.83334   0.12707   0.81427   0.00000  Uiso   1.00
O819   O     0.83334   0.20626   0.81427   0.00000  Uiso   1.00
O820   O     0.83333   0.12707   0.68573   0.00000  Uiso   1.00
S821   S     0.77675   0.24136   0.61669   0.00000  Uiso   1.00
O822   O     0.80250   0.28058   0.63493   0.00000  Uiso   1.00
O823   O     0.74732   0.26111   0.58321   0.00000  Uiso   1.00
O824   O     0.74954   0.21627   0.65729   0.00000  Uiso   1.00
H825   H     0.72921   0.24033   0.66617   0.00000  Uiso   1.00
S826   S     0.77622   0.09120   0.88123   0.00000  Uiso   1.00
O827   O     0.80119   0.05318   0.85983   0.00000  Uiso   1.00
O828   O     0.74786   0.06932   0.91445   0.00000  Uiso   1.00
O829   O     0.74774   0.11876   0.84299   0.00000  Uiso   1.00
H830   H     0.72845   0.09456   0.83197   0.00000  Uiso   1.00
S831   S     0.88992   0.24136   0.88331   0.00000  Uiso   1.00
O832   O     0.86417   0.28058   0.86507   0.00000  Uiso   1.00
O833   O     0.91935   0.26111   0.91679   0.00000  Uiso   1.00
O834   O     0.91713   0.21627   0.84271   0.00000  Uiso   1.00
H835   H     0.93745   0.24033   0.83382   0.00000  Uiso   1.00
S836   S     0.89045   0.09120   0.61877   0.00000  Uiso   1.00
O837   O     0.86549   0.05318   0.64017   0.00000  Uiso   1.00
O838   O     0.91881   0.06932   0.58555   0.00000  Uiso   1.00
O839   O     0.91893   0.11876   0.65701   0.00000  Uiso   1.00
H840   H     0.93823   0.09457   0.66803   0.00000  Uiso   1.00
C841   C     0.08735   0.50000   0.74992   0.00000  Uiso   1.00
C842   C     0.24599   0.50000   0.75008   0.00000  Uiso   1.00
C843   C     0.16671   0.49993   0.66481   0.00000  Uiso   1.00
C844   C     0.16662   0.49993   0.83519   0.00000  Uiso   1.00
C845   C     0.13432   0.35814   0.73270   0.00000  Uiso   1.00
C846   C     0.19916   0.64191   0.76695   0.00000  Uiso   1.00
C847   C     0.19901   0.35814   0.76730   0.00000  Uiso   1.00
C848   C     0.13417   0.64191   0.73305   0.00000  Uiso   1.00
C849   C     0.02128   0.45742   0.74978   0.00000  Uiso   1.00
C850   C     0.31205   0.54261   0.74993   0.00000  Uiso   1.00
C851   C     0.31206   0.45742   0.75022   0.00000  Uiso   1.00
C852   C     0.02128   0.54261   0.75007   0.00000  Uiso   1.00
C853   C     0.14396   0.53191   0.54611   0.00000  Uiso   1.00
C854   C     0.14432   0.46469   0.95306   0.00000  Uiso   1.00
C855   C     0.18937   0.53191   0.95389   0.00000  Uiso   1.00
C856   C     0.18902   0.46469   0.54694   0.00000  Uiso   1.00
C857   C     0.14289   0.53262   0.59196   0.00000  Uiso   1.00
C858   C     0.14300   0.46539   0.90716   0.00000  Uiso   1.00
C859   C     0.19044   0.53262   0.90804   0.00000  Uiso   1.00
C860   C     0.19034   0.46539   0.59284   0.00000  Uiso   1.00
C861   C     0.16675   0.49947   0.61620   0.00000  Uiso   1.00
C862   C     0.16659   0.49947   0.88380   0.00000  Uiso   1.00
C863   C     0.16645   0.49800   0.52392   0.00000  Uiso   1.00
C864   C     0.16688   0.49800   0.97608   0.00000  Uiso   1.00
C865   C     0.29060   0.50001   0.75011   0.00000  Uiso   1.00
C866   C     0.04273   0.50001   0.74989   0.00000  Uiso   1.00
Cu867  Cu    0.16667   0.54689   0.75000   0.00000  Uiso   1.00
Cu868  Cu    0.16667   0.45311   0.75000   0.00000  Uiso   1.00
H869   H     0.10849   0.37668   0.71852   0.00000  Uiso   1.00
H870   H     0.22525   0.62342   0.78056   0.00000  Uiso   1.00
H871   H     0.22485   0.37668   0.78148   0.00000  Uiso   1.00
H872   H     0.10808   0.62342   0.71944   0.00000  Uiso   1.00
H873   H     0.12665   0.55741   0.52721   0.00000  Uiso   1.00
H874   H     0.12689   0.43885   0.97132   0.00000  Uiso   1.00
H875   H     0.20668   0.55741   0.97279   0.00000  Uiso   1.00
H876   H     0.20644   0.43886   0.52868   0.00000  Uiso   1.00
H877   H     0.03728   0.42411   0.74955   0.00000  Uiso   1.00
H878   H     0.29605   0.57592   0.74982   0.00000  Uiso   1.00
H879   H     0.29606   0.42411   0.75045   0.00000  Uiso   1.00
H880   H     0.03729   0.57592   0.75018   0.00000  Uiso   1.00
N881   N     0.16667   0.61736   0.75000   0.00000  Uiso   1.00
N882   N     0.16667   0.38264   0.75000   0.00000  Uiso   1.00
O883   O     0.10655   0.53958   0.74999   0.00000  Uiso   1.00
O884   O     0.22679   0.46042   0.75000   0.00000  Uiso   1.00
O885   O     0.22679   0.53958   0.75000   0.00000  Uiso   1.00
O886   O     0.10655   0.46042   0.74999   0.00000  Uiso   1.00
O887   O     0.16666   0.53959   0.68573   0.00000  Uiso   1.00
O888   O     0.16667   0.46041   0.81427   0.00000  Uiso   1.00
O889   O     0.16667   0.53959   0.81427   0.00000  Uiso   1.00
O890   O     0.16666   0.46041   0.68573   0.00000  Uiso   1.00
S891   S     0.11008   0.57469   0.61669   0.00000  Uiso   1.00
O892   O     0.13583   0.61391   0.63493   0.00000  Uiso   1.00
O893   O     0.08065   0.59444   0.58321   0.00000  Uiso   1.00
O894   O     0.08287   0.54960   0.65729   0.00000  Uiso   1.00
H895   H     0.06255   0.57366   0.66617   0.00000  Uiso   1.00
S896   S     0.10955   0.42453   0.88123   0.00000  Uiso   1.00
O897   O     0.13452   0.38652   0.85983   0.00000  Uiso   1.00
O898   O     0.08119   0.40265   0.91445   0.00000  Uiso   1.00
O899   O     0.08107   0.45209   0.84299   0.00000  Uiso   1.00
H900   H     0.06178   0.42789   0.83197   0.00000  Uiso   1.00
S901   S     0.22325   0.57469   0.88331   0.00000  Uiso   1.00
O902   O     0.19750   0.61391   0.86507   0.00000  Uiso   1.00
O903   O     0.25268   0.59444   0.91679   0.00000  Uiso   1.00
O904   O     0.25046   0.54961   0.84271   0.00000  Uiso   1.00
H905   H     0.27078   0.57367   0.83382   0.00000  Uiso   1.00
S906   S     0.22379   0.42454   0.61877   0.00000  Uiso   1.00
O907   O     0.19882   0.38652   0.64017   0.00000  Uiso   1.00
O908   O     0.25215   0.40266   0.58555   0.00000  Uiso   1.00
O909   O     0.25226   0.45210   0.65701   0.00000  Uiso   1.00
H910   H     0.27156   0.42790   0.66803   0.00000  Uiso   1.00
C911   C     0.42068   0.50000   0.74992   0.00000  Uiso   1.00
C912   C     0.57932   0.50000   0.75008   0.00000  Uiso   1.00
C913   C     0.50004   0.49993   0.66481   0.00000  Uiso   1.00
C914   C     0.49996   0.49993   0.83519   0.00000  Uiso   1.00
C915   C     0.46765   0.35814   0.73270   0.00000  Uiso   1.00
C916   C     0.53249   0.64191   0.76695   0.00000  Uiso   1.00
C917   C     0.53235   0.35814   0.76730   0.00000  Uiso   1.00
C918   C     0.46751   0.64191   0.73305   0.00000  Uiso   1.00
C919   C     0.35461   0.45742   0.74978   0.00000  Uiso   1.00
C920   C     0.64539   0.54261   0.74993   0.00000  Uiso   1.00
C921   C     0.64539   0.45742   0.75022   0.00000  Uiso   1.00
C922   C     0.35461   0.54261   0.75007   0.00000  Uiso   1.00
C923   C     0.47729   0.53191   0.54611   0.00000  Uiso   1.00
C924   C     0.47765   0.46469   0.95306   0.00000  Uiso   1.00
C925   C     0.52270   0.53191   0.95389   0.00000  Uiso   1.00
C926   C     0.52235   0.46469   0.54694   0.00000  Uiso   1.00
C927   C     0.47623   0.53262   0.59196   0.00000  Uiso   1.00
C928   C     0.47633   0.46539   0.90716   0.00000  Uiso   1.00
C929   C     0.52377   0.53262   0.90804   0.00000  Uiso   1.00
C930   C     0.52367   0.46539   0.59284   0.00000  Uiso   1.00
C931   C     0.50008   0.49947   0.61620   0.00000  Uiso   1.00
C932   C     0.49992   0.49947   0.88380   0.00000  Uiso   1.00
C933   C     0.49979   0.49800   0.52392   0.00000  Uiso   1.00
C934   C     0.50021   0.49800   0.97608   0.00000  Uiso   1.00
C935   C     0.62394   0.50001   0.75011   0.00000  Uiso   1.00
C936   C     0.37606   0.50001   0.74989   0.00000  Uiso   1.00
Cu937  Cu    0.50000   0.54689   0.75000   0.00000  Uiso   1.00
Cu938  Cu    0.50000   0.45311   0.75000   0.00000  Uiso   1.00
H939   H     0.44182   0.37668   0.71852   0.00000  Uiso   1.00
H940   H     0.55859   0.62342   0.78056   0.00000  Uiso   1.00
H941   H     0.55818   0.37668   0.78148   0.00000  Uiso   1.00
H942   H     0.44141   0.62342   0.71944   0.00000  Uiso   1.00
H943   H     0.45998   0.55741   0.52721   0.00000  Uiso   1.00
H944   H     0.46023   0.43885   0.97132   0.00000  Uiso   1.00
H945   H     0.54002   0.55741   0.97279   0.00000  Uiso   1.00
H946   H     0.53978   0.43886   0.52868   0.00000  Uiso   1.00
H947   H     0.37061   0.42411   0.74955   0.00000  Uiso   1.00
H948   H     0.62938   0.57592   0.74982   0.00000  Uiso   1.00
H949   H     0.62939   0.42411   0.75045   0.00000  Uiso   1.00
H950   H     0.37062   0.57592   0.75018   0.00000  Uiso   1.00
N951   N     0.50000   0.61736   0.75000   0.00000  Uiso   1.00
N952   N     0.50000   0.38264   0.75000   0.00000  Uiso   1.00
O953   O     0.43988   0.53958   0.74999   0.00000  Uiso   1.00
O954   O     0.56012   0.46042   0.75000   0.00000  Uiso   1.00
O955   O     0.56012   0.53958   0.75000   0.00000  Uiso   1.00
O956   O     0.43988   0.46042   0.74999   0.00000  Uiso   1.00
O957   O     0.50000   0.53959   0.68573   0.00000  Uiso   1.00
O958   O     0.50000   0.46041   0.81427   0.00000  Uiso   1.00
O959   O     0.50000   0.53959   0.81427   0.00000  Uiso   1.00
O960   O     0.50000   0.46041   0.68573   0.00000  Uiso   1.00
S961   S     0.44341   0.57469   0.61669   0.00000  Uiso   1.00
O962   O     0.46916   0.61391   0.63493   0.00000  Uiso   1.00
O963   O     0.41398   0.59444   0.58321   0.00000  Uiso   1.00
O964   O     0.41620   0.54960   0.65729   0.00000  Uiso   1.00
H965   H     0.39588   0.57366   0.66617   0.00000  Uiso   1.00
S966   S     0.44288   0.42453   0.88123   0.00000  Uiso   1.00
O967   O     0.46785   0.38652   0.85983   0.00000  Uiso   1.00
O968   O     0.41452   0.40265   0.91445   0.00000  Uiso   1.00
O969   O     0.41440   0.45209   0.84299   0.00000  Uiso   1.00
H970   H     0.39511   0.42789   0.83197   0.00000  Uiso   1.00
S971   S     0.55659   0.57469   0.88331   0.00000  Uiso   1.00
O972   O     0.53084   0.61391   0.86507   0.00000  Uiso   1.00
O973   O     0.58601   0.59444   0.91679   0.00000  Uiso   1.00
O974   O     0.58380   0.54961   0.84271   0.00000  Uiso   1.00
H975   H     0.60412   0.57367   0.83382   0.00000  Uiso   1.00
S976   S     0.55712   0.42454   0.61877   0.00000  Uiso   1.00
O977   O     0.53215   0.38652   0.64017   0.00000  Uiso   1.00
O978   O     0.58548   0.40266   0.58555   0.00000  Uiso   1.00
O979   O     0.58560   0.45210   0.65701   0.00000  Uiso   1.00
H980   H     0.60490   0.42790   0.66803   0.00000  Uiso   1.00
C981   C     0.75401   0.50000   0.74992   0.00000  Uiso   1.00
C982   C     0.91266   0.50000   0.75008   0.00000  Uiso   1.00
C983   C     0.83338   0.49993   0.66481   0.00000  Uiso   1.00
C984   C     0.83329   0.49993   0.83519   0.00000  Uiso   1.00
C985   C     0.80099   0.35814   0.73270   0.00000  Uiso   1.00
C986   C     0.86583   0.64191   0.76695   0.00000  Uiso   1.00
C987   C     0.86568   0.35814   0.76730   0.00000  Uiso   1.00
C988   C     0.80084   0.64191   0.73305   0.00000  Uiso   1.00
C989   C     0.68794   0.45742   0.74978   0.00000  Uiso   1.00
C990   C     0.97872   0.54261   0.74993   0.00000  Uiso   1.00
C991   C     0.97872   0.45742   0.75022   0.00000  Uiso   1.00
C992   C     0.68795   0.54261   0.75007   0.00000  Uiso   1.00
C993   C     0.81063   0.53191   0.54611   0.00000  Uiso   1.00
C994   C     0.81098   0.46469   0.95306   0.00000  Uiso   1.00
C995   C     0.85604   0.53191   0.95389   0.00000  Uiso   1.00
C996   C     0.85568   0.46469   0.54694   0.00000  Uiso   1.00
C997   C     0.80956   0.53262   0.59196   0.00000  Uiso   1.00
C998   C     0.80966   0.46539   0.90716   0.00000  Uiso   1.00
C999   C     0.85711   0.53262   0.90804   0.00000  Uiso   1.00
C1000  C     0.85701   0.46539   0.59284   0.00000  Uiso   1.00
C1001  C     0.83341   0.49947   0.61620   0.00000  Uiso   1.00
C1002  C     0.83325   0.49947   0.88380   0.00000  Uiso   1.00
C1003  C     0.83312   0.49800   0.52392   0.00000  Uiso   1.00
C1004  C     0.83355   0.49800   0.97608   0.00000  Uiso   1.00
C1005  C     0.95727   0.50001   0.75011   0.00000  Uiso   1.00
C1006  C     0.70940   0.50001   0.74989   0.00000  Uiso   1.00
Cu1007 Cu    0.83333   0.54689   0.75000   0.00000  Uiso   1.00
Cu1008 Cu    0.83333   0.45311   0.75000   0.00000  Uiso   1.00
H1009  H     0.77515   0.37668   0.71852   0.00000  Uiso   1.00
H1010  H     0.89192   0.62342   0.78056   0.00000  Uiso   1.00
H1011  H     0.89151   0.37668   0.78148   0.00000  Uiso   1.00
H1012  H     0.77475   0.62342   0.71944   0.00000  Uiso   1.00
H1013  H     0.79332   0.55741   0.52721   0.00000  Uiso   1.00
H1014  H     0.79356   0.43885   0.97132   0.00000  Uiso   1.00
H1015  H     0.87335   0.55741   0.97279   0.00000  Uiso   1.00
H1016  H     0.87311   0.43886   0.52868   0.00000  Uiso   1.00
H1017  H     0.70394   0.42411   0.74955   0.00000  Uiso   1.00
H1018  H     0.96271   0.57592   0.74982   0.00000  Uiso   1.00
H1019  H     0.96272   0.42411   0.75045   0.00000  Uiso   1.00
H1020  H     0.70396   0.57592   0.75018   0.00000  Uiso   1.00
N1021  N     0.83333   0.61736   0.75000   0.00000  Uiso   1.00
N1022  N     0.83333   0.38264   0.75000   0.00000  Uiso   1.00
O1023  O     0.77321   0.53958   0.74999   0.00000  Uiso   1.00
O1024  O     0.89345   0.46042   0.75000   0.00000  Uiso   1.00
O1025  O     0.89345   0.53958   0.75000   0.00000  Uiso   1.00
O1026  O     0.77321   0.46042   0.74999   0.00000  Uiso   1.00
O1027  O     0.83333   0.53959   0.68573   0.00000  Uiso   1.00
O1028  O     0.83334   0.46041   0.81427   0.00000  Uiso   1.00
O1029  O     0.83334   0.53959   0.81427   0.00000  Uiso   1.00
O1030  O     0.83333   0.46041   0.68573   0.00000  Uiso   1.00
S1031  S     0.77675   0.57469   0.61669   0.00000  Uiso   1.00
O1032  O     0.80250   0.61391   0.63493   0.00000  Uiso   1.00
O1033  O     0.74732   0.59444   0.58321   0.00000  Uiso   1.00
O1034  O     0.74954   0.54960   0.65729   0.00000  Uiso   1.00
H1035  H     0.72921   0.57366   0.66617   0.00000  Uiso   1.00
S1036  S     0.77622   0.42453   0.88123   0.00000  Uiso   1.00
O1037  O     0.80119   0.38652   0.85983   0.00000  Uiso   1.00
O1038  O     0.74786   0.40265   0.91445   0.00000  Uiso   1.00
O1039  O     0.74774   0.45209   0.84299   0.00000  Uiso   1.00
H1040  H     0.72845   0.42789   0.83197   0.00000  Uiso   1.00
S1041  S     0.88992   0.57469   0.88331   0.00000  Uiso   1.00
O1042  O     0.86417   0.61391   0.86507   0.00000  Uiso   1.00
O1043  O     0.91935   0.59444   0.91679   0.00000  Uiso   1.00
O1044  O     0.91713   0.54961   0.84271   0.00000  Uiso   1.00
H1045  H     0.93745   0.57367   0.83382   0.00000  Uiso   1.00
S1046  S     0.89045   0.42454   0.61877   0.00000  Uiso   1.00
O1047  O     0.86549   0.38652   0.64017   0.00000  Uiso   1.00
O1048  O     0.91881   0.40266   0.58555   0.00000  Uiso   1.00
O1049  O     0.91893   0.45210   0.65701   0.00000  Uiso   1.00
H1050  H     0.93823   0.42790   0.66803   0.00000  Uiso   1.00
C1051  C     0.08735   0.83334   0.74992   0.00000  Uiso   1.00
C1052  C     0.24599   0.83334   0.75008   0.00000  Uiso   1.00
C1053  C     0.16671   0.83327   0.66481   0.00000  Uiso   1.00
C1054  C     0.16662   0.83327   0.83519   0.00000  Uiso   1.00
C1055  C     0.13432   0.69147   0.73270   0.00000  Uiso   1.00
C1056  C     0.19916   0.97524   0.76695   0.00000  Uiso   1.00
C1057  C     0.19901   0.69147   0.76730   0.00000  Uiso   1.00
C1058  C     0.13417   0.97524   0.73305   0.00000  Uiso   1.00
C1059  C     0.02128   0.79075   0.74978   0.00000  Uiso   1.00
C1060  C     0.31205   0.87594   0.74993   0.00000  Uiso   1.00
C1061  C     0.31206   0.79075   0.75022   0.00000  Uiso   1.00
C1062  C     0.02128   0.87594   0.75007   0.00000  Uiso   1.00
C1063  C     0.14396   0.86524   0.54611   0.00000  Uiso   1.00
C1064  C     0.14432   0.79803   0.95306   0.00000  Uiso   1.00
C1065  C     0.18937   0.86524   0.95389   0.00000  Uiso   1.00
C1066  C     0.18902   0.79803   0.54694   0.00000  Uiso   1.00
C1067  C     0.14289   0.86595   0.59196   0.00000  Uiso   1.00
C1068  C     0.14300   0.79872   0.90716   0.00000  Uiso   1.00
C1069  C     0.19044   0.86595   0.90804   0.00000  Uiso   1.00
C1070  C     0.19034   0.79873   0.59284   0.00000  Uiso   1.00
C1071  C     0.16675   0.83281   0.61620   0.00000  Uiso   1.00
C1072  C     0.16659   0.83281   0.88380   0.00000  Uiso   1.00
C1073  C     0.16645   0.83134   0.52392   0.00000  Uiso   1.00
C1074  C     0.16688   0.83134   0.97608   0.00000  Uiso   1.00
C1075  C     0.29060   0.83334   0.75011   0.00000  Uiso   1.00
C1076  C     0.04273   0.83334   0.74989   0.00000  Uiso   1.00
Cu1077 Cu    0.16667   0.88022   0.75000   0.00000  Uiso   1.00
Cu1078 Cu    0.16667   0.78645   0.75000   0.00000  Uiso   1.00
H1079  H     0.10849   0.71002   0.71852   0.00000  Uiso   1.00
H1080  H     0.22525   0.95675   0.78056   0.00000  Uiso   1.00
H1081  H     0.22485   0.71001   0.78148   0.00000  Uiso   1.00
H1082  H     0.10808   0.95675   0.71944   0.00000  Uiso   1.00
H1083  H     0.12665   0.89074   0.52721   0.00000  Uiso   1.00
H1084  H     0.12689   0.77219   0.97132   0.00000  Uiso   1.00
H1085  H     0.20668   0.89074   0.97279   0.00000  Uiso   1.00
H1086  H     0.20644   0.77219   0.52868   0.00000  Uiso   1.00
H1087  H     0.03728   0.75744   0.74955   0.00000  Uiso   1.00
H1088  H     0.29605   0.90925   0.74982   0.00000  Uiso   1.00
H1089  H     0.29606   0.75744   0.75045   0.00000  Uiso   1.00
H1090  H     0.03729   0.90925   0.75018   0.00000  Uiso   1.00
N1091  N     0.16667   0.95069   0.75000   0.00000  Uiso   1.00
N1092  N     0.16667   0.71598   0.75000   0.00000  Uiso   1.00
O1093  O     0.10655   0.87291   0.74999   0.00000  Uiso   1.00
O1094  O     0.22679   0.79375   0.75000   0.00000  Uiso   1.00
O1095  O     0.22679   0.87291   0.75000   0.00000  Uiso   1.00
O1096  O     0.10655   0.79375   0.74999   0.00000  Uiso   1.00
O1097  O     0.16666   0.87293   0.68573   0.00000  Uiso   1.00
O1098  O     0.16667   0.79374   0.81427   0.00000  Uiso   1.00
O1099  O     0.16667   0.87293   0.81427   0.00000  Uiso   1.00
O1100  O     0.16666   0.79374   0.68573   0.00000  Uiso   1.00
S1101  S     0.11008   0.90802   0.61669   0.00000  Uiso   1.00
O1102  O     0.13583   0.94724   0.63493   0.00000  Uiso   1.00
O1103  O     0.08065   0.92778   0.58321   0.00000  Uiso   1.00
O1104  O     0.08287   0.88294   0.65729   0.00000  Uiso   1.00
H1105  H     0.06255   0.90700   0.66617   0.00000  Uiso   1.00
S1106  S     0.10955   0.75787   0.88123   0.00000  Uiso   1.00
O1107  O     0.13452   0.71985   0.85983   0.00000  Uiso   1.00
O1108  O     0.08119   0.73598   0.91445   0.00000  Uiso   1.00
O1109  O     0.08107   0.78542   0.84299   0.00000  Uiso   1.00
H1110  H     0.06178   0.76122   0.83197   0.00000  Uiso   1.00
S1111  S     0.22325   0.90802   0.88331   0.00000  Uiso   1.00
O1112  O     0.19750   0.94724   0.86507   0.00000  Uiso   1.00
O1113  O     0.25268   0.92778   0.91679   0.00000  Uiso   1.00
O1114  O     0.25046   0.88294   0.84271   0.00000  Uiso   1.00
H1115  H     0.27078   0.90700   0.83382   0.00000  Uiso   1.00
S1116  S     0.22379   0.75787   0.61877   0.00000  Uiso   1.00
O1117  O     0.19882   0.71985   0.64017   0.00000  Uiso   1.00
O1118  O     0.25215   0.73599   0.58555   0.00000  Uiso   1.00
O1119  O     0.25226   0.78543   0.65701   0.00000  Uiso   1.00
H1120  H     0.27156   0.76123   0.66803   0.00000  Uiso   1.00
C1121  C     0.42068   0.83334   0.74992   0.00000  Uiso   1.00
C1122  C     0.57932   0.83334   0.75008   0.00000  Uiso   1.00
C1123  C     0.50004   0.83327   0.66481   0.00000  Uiso   1.00
C1124  C     0.49996   0.83327   0.83519   0.00000  Uiso   1.00
C1125  C     0.46765   0.69147   0.73270   0.00000  Uiso   1.00
C1126  C     0.53249   0.97524   0.76695   0.00000  Uiso   1.00
C1127  C     0.53235   0.69147   0.76730   0.00000  Uiso   1.00
C1128  C     0.46751   0.97524   0.73305   0.00000  Uiso   1.00
C1129  C     0.35461   0.79075   0.74978   0.00000  Uiso   1.00
C1130  C     0.64539   0.87594   0.74993   0.00000  Uiso   1.00
C1131  C     0.64539   0.79075   0.75022   0.00000  Uiso   1.00
C1132  C     0.35461   0.87594   0.75007   0.00000  Uiso   1.00
C1133  C     0.47729   0.86524   0.54611   0.00000  Uiso   1.00
C1134  C     0.47765   0.79803   0.95306   0.00000  Uiso   1.00
C1135  C     0.52270   0.86524   0.95389   0.00000  Uiso   1.00
C1136  C     0.52235   0.79803   0.54694   0.00000  Uiso   1.00
C1137  C     0.47623   0.86595   0.59196   0.00000  Uiso   1.00
C1138  C     0.47633   0.79872   0.90716   0.00000  Uiso   1.00
C1139  C     0.52377   0.86595   0.90804   0.00000  Uiso   1.00
C1140  C     0.52367   0.79873   0.59284   0.00000  Uiso   1.00
C1141  C     0.50008   0.83281   0.61620   0.00000  Uiso   1.00
C1142  C     0.49992   0.83281   0.88380   0.00000  Uiso   1.00
C1143  C     0.49979   0.83134   0.52392   0.00000  Uiso   1.00
C1144  C     0.50021   0.83134   0.97608   0.00000  Uiso   1.00
C1145  C     0.62394   0.83334   0.75011   0.00000  Uiso   1.00
C1146  C     0.37606   0.83334   0.74989   0.00000  Uiso   1.00
Cu1147 Cu    0.50000   0.88022   0.75000   0.00000  Uiso   1.00
Cu1148 Cu    0.50000   0.78645   0.75000   0.00000  Uiso   1.00
H1149  H     0.44182   0.71002   0.71852   0.00000  Uiso   1.00
H1150  H     0.55859   0.95675   0.78056   0.00000  Uiso   1.00
H1151  H     0.55818   0.71001   0.78148   0.00000  Uiso   1.00
H1152  H     0.44141   0.95675   0.71944   0.00000  Uiso   1.00
H1153  H     0.45998   0.89074   0.52721   0.00000  Uiso   1.00
H1154  H     0.46023   0.77219   0.97132   0.00000  Uiso   1.00
H1155  H     0.54002   0.89074   0.97279   0.00000  Uiso   1.00
H1156  H     0.53978   0.77219   0.52868   0.00000  Uiso   1.00
H1157  H     0.37061   0.75744   0.74955   0.00000  Uiso   1.00
H1158  H     0.62938   0.90925   0.74982   0.00000  Uiso   1.00
H1159  H     0.62939   0.75744   0.75045   0.00000  Uiso   1.00
H1160  H     0.37062   0.90925   0.75018   0.00000  Uiso   1.00
N1161  N     0.50000   0.95069   0.75000   0.00000  Uiso   1.00
N1162  N     0.50000   0.71598   0.75000   0.00000  Uiso   1.00
O1163  O     0.43988   0.87291   0.74999   0.00000  Uiso   1.00
O1164  O     0.56012   0.79375   0.75000   0.00000  Uiso   1.00
O1165  O     0.56012   0.87291   0.75000   0.00000  Uiso   1.00
O1166  O     0.43988   0.79375   0.74999   0.00000  Uiso   1.00
O1167  O     0.50000   0.87293   0.68573   0.00000  Uiso   1.00
O1168  O     0.50000   0.79374   0.81427   0.00000  Uiso   1.00
O1169  O     0.50000   0.87293   0.81427   0.00000  Uiso   1.00
O1170  O     0.50000   0.79374   0.68573   0.00000  Uiso   1.00
S1171  S     0.44341   0.90802   0.61669   0.00000  Uiso   1.00
O1172  O     0.46916   0.94724   0.63493   0.00000  Uiso   1.00
O1173  O     0.41398   0.92778   0.58321   0.00000  Uiso   1.00
O1174  O     0.41620   0.88294   0.65729   0.00000  Uiso   1.00
H1175  H     0.39588   0.90700   0.66617   0.00000  Uiso   1.00
S1176  S     0.44288   0.75787   0.88123   0.00000  Uiso   1.00
O1177  O     0.46785   0.71985   0.85983   0.00000  Uiso   1.00
O1178  O     0.41452   0.73598   0.91445   0.00000  Uiso   1.00
O1179  O     0.41440   0.78542   0.84299   0.00000  Uiso   1.00
H1180  H     0.39511   0.76122   0.83197   0.00000  Uiso   1.00
S1181  S     0.55659   0.90802   0.88331   0.00000  Uiso   1.00
O1182  O     0.53084   0.94724   0.86507   0.00000  Uiso   1.00
O1183  O     0.58601   0.92778   0.91679   0.00000  Uiso   1.00
O1184  O     0.58380   0.88294   0.84271   0.00000  Uiso   1.00
H1185  H     0.60412   0.90700   0.83382   0.00000  Uiso   1.00
S1186  S     0.55712   0.75787   0.61877   0.00000  Uiso   1.00
O1187  O     0.53215   0.71985   0.64017   0.00000  Uiso   1.00
O1188  O     0.58548   0.73599   0.58555   0.00000  Uiso   1.00
O1189  O     0.58560   0.78543   0.65701   0.00000  Uiso   1.00
H1190  H     0.60490   0.76123   0.66803   0.00000  Uiso   1.00
C1191  C     0.75401   0.83334   0.74992   0.00000  Uiso   1.00
C1192  C     0.91266   0.83334   0.75008   0.00000  Uiso   1.00
C1193  C     0.83338   0.83327   0.66481   0.00000  Uiso   1.00
C1194  C     0.83329   0.83327   0.83519   0.00000  Uiso   1.00
C1195  C     0.80099   0.69147   0.73270   0.00000  Uiso   1.00
C1196  C     0.86583   0.97524   0.76695   0.00000  Uiso   1.00
C1197  C     0.86568   0.69147   0.76730   0.00000  Uiso   1.00
C1198  C     0.80084   0.97524   0.73305   0.00000  Uiso   1.00
C1199  C     0.68794   0.79075   0.74978   0.00000  Uiso   1.00
C1200  C     0.97872   0.87594   0.74993   0.00000  Uiso   1.00
C1201  C     0.97872   0.79075   0.75022   0.00000  Uiso   1.00
C1202  C     0.68795   0.87594   0.75007   0.00000  Uiso   1.00
C1203  C     0.81063   0.86524   0.54611   0.00000  Uiso   1.00
C1204  C     0.81098   0.79803   0.95306   0.00000  Uiso   1.00
C1205  C     0.85604   0.86524   0.95389   0.00000  Uiso   1.00
C1206  C     0.85568   0.79803   0.54694   0.00000  Uiso   1.00
C1207  C     0.80956   0.86595   0.59196   0.00000  Uiso   1.00
C1208  C     0.80966   0.79872   0.90716   0.00000  Uiso   1.00
C1209  C     0.85711   0.86595   0.90804   0.00000  Uiso   1.00
C1210  C     0.85701   0.79873   0.59284   0.00000  Uiso   1.00
C1211  C     0.83341   0.83281   0.61620   0.00000  Uiso   1.00
C1212  C     0.83325   0.83281   0.88380   0.00000  Uiso   1.00
C1213  C     0.83312   0.83134   0.52392   0.00000  Uiso   1.00
C1214  C     0.83355   0.83134   0.97608   0.00000  Uiso   1.00
C1215  C     0.95727   0.83334   0.75011   0.00000  Uiso   1.00
C1216  C     0.70940   0.83334   0.74989   0.00000  Uiso   1.00
Cu1217 Cu    0.83333   0.88022   0.75000   0.00000  Uiso   1.00
Cu1218 Cu    0.83333   0.78645   0.75000   0.00000  Uiso   1.00
H1219  H     0.77515   0.71002   0.71852   0.00000  Uiso   1.00
H1220  H     0.89192   0.95675   0.78056   0.00000  Uiso   1.00
H1221  H     0.89151   0.71001   0.78148   0.00000  Uiso   1.00
H1222  H     0.77475   0.95675   0.71944   0.00000  Uiso   1.00
H1223  H     0.79332   0.89074   0.52721   0.00000  Uiso   1.00
H1224  H     0.79356   0.77219   0.97132   0.00000  Uiso   1.00
H1225  H     0.87335   0.89074   0.97279   0.00000  Uiso   1.00
H1226  H     0.87311   0.77219   0.52868   0.00000  Uiso   1.00
H1227  H     0.70394   0.75744   0.74955   0.00000  Uiso   1.00
H1228  H     0.96271   0.90925   0.74982   0.00000  Uiso   1.00
H1229  H     0.96272   0.75744   0.75045   0.00000  Uiso   1.00
H1230  H     0.70396   0.90925   0.75018   0.00000  Uiso   1.00
N1231  N     0.83333   0.95069   0.75000   0.00000  Uiso   1.00
N1232  N     0.83333   0.71598   0.75000   0.00000  Uiso   1.00
O1233  O     0.77321   0.87291   0.74999   0.00000  Uiso   1.00
O1234  O     0.89345   0.79375   0.75000   0.00000  Uiso   1.00
O1235  O     0.89345   0.87291   0.75000   0.00000  Uiso   1.00
O1236  O     0.77321   0.79375   0.74999   0.00000  Uiso   1.00
O1237  O     0.83333   0.87293   0.68573   0.00000  Uiso   1.00
O1238  O     0.83334   0.79374   0.81427   0.00000  Uiso   1.00
O1239  O     0.83334   0.87293   0.81427   0.00000  Uiso   1.00
O1240  O     0.83333   0.79374   0.68573   0.00000  Uiso   1.00
S1241  S     0.77675   0.90802   0.61669   0.00000  Uiso   1.00
O1242  O     0.80250   0.94724   0.63493   0.00000  Uiso   1.00
O1243  O     0.74732   0.92778   0.58321   0.00000  Uiso   1.00
O1244  O     0.74954   0.88294   0.65729   0.00000  Uiso   1.00
H1245  H     0.72921   0.90700   0.66617   0.00000  Uiso   1.00
S1246  S     0.77622   0.75787   0.88123   0.00000  Uiso   1.00
O1247  O     0.80119   0.71985   0.85983   0.00000  Uiso   1.00
O1248  O     0.74786   0.73598   0.91445   0.00000  Uiso   1.00
O1249  O     0.74774   0.78542   0.84299   0.00000  Uiso   1.00
H1250  H     0.72845   0.76122   0.83197   0.00000  Uiso   1.00
S1251  S     0.88992   0.90802   0.88331   0.00000  Uiso   1.00
O1252  O     0.86417   0.94724   0.86507   0.00000  Uiso   1.00
O1253  O     0.91935   0.92778   0.91679   0.00000  Uiso   1.00
O1254  O     0.91713   0.88294   0.84271   0.00000  Uiso   1.00
H1255  H     0.93745   0.90700   0.83382   0.00000  Uiso   1.00
S1256  S     0.89045   0.75787   0.61877   0.00000  Uiso   1.00
O1257  O     0.86549   0.71985   0.64017   0.00000  Uiso   1.00
O1258  O     0.91881   0.73599   0.58555   0.00000  Uiso   1.00
O1259  O     0.91893   0.78543   0.65701   0.00000  Uiso   1.00
H1260  H     0.93823   0.76123   0.66803   0.00000  Uiso   1.00
loop_
_geom_bond_atom_site_label_1
_geom_bond_atom_site_label_2
_geom_bond_distance
_geom_bond_site_symmetry_2
_ccdc_geom_bond_type
C1     C26     1.450   .     S
C1     O43     1.290   .     A
C1     O46     1.290   .     A
C2     O44     1.290   .     A
C2     C25     1.450   .     S
C2     O45     1.290   .     A
C3     O47     1.298   .     A
C3     O50     1.294   .     A
C3     C21     1.477   .     S
C4     C22     1.477   .     S
C4     O49     1.298   .     A
C4     O48     1.294   .     A
C5     H29     1.081   .     S
C5     N42     1.366   .     A
C5     C428    1.414   1_545 S
C6     H30     1.080   .     S
C6     N41     1.367   .     A
C6     C217    1.414   .     S
C7     H31     1.081   .     S
C7     N42     1.366   .     A
C7     C426    1.414   1_545 S
C8     H32     1.080   .     S
C8     N41     1.367   .     A
C8     C215    1.414   .     S
C9     H37     1.083   .     S
C9     C26     1.401   .     A
C9     C151    1.383   1_455 S
C10    H38     1.083   .     S
C10    C25     1.401   .     A
C10    C82     1.383   .     S
C11    H39     1.083   .     S
C11    C25     1.401   .     A
C11    C79     1.383   .     S
C12    H40     1.083   .     S
C12    C26     1.401   .     A
C12    C150    1.383   1_455 S
C13    C17     1.394   .     A
C13    C23     1.388   .     A
C13    H33     1.083   .     S
C14    H34     1.083   .     S
C14    C18     1.395   .     A
C14    C24     1.388   .     A
C15    H35     1.083   .     S
C15    C24     1.388   .     A
C15    C19     1.394   .     A
C16    C23     1.388   .     A
C16    H36     1.083   .     S
C16    C20     1.395   .     A
C17    S51     1.773   .     S
C17    C21     1.426   .     A
C18    S56     1.777   .     S
C18    C22     1.428   .     A
C19    S61     1.773   .     S
C19    C22     1.426   .     A
C20    S66     1.777   .     S
C20    C21     1.428   .     A
C23    C654    1.454   1_554 S
C24    C653    1.454   .     S
Cu27   O45     1.965   .     S
Cu27   O47     1.964   .     S
Cu27   O43     1.965   .     S
Cu27   Cu28    2.675   .     S
Cu27   O49     1.964   .     S
Cu27   N41     2.010   .     S
Cu28   O46     1.965   .     S
Cu28   N42     2.010   .     S
Cu28   O50     1.964   .     S
Cu28   O44     1.965   .     S
Cu28   O48     1.964   .     S
S51    O54     1.680   .     S
S51    O52     1.502   .     D
S51    O53     1.504   .     D
O54    H55     0.990   .     S
S56    O59     1.679   .     S
S56    O58     1.504   .     D
S56    O57     1.503   .     D
O59    H60     0.990   .     S
S61    O64     1.680   .     S
S61    O62     1.502   .     D
S61    O63     1.504   .     D
O64    H65     0.990   .     S
S66    O68     1.504   .     D
S66    O67     1.503   .     D
S66    O69     1.679   .     S
O69    H70     0.990   .     S
C71    C96     1.450   .     S
C71    O113    1.290   .     A
C71    O116    1.290   .     A
C72    O114    1.290   .     A
C72    C95     1.450   .     S
C72    O115    1.290   .     A
C73    O117    1.298   .     A
C73    O120    1.294   .     A
C73    C91     1.477   .     S
C74    C92     1.477   .     S
C74    O119    1.298   .     A
C74    O118    1.294   .     A
C75    H99     1.081   .     S
C75    N112    1.366   .     A
C75    C498    1.414   1_545 S
C76    H100    1.080   .     S
C76    N111    1.367   .     A
C76    C287    1.414   .     S
C77    H101    1.081   .     S
C77    N112    1.366   .     A
C77    C496    1.414   1_545 S
C78    H102    1.080   .     S
C78    N111    1.367   .     A
C78    C285    1.414   .     S
C79    H107    1.083   .     S
C79    C96     1.401   .     A
C80    H108    1.083   .     S
C80    C95     1.401   .     A
C80    C152    1.383   .     S
C81    H109    1.083   .     S
C81    C95     1.401   .     A
C81    C149    1.383   .     S
C82    H110    1.083   .     S
C82    C96     1.401   .     A
C83    C87     1.394   .     A
C83    C93     1.388   .     A
C83    H103    1.083   .     S
C84    H104    1.083   .     S
C84    C88     1.395   .     A
C84    C94     1.388   .     A
C85    H105    1.083   .     S
C85    C94     1.388   .     A
C85    C89     1.394   .     A
C86    C93     1.388   .     A
C86    H106    1.083   .     S
C86    C90     1.395   .     A
C87    S121    1.773   .     S
C87    C91     1.426   .     A
C88    S126    1.777   .     S
C88    C92     1.428   .     A
C89    S131    1.773   .     S
C89    C92     1.426   .     A
C90    S136    1.777   .     S
C90    C91     1.428   .     A
C93    C724    1.454   1_554 S
C94    C723    1.454   .     S
Cu97   O115    1.965   .     S
Cu97   O117    1.964   .     S
Cu97   O113    1.965   .     S
Cu97   Cu98    2.675   .     S
Cu97   O119    1.964   .     S
Cu97   N111    2.010   .     S
Cu98   O116    1.965   .     S
Cu98   N112    2.010   .     S
Cu98   O120    1.964   .     S
Cu98   O114    1.965   .     S
Cu98   O118    1.964   .     S
S121   O124    1.680   .     S
S121   O122    1.502   .     D
S121   O123    1.504   .     D
O124   H125    0.990   .     S
S126   O129    1.679   .     S
S126   O128    1.504   .     D
S126   O127    1.503   .     D
O129   H130    0.990   .     S
S131   O134    1.680   .     S
S131   O132    1.502   .     D
S131   O133    1.504   .     D
O134   H135    0.990   .     S
S136   O138    1.504   .     D
S136   O137    1.503   .     D
S136   O139    1.679   .     S
O139   H140    0.990   .     S
C141   C166    1.450   .     S
C141   O183    1.290   .     A
C141   O186    1.290   .     A
C142   O184    1.290   .     A
C142   C165    1.450   .     S
C142   O185    1.290   .     A
C143   O187    1.298   .     A
C143   O190    1.294   .     A
C143   C161    1.477   .     S
C144   C162    1.477   .     S
C144   O189    1.298   .     A
C144   O188    1.294   .     A
C145   H169    1.081   .     S
C145   N182    1.366   .     A
C145   C568    1.414   1_545 S
C146   H170    1.080   .     S
C146   N181    1.367   .     A
C146   C357    1.414   .     S
C147   H171    1.081   .     S
C147   N182    1.366   .     A
C147   C566    1.414   1_545 S
C148   H172    1.080   .     S
C148   N181    1.367   .     A
C148   C355    1.414   .     S
C149   H177    1.083   .     S
C149   C166    1.401   .     A
C150   H178    1.083   .     S
C150   C165    1.401   .     A
C150   C12     1.383   1_655 S
C151   H179    1.083   .     S
C151   C165    1.401   .     A
C151   C9      1.383   1_655 S
C152   H180    1.083   .     S
C152   C166    1.401   .     A
C153   C157    1.394   .     A
C153   C163    1.388   .     A
C153   H173    1.083   .     S
C154   H174    1.083   .     S
C154   C158    1.395   .     A
C154   C164    1.388   .     A
C155   H175    1.083   .     S
C155   C164    1.388   .     A
C155   C159    1.394   .     A
C156   C163    1.388   .     A
C156   H176    1.083   .     S
C156   C160    1.395   .     A
C157   S191    1.773   .     S
C157   C161    1.426   .     A
C158   S196    1.777   .     S
C158   C162    1.428   .     A
C159   S201    1.773   .     S
C159   C162    1.426   .     A
C160   S206    1.777   .     S
C160   C161    1.428   .     A
C163   C794    1.454   1_554 S
C164   C793    1.454   .     S
Cu167  O185    1.965   .     S
Cu167  O187    1.964   .     S
Cu167  O183    1.965   .     S
Cu167  Cu168   2.675   .     S
Cu167  O189    1.964   .     S
Cu167  N181    2.010   .     S
Cu168  O186    1.965   .     S
Cu168  N182    2.010   .     S
Cu168  O190    1.964   .     S
Cu168  O184    1.965   .     S
Cu168  O188    1.964   .     S
S191   O194    1.680   .     S
S191   O192    1.502   .     D
S191   O193    1.504   .     D
O194   H195    0.990   .     S
S196   O199    1.679   .     S
S196   O198    1.504   .     D
S196   O197    1.503   .     D
O199   H200    0.990   .     S
S201   O204    1.680   .     S
S201   O202    1.502   .     D
S201   O203    1.504   .     D
O204   H205    0.990   .     S
S206   O208    1.504   .     D
S206   O207    1.503   .     D
S206   O209    1.679   .     S
O209   H210    0.990   .     S
C211   C236    1.450   .     S
C211   O253    1.290   .     A
C211   O256    1.290   .     A
C212   O254    1.290   .     A
C212   C235    1.450   .     S
C212   O255    1.290   .     A
C213   O257    1.298   .     A
C213   O260    1.294   .     A
C213   C231    1.477   .     S
C214   C232    1.477   .     S
C214   O259    1.298   .     A
C214   O258    1.294   .     A
C215   H239    1.081   .     S
C215   N252    1.366   .     A
C216   H240    1.080   .     S
C216   N251    1.367   .     A
C216   C427    1.414   .     S
C217   H241    1.081   .     S
C217   N252    1.366   .     A
C218   H242    1.080   .     S
C218   N251    1.367   .     A
C218   C425    1.414   .     S
C219   H247    1.083   .     S
C219   C236    1.401   .     A
C219   C361    1.383   1_455 S
C220   H248    1.083   .     S
C220   C235    1.401   .     A
C220   C292    1.383   .     S
C221   H249    1.083   .     S
C221   C235    1.401   .     A
C221   C289    1.383   .     S
C222   H250    1.083   .     S
C222   C236    1.401   .     A
C222   C360    1.383   1_455 S
C223   C227    1.394   .     A
C223   C233    1.388   .     A
C223   H243    1.083   .     S
C224   H244    1.083   .     S
C224   C228    1.395   .     A
C224   C234    1.388   .     A
C225   H245    1.083   .     S
C225   C234    1.388   .     A
C225   C229    1.394   .     A
C226   C233    1.388   .     A
C226   H246    1.083   .     S
C226   C230    1.395   .     A
C227   S261    1.773   .     S
C227   C231    1.426   .     A
C228   S266    1.777   .     S
C228   C232    1.428   .     A
C229   S271    1.773   .     S
C229   C232    1.426   .     A
C230   S276    1.777   .     S
C230   C231    1.428   .     A
C233   C864    1.454   1_554 S
C234   C863    1.454   .     S
Cu237  O255    1.965   .     S
Cu237  O257    1.964   .     S
Cu237  O253    1.965   .     S
Cu237  Cu238   2.675   .     S
Cu237  O259    1.964   .     S
Cu237  N251    2.010   .     S
Cu238  O256    1.965   .     S
Cu238  N252    2.010   .     S
Cu238  O260    1.964   .     S
Cu238  O254    1.965   .     S
Cu238  O258    1.964   .     S
S261   O264    1.680   .     S
S261   O262    1.502   .     D
S261   O263    1.504   .     D
O264   H265    0.990   .     S
S266   O269    1.679   .     S
S266   O268    1.504   .     D
S266   O267    1.503   .     D
O269   H270    0.990   .     S
S271   O274    1.680   .     S
S271   O272    1.502   .     D
S271   O273    1.504   .     D
O274   H275    0.990   .     S
S276   O278    1.504   .     D
S276   O277    1.503   .     D
S276   O279    1.679   .     S
O279   H280    0.990   .     S
C281   C306    1.450   .     S
C281   O323    1.290   .     A
C281   O326    1.290   .     A
C282   O324    1.290   .     A
C282   C305    1.450   .     S
C282   O325    1.290   .     A
C283   O327    1.298   .     A
C283   O330    1.294   .     A
C283   C301    1.477   .     S
C284   C302    1.477   .     S
C284   O329    1.298   .     A
C284   O328    1.294   .     A
C285   H309    1.081   .     S
C285   N322    1.366   .     A
C286   H310    1.080   .     S
C286   N321    1.367   .     A
C286   C497    1.414   .     S
C287   H311    1.081   .     S
C287   N322    1.366   .     A
C288   H312    1.080   .     S
C288   N321    1.367   .     A
C288   C495    1.414   .     S
C289   H317    1.083   .     S
C289   C306    1.401   .     A
C290   H318    1.083   .     S
C290   C305    1.401   .     A
C290   C362    1.383   .     S
C291   H319    1.083   .     S
C291   C305    1.401   .     A
C291   C359    1.383   .     S
C292   H320    1.083   .     S
C292   C306    1.401   .     A
C293   C297    1.394   .     A
C293   C303    1.388   .     A
C293   H313    1.083   .     S
C294   H314    1.083   .     S
C294   C298    1.395   .     A
C294   C304    1.388   .     A
C295   H315    1.083   .     S
C295   C304    1.388   .     A
C295   C299    1.394   .     A
C296   C303    1.388   .     A
C296   H316    1.083   .     S
C296   C300    1.395   .     A
C297   S331    1.773   .     S
C297   C301    1.426   .     A
C298   S336    1.777   .     S
C298   C302    1.428   .     A
C299   S341    1.773   .     S
C299   C302    1.426   .     A
C300   S346    1.777   .     S
C300   C301    1.428   .     A
C303   C934    1.454   1_554 S
C304   C933    1.454   .     S
Cu307  O325    1.965   .     S
Cu307  O327    1.964   .     S
Cu307  O323    1.965   .     S
Cu307  Cu308   2.675   .     S
Cu307  O329    1.964   .     S
Cu307  N321    2.010   .     S
Cu308  O326    1.965   .     S
Cu308  N322    2.010   .     S
Cu308  O330    1.964   .     S
Cu308  O324    1.965   .     S
Cu308  O328    1.964   .     S
S331   O334    1.680   .     S
S331   O332    1.502   .     D
S331   O333    1.504   .     D
O334   H335    0.990   .     S
S336   O339    1.679   .     S
S336   O338    1.504   .     D
S336   O337    1.503   .     D
O339   H340    0.990   .     S
S341   O344    1.680   .     S
S341   O342    1.502   .     D
S341   O343    1.504   .     D
O344   H345    0.990   .     S
S346   O348    1.504   .     D
S346   O347    1.503   .     D
S346   O349    1.679   .     S
O349   H350    0.990   .     S
C351   C376    1.450   .     S
C351   O393    1.290   .     A
C351   O396    1.290   .     A
C352   O394    1.290   .     A
C352   C375    1.450   .     S
C352   O395    1.290   .     A
C353   O397    1.298   .     A
C353   O400    1.294   .     A
C353   C371    1.477   .     S
C354   C372    1.477   .     S
C354   O399    1.298   .     A
C354   O398    1.294   .     A
C355   H379    1.081   .     S
C355   N392    1.366   .     A
C356   H380    1.080   .     S
C356   N391    1.367   .     A
C356   C567    1.414   .     S
C357   H381    1.081   .     S
C357   N392    1.366   .     A
C358   H382    1.080   .     S
C358   N391    1.367   .     A
C358   C565    1.414   .     S
C359   H387    1.083   .     S
C359   C376    1.401   .     A
C360   H388    1.083   .     S
C360   C375    1.401   .     A
C360   C222    1.383   1_655 S
C361   H389    1.083   .     S
C361   C375    1.401   .     A
C361   C219    1.383   1_655 S
C362   H390    1.083   .     S
C362   C376    1.401   .     A
C363   C367    1.394   .     A
C363   C373    1.388   .     A
C363   H383    1.083   .     S
C364   H384    1.083   .     S
C364   C368    1.395   .     A
C364   C374    1.388   .     A
C365   H385    1.083   .     S
C365   C374    1.388   .     A
C365   C369    1.394   .     A
C366   C373    1.388   .     A
C366   H386    1.083   .     S
C366   C370    1.395   .     A
C367   S401    1.773   .     S
C367   C371    1.426   .     A
C368   S406    1.777   .     S
C368   C372    1.428   .     A
C369   S411    1.773   .     S
C369   C372    1.426   .     A
C370   S416    1.777   .     S
C370   C371    1.428   .     A
C373   C1004   1.454   1_554 S
C374   C1003   1.454   .     S
Cu377  O395    1.965   .     S
Cu377  O397    1.964   .     S
Cu377  O393    1.965   .     S
Cu377  Cu378   2.675   .     S
Cu377  O399    1.964   .     S
Cu377  N391    2.010   .     S
Cu378  O396    1.965   .     S
Cu378  N392    2.010   .     S
Cu378  O400    1.964   .     S
Cu378  O394    1.965   .     S
Cu378  O398    1.964   .     S
S401   O404    1.680   .     S
S401   O402    1.502   .     D
S401   O403    1.504   .     D
O404   H405    0.990   .     S
S406   O409    1.679   .     S
S406   O408    1.504   .     D
S406   O407    1.503   .     D
O409   H410    0.990   .     S
S411   O414    1.680   .     S
S411   O412    1.502   .     D
S411   O413    1.504   .     D
O414   H415    0.990   .     S
S416   O418    1.504   .     D
S416   O417    1.503   .     D
S416   O419    1.679   .     S
O419   H420    0.990   .     S
C421   C446    1.450   .     S
C421   O463    1.290   .     A
C421   O466    1.290   .     A
C422   O464    1.290   .     A
C422   C445    1.450   .     S
C422   O465    1.290   .     A
C423   O467    1.298   .     A
C423   O470    1.294   .     A
C423   C441    1.477   .     S
C424   C442    1.477   .     S
C424   O469    1.298   .     A
C424   O468    1.294   .     A
C425   H449    1.081   .     S
C425   N462    1.366   .     A
C426   H450    1.080   .     S
C426   N461    1.367   .     A
C426   C7      1.414   1_565 S
C427   H451    1.081   .     S
C427   N462    1.366   .     A
C428   H452    1.080   .     S
C428   N461    1.367   .     A
C428   C5      1.414   1_565 S
C429   H457    1.083   .     S
C429   C446    1.401   .     A
C429   C571    1.383   1_455 S
C430   H458    1.083   .     S
C430   C445    1.401   .     A
C430   C502    1.383   .     S
C431   H459    1.083   .     S
C431   C445    1.401   .     A
C431   C499    1.383   .     S
C432   H460    1.083   .     S
C432   C446    1.401   .     A
C432   C570    1.383   1_455 S
C433   C437    1.394   .     A
C433   C443    1.388   .     A
C433   H453    1.083   .     S
C434   H454    1.083   .     S
C434   C438    1.395   .     A
C434   C444    1.388   .     A
C435   H455    1.083   .     S
C435   C444    1.388   .     A
C435   C439    1.394   .     A
C436   C443    1.388   .     A
C436   H456    1.083   .     S
C436   C440    1.395   .     A
C437   S471    1.773   .     S
C437   C441    1.426   .     A
C438   S476    1.777   .     S
C438   C442    1.428   .     A
C439   S481    1.773   .     S
C439   C442    1.426   .     A
C440   S486    1.777   .     S
C440   C441    1.428   .     A
C443   C1074   1.454   1_554 S
C444   C1073   1.454   .     S
Cu447  O465    1.965   .     S
Cu447  O467    1.964   .     S
Cu447  O463    1.965   .     S
Cu447  Cu448   2.675   .     S
Cu447  O469    1.964   .     S
Cu447  N461    2.010   .     S
Cu448  O466    1.965   .     S
Cu448  N462    2.010   .     S
Cu448  O470    1.964   .     S
Cu448  O464    1.965   .     S
Cu448  O468    1.964   .     S
S471   O474    1.680   .     S
S471   O472    1.502   .     D
S471   O473    1.504   .     D
O474   H475    0.990   .     S
S476   O479    1.679   .     S
S476   O478    1.504   .     D
S476   O477    1.503   .     D
O479   H480    0.990   .     S
S481   O484    1.680   .     S
S481   O482    1.502   .     D
S481   O483    1.504   .     D
O484   H485    0.990   .     S
S486   O488    1.504   .     D
S486   O487    1.503   .     D
S486   O489    1.679   .     S
O489   H490    0.990   .     S
C491   C516    1.450   .     S
C491   O533    1.290   .     A
C491   O536    1.290   .     A
C492   O534    1.290   .     A
C492   C515    1.450   .     S
C492   O535    1.290   .     A
C493   O537    1.298   .     A
C493   O540    1.294   .     A
C493   C511    1.477   .     S
C494   C512    1.477   .     S
C494   O539    1.298   .     A
C494   O538    1.294   .     A
C495   H519    1.081   .     S
C495   N532    1.366   .     A
C496   H520    1.080   .     S
C496   N531    1.367   .     A
C496   C77     1.414   1_565 S
C497   H521    1.081   .     S
C497   N532    1.366   .     A
C498   H522    1.080   .     S
C498   N531    1.367   .     A
C498   C75     1.414   1_565 S
C499   H527    1.083   .     S
C499   C516    1.401   .     A
C500   H528    1.083   .     S
C500   C515    1.401   .     A
C500   C572    1.383   .     S
C501   H529    1.083   .     S
C501   C515    1.401   .     A
C501   C569    1.383   .     S
C502   H530    1.083   .     S
C502   C516    1.401   .     A
C503   C507    1.394   .     A
C503   C513    1.388   .     A
C503   H523    1.083   .     S
C504   H524    1.083   .     S
C504   C508    1.395   .     A
C504   C514    1.388   .     A
C505   H525    1.083   .     S
C505   C514    1.388   .     A
C505   C509    1.394   .     A
C506   C513    1.388   .     A
C506   H526    1.083   .     S
C506   C510    1.395   .     A
C507   S541    1.773   .     S
C507   C511    1.426   .     A
C508   S546    1.777   .     S
C508   C512    1.428   .     A
C509   S551    1.773   .     S
C509   C512    1.426   .     A
C510   S556    1.777   .     S
C510   C511    1.428   .     A
C513   C1144   1.454   1_554 S
C514   C1143   1.454   .     S
Cu517  O535    1.965   .     S
Cu517  O537    1.964   .     S
Cu517  O533    1.965   .     S
Cu517  Cu518   2.675   .     S
Cu517  O539    1.964   .     S
Cu517  N531    2.010   .     S
Cu518  O536    1.965   .     S
Cu518  N532    2.010   .     S
Cu518  O540    1.964   .     S
Cu518  O534    1.965   .     S
Cu518  O538    1.964   .     S
S541   O544    1.680   .     S
S541   O542    1.502   .     D
S541   O543    1.504   .     D
O544   H545    0.990   .     S
S546   O549    1.679   .     S
S546   O548    1.504   .     D
S546   O547    1.503   .     D
O549   H550    0.990   .     S
S551   O554    1.680   .     S
S551   O552    1.502   .     D
S551   O553    1.504   .     D
O554   H555    0.990   .     S
S556   O558    1.504   .     D
S556   O557    1.503   .     D
S556   O559    1.679   .     S
O559   H560    0.990   .     S
C561   C586    1.450   .     S
C561   O603    1.290   .     A
C561   O606    1.290   .     A
C562   O604    1.290   .     A
C562   C585    1.450   .     S
C562   O605    1.290   .     A
C563   O607    1.298   .     A
C563   O610    1.294   .     A
C563   C581    1.477   .     S
C564   C582    1.477   .     S
C564   O609    1.298   .     A
C564   O608    1.294   .     A
C565   H589    1.081   .     S
C565   N602    1.366   .     A
C566   H590    1.080   .     S
C566   N601    1.367   .     A
C566   C147    1.414   1_565 S
C567   H591    1.081   .     S
C567   N602    1.366   .     A
C568   H592    1.080   .     S
C568   N601    1.367   .     A
C568   C145    1.414   1_565 S
C569   H597    1.083   .     S
C569   C586    1.401   .     A
C570   H598    1.083   .     S
C570   C585    1.401   .     A
C570   C432    1.383   1_655 S
C571   H599    1.083   .     S
C571   C585    1.401   .     A
C571   C429    1.383   1_655 S
C572   H600    1.083   .     S
C572   C586    1.401   .     A
C573   C577    1.394   .     A
C573   C583    1.388   .     A
C573   H593    1.083   .     S
C574   H594    1.083   .     S
C574   C578    1.395   .     A
C574   C584    1.388   .     A
C575   H595    1.083   .     S
C575   C584    1.388   .     A
C575   C579    1.394   .     A
C576   C583    1.388   .     A
C576   H596    1.083   .     S
C576   C580    1.395   .     A
C577   S611    1.773   .     S
C577   C581    1.426   .     A
C578   S616    1.777   .     S
C578   C582    1.428   .     A
C579   S621    1.773   .     S
C579   C582    1.426   .     A
C580   S626    1.777   .     S
C580   C581    1.428   .     A
C583   C1214   1.454   1_554 S
C584   C1213   1.454   .     S
Cu587  O605    1.965   .     S
Cu587  O607    1.964   .     S
Cu587  O603    1.965   .     S
Cu587  Cu588   2.675   .     S
Cu587  O609    1.964   .     S
Cu587  N601    2.010   .     S
Cu588  O606    1.965   .     S
Cu588  N602    2.010   .     S
Cu588  O610    1.964   .     S
Cu588  O604    1.965   .     S
Cu588  O608    1.964   .     S
S611   O614    1.680   .     S
S611   O612    1.502   .     D
S611   O613    1.504   .     D
O614   H615    0.990   .     S
S616   O619    1.679   .     S
S616   O618    1.504   .     D
S616   O617    1.503   .     D
O619   H620    0.990   .     S
S621   O624    1.680   .     S
S621   O622    1.502   .     D
S621   O623    1.504   .     D
O624   H625    0.990   .     S
S626   O628    1.504   .     D
S626   O627    1.503   .     D
S626   O629    1.679   .     S
O629   H630    0.990   .     S
C631   C656    1.450   .     S
C631   O673    1.290   .     A
C631   O676    1.290   .     A
C632   O674    1.290   .     A
C632   C655    1.450   .     S
C632   O675    1.290   .     A
C633   O677    1.298   .     A
C633   O680    1.294   .     A
C633   C651    1.477   .     S
C634   C652    1.477   .     S
C634   O679    1.298   .     A
C634   O678    1.294   .     A
C635   H659    1.081   .     S
C635   N672    1.366   .     A
C635   C1058   1.414   1_545 S
C636   H660    1.080   .     S
C636   N671    1.367   .     A
C636   C847    1.414   .     S
C637   H661    1.081   .     S
C637   N672    1.366   .     A
C637   C1056   1.414   1_545 S
C638   H662    1.080   .     S
C638   N671    1.367   .     A
C638   C845    1.414   .     S
C639   H667    1.083   .     S
C639   C656    1.401   .     A
C639   C781    1.383   1_455 S
C640   H668    1.083   .     S
C640   C655    1.401   .     A
C640   C712    1.383   .     S
C641   H669    1.083   .     S
C641   C655    1.401   .     A
C641   C709    1.383   .     S
C642   H670    1.083   .     S
C642   C656    1.401   .     A
C642   C780    1.383   1_455 S
C643   C647    1.394   .     A
C643   C653    1.388   .     A
C643   H663    1.083   .     S
C644   H664    1.083   .     S
C644   C648    1.395   .     A
C644   C654    1.388   .     A
C645   H665    1.083   .     S
C645   C654    1.388   .     A
C645   C649    1.394   .     A
C646   C653    1.388   .     A
C646   H666    1.083   .     S
C646   C650    1.395   .     A
C647   S681    1.773   .     S
C647   C651    1.426   .     A
C648   S686    1.777   .     S
C648   C652    1.428   .     A
C649   S691    1.773   .     S
C649   C652    1.426   .     A
C650   S696    1.777   .     S
C650   C651    1.428   .     A
C654   C23     1.454   1_556 S
Cu657  O675    1.965   .     S
Cu657  O677    1.964   .     S
Cu657  O673    1.965   .     S
Cu657  Cu658   2.675   .     S
Cu657  O679    1.964   .     S
Cu657  N671    2.010   .     S
Cu658  O676    1.965   .     S
Cu658  N672    2.010   .     S
Cu658  O680    1.964   .     S
Cu658  O674    1.965   .     S
Cu658  O678    1.964   .     S
S681   O684    1.680   .     S
S681   O682    1.502   .     D
S681   O683    1.504   .     D
O684   H685    0.990   .     S
S686   O689    1.679   .     S
S686   O688    1.504   .     D
S686   O687    1.503   .     D
O689   H690    0.990   .     S
S691   O694    1.680   .     S
S691   O692    1.502   .     D
S691   O693    1.504   .     D
O694   H695    0.990   .     S
S696   O698    1.504   .     D
S696   O697    1.503   .     D
S696   O699    1.679   .     S
O699   H700    0.990   .     S
C701   C726    1.450   .     S
C701   O743    1.290   .     A
C701   O746    1.290   .     A
C702   O744    1.290   .     A
C702   C725    1.450   .     S
C702   O745    1.290   .     A
C703   O747    1.298   .     A
C703   O750    1.294   .     A
C703   C721    1.477   .     S
C704   C722    1.477   .     S
C704   O749    1.298   .     A
C704   O748    1.294   .     A
C705   H729    1.081   .     S
C705   N742    1.366   .     A
C705   C1128   1.414   1_545 S
C706   H730    1.080   .     S
C706   N741    1.367   .     A
C706   C917    1.414   .     S
C707   H731    1.081   .     S
C707   N742    1.366   .     A
C707   C1126   1.414   1_545 S
C708   H732    1.080   .     S
C708   N741    1.367   .     A
C708   C915    1.414   .     S
C709   H737    1.083   .     S
C709   C726    1.401   .     A
C710   H738    1.083   .     S
C710   C725    1.401   .     A
C710   C782    1.383   .     S
C711   H739    1.083   .     S
C711   C725    1.401   .     A
C711   C779    1.383   .     S
C712   H740    1.083   .     S
C712   C726    1.401   .     A
C713   C717    1.394   .     A
C713   C723    1.388   .     A
C713   H733    1.083   .     S
C714   H734    1.083   .     S
C714   C718    1.395   .     A
C714   C724    1.388   .     A
C715   H735    1.083   .     S
C715   C724    1.388   .     A
C715   C719    1.394   .     A
C716   C723    1.388   .     A
C716   H736    1.083   .     S
C716   C720    1.395   .     A
C717   S751    1.773   .     S
C717   C721    1.426   .     A
C718   S756    1.777   .     S
C718   C722    1.428   .     A
C719   S761    1.773   .     S
C719   C722    1.426   .     A
C720   S766    1.777   .     S
C720   C721    1.428   .     A
C724   C93     1.454   1_556 S
Cu727  O745    1.965   .     S
Cu727  O747    1.964   .     S
Cu727  O743    1.965   .     S
Cu727  Cu728   2.675   .     S
Cu727  O749    1.964   .     S
Cu727  N741    2.010   .     S
Cu728  O746    1.965   .     S
Cu728  N742    2.010   .     S
Cu728  O750    1.964   .     S
Cu728  O744    1.965   .     S
Cu728  O748    1.964   .     S
S751   O754    1.680   .     S
S751   O752    1.502   .     D
S751   O753    1.504   .     D
O754   H755    0.990   .     S
S756   O759    1.679   .     S
S756   O758    1.504   .     D
S756   O757    1.503   .     D
O759   H760    0.990   .     S
S761   O764    1.680   .     S
S761   O762    1.502   .     D
S761   O763    1.504   .     D
O764   H765    0.990   .     S
S766   O768    1.504   .     D
S766   O767    1.503   .     D
S766   O769    1.679   .     S
O769   H770    0.990   .     S
C771   C796    1.450   .     S
C771   O813    1.290   .     A
C771   O816    1.290   .     A
C772   O814    1.290   .     A
C772   C795    1.450   .     S
C772   O815    1.290   .     A
C773   O817    1.298   .     A
C773   O820    1.294   .     A
C773   C791    1.477   .     S
C774   C792    1.477   .     S
C774   O819    1.298   .     A
C774   O818    1.294   .     A
C775   H799    1.081   .     S
C775   N812    1.366   .     A
C775   C1198   1.414   1_545 S
C776   H800    1.080   .     S
C776   N811    1.367   .     A
C776   C987    1.414   .     S
C777   H801    1.081   .     S
C777   N812    1.366   .     A
C777   C1196   1.414   1_545 S
C778   H802    1.080   .     S
C778   N811    1.367   .     A
C778   C985    1.414   .     S
C779   H807    1.083   .     S
C779   C796    1.401   .     A
C780   H808    1.083   .     S
C780   C795    1.401   .     A
C780   C642    1.383   1_655 S
C781   H809    1.083   .     S
C781   C795    1.401   .     A
C781   C639    1.383   1_655 S
C782   H810    1.083   .     S
C782   C796    1.401   .     A
C783   C787    1.394   .     A
C783   C793    1.388   .     A
C783   H803    1.083   .     S
C784   H804    1.083   .     S
C784   C788    1.395   .     A
C784   C794    1.388   .     A
C785   H805    1.083   .     S
C785   C794    1.388   .     A
C785   C789    1.394   .     A
C786   C793    1.388   .     A
C786   H806    1.083   .     S
C786   C790    1.395   .     A
C787   S821    1.773   .     S
C787   C791    1.426   .     A
C788   S826    1.777   .     S
C788   C792    1.428   .     A
C789   S831    1.773   .     S
C789   C792    1.426   .     A
C790   S836    1.777   .     S
C790   C791    1.428   .     A
C794   C163    1.454   1_556 S
Cu797  O815    1.965   .     S
Cu797  O817    1.964   .     S
Cu797  O813    1.965   .     S
Cu797  Cu798   2.675   .     S
Cu797  O819    1.964   .     S
Cu797  N811    2.010   .     S
Cu798  O816    1.965   .     S
Cu798  N812    2.010   .     S
Cu798  O820    1.964   .     S
Cu798  O814    1.965   .     S
Cu798  O818    1.964   .     S
S821   O824    1.680   .     S
S821   O822    1.502   .     D
S821   O823    1.504   .     D
O824   H825    0.990   .     S
S826   O829    1.679   .     S
S826   O828    1.504   .     D
S826   O827    1.503   .     D
O829   H830    0.990   .     S
S831   O834    1.680   .     S
S831   O832    1.502   .     D
S831   O833    1.504   .     D
O834   H835    0.990   .     S
S836   O838    1.504   .     D
S836   O837    1.503   .     D
S836   O839    1.679   .     S
O839   H840    0.990   .     S
C841   C866    1.450   .     S
C841   O883    1.290   .     A
C841   O886    1.290   .     A
C842   O884    1.290   .     A
C842   C865    1.450   .     S
C842   O885    1.290   .     A
C843   O887    1.298   .     A
C843   O890    1.294   .     A
C843   C861    1.477   .     S
C844   C862    1.477   .     S
C844   O889    1.298   .     A
C844   O888    1.294   .     A
C845   H869    1.081   .     S
C845   N882    1.366   .     A
C846   H870    1.080   .     S
C846   N881    1.367   .     A
C846   C1057   1.414   .     S
C847   H871    1.081   .     S
C847   N882    1.366   .     A
C848   H872    1.080   .     S
C848   N881    1.367   .     A
C848   C1055   1.414   .     S
C849   H877    1.083   .     S
C849   C866    1.401   .     A
C849   C991    1.383   1_455 S
C850   H878    1.083   .     S
C850   C865    1.401   .     A
C850   C922    1.383   .     S
C851   H879    1.083   .     S
C851   C865    1.401   .     A
C851   C919    1.383   .     S
C852   H880    1.083   .     S
C852   C866    1.401   .     A
C852   C990    1.383   1_455 S
C853   C857    1.394   .     A
C853   C863    1.388   .     A
C853   H873    1.083   .     S
C854   H874    1.083   .     S
C854   C858    1.395   .     A
C854   C864    1.388   .     A
C855   H875    1.083   .     S
C855   C864    1.388   .     A
C855   C859    1.394   .     A
C856   C863    1.388   .     A
C856   H876    1.083   .     S
C856   C860    1.395   .     A
C857   S891    1.773   .     S
C857   C861    1.426   .     A
C858   S896    1.777   .     S
C858   C862    1.428   .     A
C859   S901    1.773   .     S
C859   C862    1.426   .     A
C860   S906    1.777   .     S
C860   C861    1.428   .     A
C864   C233    1.454   1_556 S
Cu867  O885    1.965   .     S
Cu867  O887    1.964   .     S
Cu867  O883    1.965   .     S
Cu867  Cu868   2.675   .     S
Cu867  O889    1.964   .     S
Cu867  N881    2.010   .     S
Cu868  O886    1.965   .     S
Cu868  N882    2.010   .     S
Cu868  O890    1.964   .     S
Cu868  O884    1.965   .     S
Cu868  O888    1.964   .     S
S891   O894    1.680   .     S
S891   O892    1.502   .     D
S891   O893    1.504   .     D
O894   H895    0.990   .     S
S896   O899    1.679   .     S
S896   O898    1.504   .     D
S896   O897    1.503   .     D
O899   H900    0.990   .     S
S901   O904    1.680   .     S
S901   O902    1.502   .     D
S901   O903    1.504   .     D
O904   H905    0.990   .     S
S906   O908    1.504   .     D
S906   O907    1.503   .     D
S906   O909    1.679   .     S
O909   H910    0.990   .     S
C911   C936    1.450   .     S
C911   O953    1.290   .     A
C911   O956    1.290   .     A
C912   O954    1.290   .     A
C912   C935    1.450   .     S
C912   O955    1.290   .     A
C913   O957    1.298   .     A
C913   O960    1.294   .     A
C913   C931    1.477   .     S
C914   C932    1.477   .     S
C914   O959    1.298   .     A
C914   O958    1.294   .     A
C915   H939    1.081   .     S
C915   N952    1.366   .     A
C916   H940    1.080   .     S
C916   N951    1.367   .     A
C916   C1127   1.414   .     S
C917   H941    1.081   .     S
C917   N952    1.366   .     A
C918   H942    1.080   .     S
C918   N951    1.367   .     A
C918   C1125   1.414   .     S
C919   H947    1.083   .     S
C919   C936    1.401   .     A
C920   H948    1.083   .     S
C920   C935    1.401   .     A
C920   C992    1.383   .     S
C921   H949    1.083   .     S
C921   C935    1.401   .     A
C921   C989    1.383   .     S
C922   H950    1.083   .     S
C922   C936    1.401   .     A
C923   C927    1.394   .     A
C923   C933    1.388   .     A
C923   H943    1.083   .     S
C924   H944    1.083   .     S
C924   C928    1.395   .     A
C924   C934    1.388   .     A
C925   H945    1.083   .     S
C925   C934    1.388   .     A
C925   C929    1.394   .     A
C926   C933    1.388   .     A
C926   H946    1.083   .     S
C926   C930    1.395   .     A
C927   S961    1.773   .     S
C927   C931    1.426   .     A
C928   S966    1.777   .     S
C928   C932    1.428   .     A
C929   S971    1.773   .     S
C929   C932    1.426   .     A
C930   S976    1.777   .     S
C930   C931    1.428   .     A
C934   C303    1.454   1_556 S
Cu937  O955    1.965   .     S
Cu937  O957    1.964   .     S
Cu937  O953    1.965   .     S
Cu937  Cu938   2.675   .     S
Cu937  O959    1.964   .     S
Cu937  N951    2.010   .     S
Cu938  O956    1.965   .     S
Cu938  N952    2.010   .     S
Cu938  O960    1.964   .     S
Cu938  O954    1.965   .     S
Cu938  O958    1.964   .     S
S961   O964    1.680   .     S
S961   O962    1.502   .     D
S961   O963    1.504   .     D
O964   H965    0.990   .     S
S966   O969    1.679   .     S
S966   O968    1.504   .     D
S966   O967    1.503   .     D
O969   H970    0.990   .     S
S971   O974    1.680   .     S
S971   O972    1.502   .     D
S971   O973    1.504   .     D
O974   H975    0.990   .     S
S976   O978    1.504   .     D
S976   O977    1.503   .     D
S976   O979    1.679   .     S
O979   H980    0.990   .     S
C981   C1006   1.450   .     S
C981   O1023   1.290   .     A
C981   O1026   1.290   .     A
C982   O1024   1.290   .     A
C982   C1005   1.450   .     S
C982   O1025   1.290   .     A
C983   O1027   1.298   .     A
C983   O1030   1.294   .     A
C983   C1001   1.477   .     S
C984   C1002   1.477   .     S
C984   O1029   1.298   .     A
C984   O1028   1.294   .     A
C985   H1009   1.081   .     S
C985   N1022   1.366   .     A
C986   H1010   1.080   .     S
C986   N1021   1.367   .     A
C986   C1197   1.414   .     S
C987   H1011   1.081   .     S
C987   N1022   1.366   .     A
C988   H1012   1.080   .     S
C988   N1021   1.367   .     A
C988   C1195   1.414   .     S
C989   H1017   1.083   .     S
C989   C1006   1.401   .     A
C990   H1018   1.083   .     S
C990   C1005   1.401   .     A
C990   C852    1.383   1_655 S
C991   H1019   1.083   .     S
C991   C1005   1.401   .     A
C991   C849    1.383   1_655 S
C992   H1020   1.083   .     S
C992   C1006   1.401   .     A
C993   C997    1.394   .     A
C993   C1003   1.388   .     A
C993   H1013   1.083   .     S
C994   H1014   1.083   .     S
C994   C998    1.395   .     A
C994   C1004   1.388   .     A
C995   H1015   1.083   .     S
C995   C1004   1.388   .     A
C995   C999    1.394   .     A
C996   C1003   1.388   .     A
C996   H1016   1.083   .     S
C996   C1000   1.395   .     A
C997   S1031   1.773   .     S
C997   C1001   1.426   .     A
C998   S1036   1.777   .     S
C998   C1002   1.428   .     A
C999   S1041   1.773   .     S
C999   C1002   1.426   .     A
C1000  S1046   1.777   .     S
C1000  C1001   1.428   .     A
C1004  C373    1.454   1_556 S
Cu1007 O1025   1.965   .     S
Cu1007 O1027   1.964   .     S
Cu1007 O1023   1.965   .     S
Cu1007 Cu1008  2.675   .     S
Cu1007 O1029   1.964   .     S
Cu1007 N1021   2.010   .     S
Cu1008 O1026   1.965   .     S
Cu1008 N1022   2.010   .     S
Cu1008 O1030   1.964   .     S
Cu1008 O1024   1.965   .     S
Cu1008 O1028   1.964   .     S
S1031  O1034   1.680   .     S
S1031  O1032   1.502   .     D
S1031  O1033   1.504   .     D
O1034  H1035   0.990   .     S
S1036  O1039   1.679   .     S
S1036  O1038   1.504   .     D
S1036  O1037   1.503   .     D
O1039  H1040   0.990   .     S
S1041  O1044   1.680   .     S
S1041  O1042   1.502   .     D
S1041  O1043   1.504   .     D
O1044  H1045   0.990   .     S
S1046  O1048   1.504   .     D
S1046  O1047   1.503   .     D
S1046  O1049   1.679   .     S
O1049  H1050   0.990   .     S
C1051  C1076   1.450   .     S
C1051  O1093   1.290   .     A
C1051  O1096   1.290   .     A
C1052  O1094   1.290   .     A
C1052  C1075   1.450   .     S
C1052  O1095   1.290   .     A
C1053  O1097   1.298   .     A
C1053  O1100   1.294   .     A
C1053  C1071   1.477   .     S
C1054  C1072   1.477   .     S
C1054  O1099   1.298   .     A
C1054  O1098   1.294   .     A
C1055  H1079   1.081   .     S
C1055  N1092   1.366   .     A
C1056  H1080   1.080   .     S
C1056  N1091   1.367   .     A
C1056  C637    1.414   1_565 S
C1057  H1081   1.081   .     S
C1057  N1092   1.366   .     A
C1058  H1082   1.080   .     S
C1058  N1091   1.367   .     A
C1058  C635    1.414   1_565 S
C1059  H1087   1.083   .     S
C1059  C1076   1.401   .     A
C1059  C1201   1.383   1_455 S
C1060  H1088   1.083   .     S
C1060  C1075   1.401   .     A
C1060  C1132   1.383   .     S
C1061  H1089   1.083   .     S
C1061  C1075   1.401   .     A
C1061  C1129   1.383   .     S
C1062  H1090   1.083   .     S
C1062  C1076   1.401   .     A
C1062  C1200   1.383   1_455 S
C1063  C1067   1.394   .     A
C1063  C1073   1.388   .     A
C1063  H1083   1.083   .     S
C1064  H1084   1.083   .     S
C1064  C1068   1.395   .     A
C1064  C1074   1.388   .     A
C1065  H1085   1.083   .     S
C1065  C1074   1.388   .     A
C1065  C1069   1.394   .     A
C1066  C1073   1.388   .     A
C1066  H1086   1.083   .     S
C1066  C1070   1.395   .     A
C1067  S1101   1.773   .     S
C1067  C1071   1.426   .     A
C1068  S1106   1.777   .     S
C1068  C1072   1.428   .     A
C1069  S1111   1.773   .     S
C1069  C1072   1.426   .     A
C1070  S1116   1.777   .     S
C1070  C1071   1.428   .     A
C1074  C443    1.454   1_556 S
Cu1077 O1095   1.965   .     S
Cu1077 O1097   1.964   .     S
Cu1077 O1093   1.965   .     S
Cu1077 Cu1078  2.675   .     S
Cu1077 O1099   1.964   .     S
Cu1077 N1091   2.010   .     S
Cu1078 O1096   1.965   .     S
Cu1078 N1092   2.010   .     S
Cu1078 O1100   1.964   .     S
Cu1078 O1094   1.965   .     S
Cu1078 O1098   1.964   .     S
S1101  O1104   1.680   .     S
S1101  O1102   1.502   .     D
S1101  O1103   1.504   .     D
O1104  H1105   0.990   .     S
S1106  O1109   1.679   .     S
S1106  O1108   1.504   .     D
S1106  O1107   1.503   .     D
O1109  H1110   0.990   .     S
S1111  O1114   1.680   .     S
S1111  O1112   1.502   .     D
S1111  O1113   1.504   .     D
O1114  H1115   0.990   .     S
S1116  O1118   1.504   .     D
S1116  O1117   1.503   .     D
S1116  O1119   1.679   .     S
O1119  H1120   0.990   .     S
C1121  C1146   1.450   .     S
C1121  O1163   1.290   .     A
C1121  O1166   1.290   .     A
C1122  O1164   1.290   .     A
C1122  C1145   1.450   .     S
C1122  O1165   1.290   .     A
C1123  O1167   1.298   .     A
C1123  O1170   1.294   .     A
C1123  C1141   1.477   .     S
C1124  C1142   1.477   .     S
C1124  O1169   1.298   .     A
C1124  O1168   1.294   .     A
C1125  H1149   1.081   .     S
C1125  N1162   1.366   .     A
C1126  H1150   1.080   .     S
C1126  N1161   1.367   .     A
C1126  C707    1.414   1_565 S
C1127  H1151   1.081   .     S
C1127  N1162   1.366   .     A
C1128  H1152   1.080   .     S
C1128  N1161   1.367   .     A
C1128  C705    1.414   1_565 S
C1129  H1157   1.083   .     S
C1129  C1146   1.401   .     A
C1130  H1158   1.083   .     S
C1130  C1145   1.401   .     A
C1130  C1202   1.383   .     S
C1131  H1159   1.083   .     S
C1131  C1145   1.401   .     A
C1131  C1199   1.383   .     S
C1132  H1160   1.083   .     S
C1132  C1146   1.401   .     A
C1133  C1137   1.394   .     A
C1133  C1143   1.388   .     A
C1133  H1153   1.083   .     S
C1134  H1154   1.083   .     S
C1134  C1138   1.395   .     A
C1134  C1144   1.388   .     A
C1135  H1155   1.083   .     S
C1135  C1144   1.388   .     A
C1135  C1139   1.394   .     A
C1136  C1143   1.388   .     A
C1136  H1156   1.083   .     S
C1136  C1140   1.395   .     A
C1137  S1171   1.773   .     S
C1137  C1141   1.426   .     A
C1138  S1176   1.777   .     S
C1138  C1142   1.428   .     A
C1139  S1181   1.773   .     S
C1139  C1142   1.426   .     A
C1140  S1186   1.777   .     S
C1140  C1141   1.428   .     A
C1144  C513    1.454   1_556 S
Cu1147 O1165   1.965   .     S
Cu1147 O1167   1.964   .     S
Cu1147 O1163   1.965   .     S
Cu1147 Cu1148  2.675   .     S
Cu1147 O1169   1.964   .     S
Cu1147 N1161   2.010   .     S
Cu1148 O1166   1.965   .     S
Cu1148 N1162   2.010   .     S
Cu1148 O1170   1.964   .     S
Cu1148 O1164   1.965   .     S
Cu1148 O1168   1.964   .     S
S1171  O1174   1.680   .     S
S1171  O1172   1.502   .     D
S1171  O1173   1.504   .     D
O1174  H1175   0.990   .     S
S1176  O1179   1.679   .     S
S1176  O1178   1.504   .     D
S1176  O1177   1.503   .     D
O1179  H1180   0.990   .     S
S1181  O1184   1.680   .     S
S1181  O1182   1.502   .     D
S1181  O1183   1.504   .     D
O1184  H1185   0.990   .     S
S1186  O1188   1.504   .     D
S1186  O1187   1.503   .     D
S1186  O1189   1.679   .     S
O1189  H1190   0.990   .     S
C1191  C1216   1.450   .     S
C1191  O1233   1.290   .     A
C1191  O1236   1.290   .     A
C1192  O1234   1.290   .     A
C1192  C1215   1.450   .     S
C1192  O1235   1.290   .     A
C1193  O1237   1.298   .     A
C1193  O1240   1.294   .     A
C1193  C1211   1.477   .     S
C1194  C1212   1.477   .     S
C1194  O1239   1.298   .     A
C1194  O1238   1.294   .     A
C1195  H1219   1.081   .     S
C1195  N1232   1.366   .     A
C1196  H1220   1.080   .     S
C1196  N1231   1.367   .     A
C1196  C777    1.414   1_565 S
C1197  H1221   1.081   .     S
C1197  N1232   1.366   .     A
C1198  H1222   1.080   .     S
C1198  N1231   1.367   .     A
C1198  C775    1.414   1_565 S
C1199  H1227   1.083   .     S
C1199  C1216   1.401   .     A
C1200  H1228   1.083   .     S
C1200  C1215   1.401   .     A
C1200  C1062   1.383   1_655 S
C1201  H1229   1.083   .     S
C1201  C1215   1.401   .     A
C1201  C1059   1.383   1_655 S
C1202  H1230   1.083   .     S
C1202  C1216   1.401   .     A
C1203  C1207   1.394   .     A
C1203  C1213   1.388   .     A
C1203  H1223   1.083   .     S
C1204  H1224   1.083   .     S
C1204  C1208   1.395   .     A
C1204  C1214   1.388   .     A
C1205  H1225   1.083   .     S
C1205  C1214   1.388   .     A
C1205  C1209   1.394   .     A
C1206  C1213   1.388   .     A
C1206  H1226   1.083   .     S
C1206  C1210   1.395   .     A
C1207  S1241   1.773   .     S
C1207  C1211   1.426   .     A
C1208  S1246   1.777   .     S
C1208  C1212   1.428   .     A
C1209  S1251   1.773   .     S
C1209  C1212   1.426   .     A
C1210  S1256   1.777   .     S
C1210  C1211   1.428   .     A
C1214  C583    1.454   1_556 S
Cu1217 O1235   1.965   .     S
Cu1217 O1237   1.964   .     S
Cu1217 O1233   1.965   .     S
Cu1217 Cu1218  2.675   .     S
Cu1217 O1239   1.964   .     S
Cu1217 N1231   2.010   .     S
Cu1218 O1236   1.965   .     S
Cu1218 N1232   2.010   .     S
Cu1218 O1240   1.964   .     S
Cu1218 O1234   1.965   .     S
Cu1218 O1238   1.964   .     S
S1241  O1244   1.680   .     S
S1241  O1242   1.502   .     D
S1241  O1243   1.504   .     D
O1244  H1245   0.990   .     S
S1246  O1249   1.679   .     S
S1246  O1248   1.504   .     D
S1246  O1247   1.503   .     D
O1249  H1250   0.990   .     S
S1251  O1254   1.680   .     S
S1251  O1252   1.502   .     D
S1251  O1253   1.504   .     D
O1254  H1255   0.990   .     S
S1256  O1258   1.504   .     D
S1256  O1257   1.503   .     D
S1256  O1259   1.679   .     S
O1259  H1260   0.990   .     S
