data_str_m2_o10_o18_pcu_sym.9
_audit_creation_date              2020-01-03
_audit_creation_method            'Materials Studio'
_symmetry_space_group_name_H-M    'P1'
_symmetry_Int_Tables_number       1
_symmetry_cell_setting            triclinic
loop_
_symmetry_equiv_pos_as_xyz
  x,y,z
_cell_length_a                    22.3703
_cell_length_b                    26.2000
_cell_length_c                    31.4140
_cell_angle_alpha                 94.7266
_cell_angle_beta                  74.9447
_cell_angle_gamma                 103.3721
loop_
_atom_site_label
_atom_site_type_symbol
_atom_site_fract_x
_atom_site_fract_y
_atom_site_fract_z
_atom_site_U_iso_or_equiv
_atom_site_adp_type
_atom_site_occupancy
C1     C     0.18163   0.26660   0.25132   0.00000  Uiso   1.00
C2     C     0.20559   0.17219   0.16691   0.00000  Uiso   1.00
C3     C     0.10354   0.15047   0.38035   0.00000  Uiso   1.00
C4     C     0.22979   0.18289   0.11965   0.00000  Uiso   1.00
C5     C     0.03254   0.09936   0.44146   0.00000  Uiso   1.00
C6     C     0.30075   0.23407   0.05857   0.00000  Uiso   1.00
C7     C     0.04980   0.11060   0.39672   0.00000  Uiso   1.00
C8     C     0.28351   0.22279   0.10331   0.00000  Uiso   1.00
C9     C     0.14044   0.17620   0.40879   0.00000  Uiso   1.00
C10    C     0.19290   0.15717   0.09120   0.00000  Uiso   1.00
C11    C     0.13140   0.15670   0.45096   0.00000  Uiso   1.00
C12    C     0.15171   0.06673   0.24868   0.00000  Uiso   1.00
C13    C     0.20192   0.17670   0.04905   0.00000  Uiso   1.00
C14    C     0.07271   0.12240   0.46868   0.00000  Uiso   1.00
C15    C     0.26059   0.21103   0.03134   0.00000  Uiso   1.00
C16    C     0.17665   0.17208   0.47694   0.00000  Uiso   1.00
C17    C     0.15668   0.16132   0.02307   0.00000  Uiso   1.00
C18    C     0.09173   0.13751   0.04133   0.00000  Uiso   1.00
C19    C     0.24159   0.19591   0.45869   0.00000  Uiso   1.00
C20    C     0.05288   0.11430   0.01380   0.00000  Uiso   1.00
C21    C     0.28042   0.21916   0.48623   0.00000  Uiso   1.00
C22    C     0.19007   0.32237   0.25200   0.00000  Uiso   1.00
C23    C     0.14327   0.01096   0.24800   0.00000  Uiso   1.00
C24    C     0.12774   0.16115   0.33309   0.00000  Uiso   1.00
Cl25   Cl    0.33014   0.25981   0.13728   0.00000  Uiso   1.00
Cl26   Cl    0.00314   0.07357   0.36276   0.00000  Uiso   1.00
Cl27   Cl    0.05163   0.14385   0.09724   0.00000  Uiso   1.00
Cl28   Cl    0.28172   0.18957   0.40279   0.00000  Uiso   1.00
Cu29   Cu    0.10737   0.16108   0.24517   0.00000  Uiso   1.00
Cu30   Cu    0.22596   0.17225   0.25484   0.00000  Uiso   1.00
F31    F     0.15335   0.11010   0.10335   0.00000  Uiso   1.00
F32    F     0.17999   0.22326   0.39664   0.00000  Uiso   1.00
F33    F     0.24707   0.01803   0.25684   0.00000  Uiso   1.00
F34    F     0.08627   0.31530   0.24316   0.00000  Uiso   1.00
F35    F     0.00384   0.20951   0.29405   0.00000  Uiso   1.00
F36    F     0.32949   0.12382   0.20595   0.00000  Uiso   1.00
H37    H     0.00483   0.09335   0.02818   0.00000  Uiso   1.00
H38    H     0.32846   0.24014   0.47185   0.00000  Uiso   1.00
H39    H     0.32204   0.07146   0.45470   0.00000  Uiso   1.00
H40    H     0.01122   0.26200   0.04534   0.00000  Uiso   1.00
N41    N     0.31506   0.18068   0.26212   0.00000  Uiso   1.00
N42    N     0.01827   0.15265   0.23788   0.00000  Uiso   1.00
O43    O     0.12815   0.23809   0.24686   0.00000  Uiso   1.00
O44    O     0.20518   0.09524   0.25314   0.00000  Uiso   1.00
O45    O     0.22829   0.24753   0.25503   0.00000  Uiso   1.00
O46    O     0.10504   0.08580   0.24498   0.00000  Uiso   1.00
O47    O     0.08851   0.15930   0.30855   0.00000  Uiso   1.00
O48    O     0.24482   0.17403   0.19146   0.00000  Uiso   1.00
O49    O     0.18866   0.16874   0.31671   0.00000  Uiso   1.00
O50    O     0.14468   0.16460   0.18329   0.00000  Uiso   1.00
C51    C     0.51496   0.26660   0.25132   0.00000  Uiso   1.00
C52    C     0.53892   0.17219   0.16691   0.00000  Uiso   1.00
C53    C     0.43687   0.15047   0.38035   0.00000  Uiso   1.00
C54    C     0.56313   0.18289   0.11965   0.00000  Uiso   1.00
C55    C     0.36587   0.09936   0.44146   0.00000  Uiso   1.00
C56    C     0.63408   0.23407   0.05857   0.00000  Uiso   1.00
C57    C     0.38313   0.11060   0.39672   0.00000  Uiso   1.00
C58    C     0.61684   0.22279   0.10331   0.00000  Uiso   1.00
C59    C     0.47377   0.17620   0.40879   0.00000  Uiso   1.00
C60    C     0.52624   0.15717   0.09120   0.00000  Uiso   1.00
C61    C     0.46474   0.15670   0.45096   0.00000  Uiso   1.00
C62    C     0.48504   0.06673   0.24868   0.00000  Uiso   1.00
C63    C     0.53526   0.17670   0.04905   0.00000  Uiso   1.00
C64    C     0.40605   0.12240   0.46868   0.00000  Uiso   1.00
C65    C     0.59392   0.21103   0.03134   0.00000  Uiso   1.00
C66    C     0.50998   0.17208   0.47694   0.00000  Uiso   1.00
C67    C     0.49001   0.16132   0.02307   0.00000  Uiso   1.00
C68    C     0.42507   0.13751   0.04133   0.00000  Uiso   1.00
C69    C     0.57492   0.19591   0.45869   0.00000  Uiso   1.00
C70    C     0.38621   0.11430   0.01380   0.00000  Uiso   1.00
C71    C     0.61375   0.21916   0.48623   0.00000  Uiso   1.00
C72    C     0.52340   0.32237   0.25200   0.00000  Uiso   1.00
C73    C     0.47660   0.01096   0.24800   0.00000  Uiso   1.00
C74    C     0.46108   0.16115   0.33309   0.00000  Uiso   1.00
Cl75   Cl    0.66348   0.25981   0.13728   0.00000  Uiso   1.00
Cl76   Cl    0.33648   0.07357   0.36276   0.00000  Uiso   1.00
Cl77   Cl    0.38496   0.14385   0.09724   0.00000  Uiso   1.00
Cl78   Cl    0.61505   0.18957   0.40279   0.00000  Uiso   1.00
Cu79   Cu    0.44071   0.16108   0.24517   0.00000  Uiso   1.00
Cu80   Cu    0.55929   0.17225   0.25484   0.00000  Uiso   1.00
F81    F     0.48668   0.11010   0.10335   0.00000  Uiso   1.00
F82    F     0.51333   0.22326   0.39664   0.00000  Uiso   1.00
F83    F     0.58040   0.01803   0.25684   0.00000  Uiso   1.00
F84    F     0.41960   0.31530   0.24316   0.00000  Uiso   1.00
F85    F     0.33717   0.20951   0.29405   0.00000  Uiso   1.00
F86    F     0.66283   0.12382   0.20595   0.00000  Uiso   1.00
H87    H     0.33816   0.09335   0.02818   0.00000  Uiso   1.00
H88    H     0.66180   0.24014   0.47185   0.00000  Uiso   1.00
H89    H     0.65538   0.07146   0.45470   0.00000  Uiso   1.00
H90    H     0.34456   0.26200   0.04534   0.00000  Uiso   1.00
N91    N     0.64839   0.18068   0.26212   0.00000  Uiso   1.00
N92    N     0.35161   0.15265   0.23788   0.00000  Uiso   1.00
O93    O     0.46148   0.23809   0.24686   0.00000  Uiso   1.00
O94    O     0.53852   0.09524   0.25314   0.00000  Uiso   1.00
O95    O     0.56163   0.24753   0.25503   0.00000  Uiso   1.00
O96    O     0.43837   0.08580   0.24498   0.00000  Uiso   1.00
O97    O     0.42185   0.15930   0.30855   0.00000  Uiso   1.00
O98    O     0.57815   0.17403   0.19146   0.00000  Uiso   1.00
O99    O     0.52199   0.16874   0.31671   0.00000  Uiso   1.00
O100   O     0.47801   0.16460   0.18329   0.00000  Uiso   1.00
C101   C     0.84829   0.26660   0.25132   0.00000  Uiso   1.00
C102   C     0.87226   0.17219   0.16691   0.00000  Uiso   1.00
C103   C     0.77021   0.15047   0.38035   0.00000  Uiso   1.00
C104   C     0.89646   0.18289   0.11965   0.00000  Uiso   1.00
C105   C     0.69921   0.09936   0.44146   0.00000  Uiso   1.00
C106   C     0.96742   0.23407   0.05857   0.00000  Uiso   1.00
C107   C     0.71647   0.11060   0.39672   0.00000  Uiso   1.00
C108   C     0.95017   0.22279   0.10331   0.00000  Uiso   1.00
C109   C     0.80710   0.17620   0.40879   0.00000  Uiso   1.00
C110   C     0.85957   0.15717   0.09120   0.00000  Uiso   1.00
C111   C     0.79807   0.15670   0.45096   0.00000  Uiso   1.00
C112   C     0.81837   0.06673   0.24868   0.00000  Uiso   1.00
C113   C     0.86859   0.17670   0.04905   0.00000  Uiso   1.00
C114   C     0.73938   0.12240   0.46868   0.00000  Uiso   1.00
C115   C     0.92726   0.21103   0.03134   0.00000  Uiso   1.00
C116   C     0.84331   0.17208   0.47694   0.00000  Uiso   1.00
C117   C     0.82335   0.16132   0.02307   0.00000  Uiso   1.00
C118   C     0.75840   0.13751   0.04133   0.00000  Uiso   1.00
C119   C     0.90826   0.19591   0.45869   0.00000  Uiso   1.00
C120   C     0.71955   0.11430   0.01380   0.00000  Uiso   1.00
C121   C     0.94709   0.21916   0.48623   0.00000  Uiso   1.00
C122   C     0.85673   0.32237   0.25200   0.00000  Uiso   1.00
C123   C     0.80993   0.01096   0.24800   0.00000  Uiso   1.00
C124   C     0.79441   0.16115   0.33309   0.00000  Uiso   1.00
Cl125  Cl    0.99681   0.25981   0.13728   0.00000  Uiso   1.00
Cl126  Cl    0.66981   0.07357   0.36276   0.00000  Uiso   1.00
Cl127  Cl    0.71830   0.14385   0.09724   0.00000  Uiso   1.00
Cl128  Cl    0.94839   0.18957   0.40279   0.00000  Uiso   1.00
Cu129  Cu    0.77404   0.16108   0.24517   0.00000  Uiso   1.00
Cu130  Cu    0.89263   0.17225   0.25484   0.00000  Uiso   1.00
F131   F     0.82001   0.11010   0.10335   0.00000  Uiso   1.00
F132   F     0.84666   0.22326   0.39664   0.00000  Uiso   1.00
F133   F     0.91373   0.01803   0.25684   0.00000  Uiso   1.00
F134   F     0.75293   0.31530   0.24316   0.00000  Uiso   1.00
F135   F     0.67051   0.20951   0.29405   0.00000  Uiso   1.00
F136   F     0.99616   0.12382   0.20595   0.00000  Uiso   1.00
H137   H     0.67149   0.09335   0.02818   0.00000  Uiso   1.00
H138   H     0.99513   0.24014   0.47185   0.00000  Uiso   1.00
H139   H     0.98871   0.07146   0.45470   0.00000  Uiso   1.00
H140   H     0.67789   0.26200   0.04534   0.00000  Uiso   1.00
N141   N     0.98173   0.18068   0.26212   0.00000  Uiso   1.00
N142   N     0.68494   0.15265   0.23788   0.00000  Uiso   1.00
O143   O     0.79482   0.23809   0.24686   0.00000  Uiso   1.00
O144   O     0.87185   0.09524   0.25314   0.00000  Uiso   1.00
O145   O     0.89496   0.24753   0.25503   0.00000  Uiso   1.00
O146   O     0.77171   0.08580   0.24498   0.00000  Uiso   1.00
O147   O     0.75518   0.15930   0.30855   0.00000  Uiso   1.00
O148   O     0.91149   0.17403   0.19146   0.00000  Uiso   1.00
O149   O     0.85532   0.16874   0.31671   0.00000  Uiso   1.00
O150   O     0.81134   0.16460   0.18329   0.00000  Uiso   1.00
C151   C     0.18163   0.59993   0.25132   0.00000  Uiso   1.00
C152   C     0.20559   0.50552   0.16691   0.00000  Uiso   1.00
C153   C     0.10354   0.48380   0.38035   0.00000  Uiso   1.00
C154   C     0.22979   0.51622   0.11965   0.00000  Uiso   1.00
C155   C     0.03254   0.43270   0.44146   0.00000  Uiso   1.00
C156   C     0.30075   0.56740   0.05857   0.00000  Uiso   1.00
C157   C     0.04980   0.44393   0.39672   0.00000  Uiso   1.00
C158   C     0.28351   0.55612   0.10331   0.00000  Uiso   1.00
C159   C     0.14044   0.50953   0.40879   0.00000  Uiso   1.00
C160   C     0.19290   0.49051   0.09120   0.00000  Uiso   1.00
C161   C     0.13140   0.49003   0.45096   0.00000  Uiso   1.00
C162   C     0.15171   0.40007   0.24868   0.00000  Uiso   1.00
C163   C     0.20192   0.51003   0.04905   0.00000  Uiso   1.00
C164   C     0.07271   0.45574   0.46868   0.00000  Uiso   1.00
C165   C     0.26059   0.54436   0.03134   0.00000  Uiso   1.00
C166   C     0.17665   0.50542   0.47694   0.00000  Uiso   1.00
C167   C     0.15668   0.49465   0.02307   0.00000  Uiso   1.00
C168   C     0.09173   0.47085   0.04133   0.00000  Uiso   1.00
C169   C     0.24159   0.52925   0.45869   0.00000  Uiso   1.00
C170   C     0.05288   0.44763   0.01380   0.00000  Uiso   1.00
C171   C     0.28042   0.55249   0.48623   0.00000  Uiso   1.00
C172   C     0.19007   0.65571   0.25200   0.00000  Uiso   1.00
C173   C     0.14327   0.34429   0.24800   0.00000  Uiso   1.00
C174   C     0.12774   0.49448   0.33309   0.00000  Uiso   1.00
Cl175  Cl    0.33014   0.59315   0.13728   0.00000  Uiso   1.00
Cl176  Cl    0.00314   0.40690   0.36276   0.00000  Uiso   1.00
Cl177  Cl    0.05163   0.47719   0.09724   0.00000  Uiso   1.00
Cl178  Cl    0.28172   0.52290   0.40279   0.00000  Uiso   1.00
Cu179  Cu    0.10737   0.49441   0.24517   0.00000  Uiso   1.00
Cu180  Cu    0.22596   0.50559   0.25484   0.00000  Uiso   1.00
F181   F     0.15335   0.44344   0.10335   0.00000  Uiso   1.00
F182   F     0.17999   0.55659   0.39664   0.00000  Uiso   1.00
F183   F     0.24707   0.35136   0.25684   0.00000  Uiso   1.00
F184   F     0.08627   0.64864   0.24316   0.00000  Uiso   1.00
F185   F     0.00384   0.54284   0.29405   0.00000  Uiso   1.00
F186   F     0.32949   0.45715   0.20595   0.00000  Uiso   1.00
H187   H     0.00483   0.42668   0.02818   0.00000  Uiso   1.00
H188   H     0.32846   0.57347   0.47185   0.00000  Uiso   1.00
H189   H     0.32204   0.40480   0.45470   0.00000  Uiso   1.00
H190   H     0.01122   0.59534   0.04534   0.00000  Uiso   1.00
N191   N     0.31506   0.51401   0.26212   0.00000  Uiso   1.00
N192   N     0.01827   0.48599   0.23788   0.00000  Uiso   1.00
O193   O     0.12815   0.57142   0.24686   0.00000  Uiso   1.00
O194   O     0.20518   0.42858   0.25314   0.00000  Uiso   1.00
O195   O     0.22829   0.58086   0.25503   0.00000  Uiso   1.00
O196   O     0.10504   0.41914   0.24498   0.00000  Uiso   1.00
O197   O     0.08851   0.49263   0.30855   0.00000  Uiso   1.00
O198   O     0.24482   0.50737   0.19146   0.00000  Uiso   1.00
O199   O     0.18866   0.50207   0.31671   0.00000  Uiso   1.00
O200   O     0.14468   0.49793   0.18329   0.00000  Uiso   1.00
C201   C     0.51496   0.59993   0.25132   0.00000  Uiso   1.00
C202   C     0.53892   0.50552   0.16691   0.00000  Uiso   1.00
C203   C     0.43687   0.48380   0.38035   0.00000  Uiso   1.00
C204   C     0.56313   0.51622   0.11965   0.00000  Uiso   1.00
C205   C     0.36587   0.43270   0.44146   0.00000  Uiso   1.00
C206   C     0.63408   0.56740   0.05857   0.00000  Uiso   1.00
C207   C     0.38313   0.44393   0.39672   0.00000  Uiso   1.00
C208   C     0.61684   0.55612   0.10331   0.00000  Uiso   1.00
C209   C     0.47377   0.50953   0.40879   0.00000  Uiso   1.00
C210   C     0.52624   0.49051   0.09120   0.00000  Uiso   1.00
C211   C     0.46474   0.49003   0.45096   0.00000  Uiso   1.00
C212   C     0.48504   0.40007   0.24868   0.00000  Uiso   1.00
C213   C     0.53526   0.51003   0.04905   0.00000  Uiso   1.00
C214   C     0.40605   0.45574   0.46868   0.00000  Uiso   1.00
C215   C     0.59392   0.54436   0.03134   0.00000  Uiso   1.00
C216   C     0.50998   0.50542   0.47694   0.00000  Uiso   1.00
C217   C     0.49001   0.49465   0.02307   0.00000  Uiso   1.00
C218   C     0.42507   0.47085   0.04133   0.00000  Uiso   1.00
C219   C     0.57492   0.52925   0.45869   0.00000  Uiso   1.00
C220   C     0.38621   0.44763   0.01380   0.00000  Uiso   1.00
C221   C     0.61375   0.55249   0.48623   0.00000  Uiso   1.00
C222   C     0.52340   0.65571   0.25200   0.00000  Uiso   1.00
C223   C     0.47660   0.34429   0.24800   0.00000  Uiso   1.00
C224   C     0.46108   0.49448   0.33309   0.00000  Uiso   1.00
Cl225  Cl    0.66348   0.59315   0.13728   0.00000  Uiso   1.00
Cl226  Cl    0.33648   0.40690   0.36276   0.00000  Uiso   1.00
Cl227  Cl    0.38496   0.47719   0.09724   0.00000  Uiso   1.00
Cl228  Cl    0.61505   0.52290   0.40279   0.00000  Uiso   1.00
Cu229  Cu    0.44071   0.49441   0.24517   0.00000  Uiso   1.00
Cu230  Cu    0.55929   0.50559   0.25484   0.00000  Uiso   1.00
F231   F     0.48668   0.44344   0.10335   0.00000  Uiso   1.00
F232   F     0.51333   0.55659   0.39664   0.00000  Uiso   1.00
F233   F     0.58040   0.35136   0.25684   0.00000  Uiso   1.00
F234   F     0.41960   0.64864   0.24316   0.00000  Uiso   1.00
F235   F     0.33717   0.54284   0.29405   0.00000  Uiso   1.00
F236   F     0.66283   0.45715   0.20595   0.00000  Uiso   1.00
H237   H     0.33816   0.42668   0.02818   0.00000  Uiso   1.00
H238   H     0.66180   0.57347   0.47185   0.00000  Uiso   1.00
H239   H     0.65538   0.40480   0.45470   0.00000  Uiso   1.00
H240   H     0.34456   0.59534   0.04534   0.00000  Uiso   1.00
N241   N     0.64839   0.51401   0.26212   0.00000  Uiso   1.00
N242   N     0.35161   0.48599   0.23788   0.00000  Uiso   1.00
O243   O     0.46148   0.57142   0.24686   0.00000  Uiso   1.00
O244   O     0.53852   0.42858   0.25314   0.00000  Uiso   1.00
O245   O     0.56163   0.58086   0.25503   0.00000  Uiso   1.00
O246   O     0.43837   0.41914   0.24498   0.00000  Uiso   1.00
O247   O     0.42185   0.49263   0.30855   0.00000  Uiso   1.00
O248   O     0.57815   0.50737   0.19146   0.00000  Uiso   1.00
O249   O     0.52199   0.50207   0.31671   0.00000  Uiso   1.00
O250   O     0.47801   0.49793   0.18329   0.00000  Uiso   1.00
C251   C     0.84829   0.59993   0.25132   0.00000  Uiso   1.00
C252   C     0.87226   0.50552   0.16691   0.00000  Uiso   1.00
C253   C     0.77021   0.48380   0.38035   0.00000  Uiso   1.00
C254   C     0.89646   0.51622   0.11965   0.00000  Uiso   1.00
C255   C     0.69921   0.43270   0.44146   0.00000  Uiso   1.00
C256   C     0.96742   0.56740   0.05857   0.00000  Uiso   1.00
C257   C     0.71647   0.44393   0.39672   0.00000  Uiso   1.00
C258   C     0.95017   0.55612   0.10331   0.00000  Uiso   1.00
C259   C     0.80710   0.50953   0.40879   0.00000  Uiso   1.00
C260   C     0.85957   0.49051   0.09120   0.00000  Uiso   1.00
C261   C     0.79807   0.49003   0.45096   0.00000  Uiso   1.00
C262   C     0.81837   0.40007   0.24868   0.00000  Uiso   1.00
C263   C     0.86859   0.51003   0.04905   0.00000  Uiso   1.00
C264   C     0.73938   0.45574   0.46868   0.00000  Uiso   1.00
C265   C     0.92726   0.54436   0.03134   0.00000  Uiso   1.00
C266   C     0.84331   0.50542   0.47694   0.00000  Uiso   1.00
C267   C     0.82335   0.49465   0.02307   0.00000  Uiso   1.00
C268   C     0.75840   0.47085   0.04133   0.00000  Uiso   1.00
C269   C     0.90826   0.52925   0.45869   0.00000  Uiso   1.00
C270   C     0.71955   0.44763   0.01380   0.00000  Uiso   1.00
C271   C     0.94709   0.55249   0.48623   0.00000  Uiso   1.00
C272   C     0.85673   0.65571   0.25200   0.00000  Uiso   1.00
C273   C     0.80993   0.34429   0.24800   0.00000  Uiso   1.00
C274   C     0.79441   0.49448   0.33309   0.00000  Uiso   1.00
Cl275  Cl    0.99681   0.59315   0.13728   0.00000  Uiso   1.00
Cl276  Cl    0.66981   0.40690   0.36276   0.00000  Uiso   1.00
Cl277  Cl    0.71830   0.47719   0.09724   0.00000  Uiso   1.00
Cl278  Cl    0.94839   0.52290   0.40279   0.00000  Uiso   1.00
Cu279  Cu    0.77404   0.49441   0.24517   0.00000  Uiso   1.00
Cu280  Cu    0.89263   0.50559   0.25484   0.00000  Uiso   1.00
F281   F     0.82001   0.44344   0.10335   0.00000  Uiso   1.00
F282   F     0.84666   0.55659   0.39664   0.00000  Uiso   1.00
F283   F     0.91373   0.35136   0.25684   0.00000  Uiso   1.00
F284   F     0.75293   0.64864   0.24316   0.00000  Uiso   1.00
F285   F     0.67051   0.54284   0.29405   0.00000  Uiso   1.00
F286   F     0.99616   0.45715   0.20595   0.00000  Uiso   1.00
H287   H     0.67149   0.42668   0.02818   0.00000  Uiso   1.00
H288   H     0.99513   0.57347   0.47185   0.00000  Uiso   1.00
H289   H     0.98871   0.40480   0.45470   0.00000  Uiso   1.00
H290   H     0.67789   0.59534   0.04534   0.00000  Uiso   1.00
N291   N     0.98173   0.51401   0.26212   0.00000  Uiso   1.00
N292   N     0.68494   0.48599   0.23788   0.00000  Uiso   1.00
O293   O     0.79482   0.57142   0.24686   0.00000  Uiso   1.00
O294   O     0.87185   0.42858   0.25314   0.00000  Uiso   1.00
O295   O     0.89496   0.58086   0.25503   0.00000  Uiso   1.00
O296   O     0.77171   0.41914   0.24498   0.00000  Uiso   1.00
O297   O     0.75518   0.49263   0.30855   0.00000  Uiso   1.00
O298   O     0.91149   0.50737   0.19146   0.00000  Uiso   1.00
O299   O     0.85532   0.50207   0.31671   0.00000  Uiso   1.00
O300   O     0.81134   0.49793   0.18329   0.00000  Uiso   1.00
C301   C     0.18163   0.93327   0.25132   0.00000  Uiso   1.00
C302   C     0.20559   0.83885   0.16691   0.00000  Uiso   1.00
C303   C     0.10354   0.81713   0.38035   0.00000  Uiso   1.00
C304   C     0.22979   0.84956   0.11965   0.00000  Uiso   1.00
C305   C     0.03254   0.76603   0.44146   0.00000  Uiso   1.00
C306   C     0.30075   0.90074   0.05857   0.00000  Uiso   1.00
C307   C     0.04980   0.77727   0.39672   0.00000  Uiso   1.00
C308   C     0.28351   0.88946   0.10331   0.00000  Uiso   1.00
C309   C     0.14044   0.84286   0.40879   0.00000  Uiso   1.00
C310   C     0.19290   0.82384   0.09120   0.00000  Uiso   1.00
C311   C     0.13140   0.82337   0.45096   0.00000  Uiso   1.00
C312   C     0.15171   0.73340   0.24868   0.00000  Uiso   1.00
C313   C     0.20192   0.84337   0.04905   0.00000  Uiso   1.00
C314   C     0.07271   0.78907   0.46868   0.00000  Uiso   1.00
C315   C     0.26059   0.87769   0.03134   0.00000  Uiso   1.00
C316   C     0.17665   0.83875   0.47694   0.00000  Uiso   1.00
C317   C     0.15668   0.82799   0.02307   0.00000  Uiso   1.00
C318   C     0.09173   0.80418   0.04133   0.00000  Uiso   1.00
C319   C     0.24159   0.86258   0.45869   0.00000  Uiso   1.00
C320   C     0.05288   0.78097   0.01380   0.00000  Uiso   1.00
C321   C     0.28042   0.88582   0.48623   0.00000  Uiso   1.00
C322   C     0.19007   0.98904   0.25200   0.00000  Uiso   1.00
C323   C     0.14327   0.67763   0.24800   0.00000  Uiso   1.00
C324   C     0.12774   0.82782   0.33309   0.00000  Uiso   1.00
Cl325  Cl    0.33014   0.92648   0.13728   0.00000  Uiso   1.00
Cl326  Cl    0.00314   0.74024   0.36276   0.00000  Uiso   1.00
Cl327  Cl    0.05163   0.81052   0.09724   0.00000  Uiso   1.00
Cl328  Cl    0.28172   0.85624   0.40279   0.00000  Uiso   1.00
Cu329  Cu    0.10737   0.82775   0.24517   0.00000  Uiso   1.00
Cu330  Cu    0.22596   0.83892   0.25484   0.00000  Uiso   1.00
F331   F     0.15335   0.77677   0.10335   0.00000  Uiso   1.00
F332   F     0.17999   0.88993   0.39664   0.00000  Uiso   1.00
F333   F     0.24707   0.68470   0.25684   0.00000  Uiso   1.00
F334   F     0.08627   0.98197   0.24316   0.00000  Uiso   1.00
F335   F     0.00384   0.87618   0.29405   0.00000  Uiso   1.00
F336   F     0.32949   0.79049   0.20595   0.00000  Uiso   1.00
H337   H     0.00483   0.76001   0.02818   0.00000  Uiso   1.00
H338   H     0.32846   0.90681   0.47185   0.00000  Uiso   1.00
H339   H     0.32204   0.73813   0.45470   0.00000  Uiso   1.00
H340   H     0.01122   0.92867   0.04534   0.00000  Uiso   1.00
N341   N     0.31506   0.84735   0.26212   0.00000  Uiso   1.00
N342   N     0.01827   0.81932   0.23788   0.00000  Uiso   1.00
O343   O     0.12815   0.90476   0.24686   0.00000  Uiso   1.00
O344   O     0.20518   0.76191   0.25314   0.00000  Uiso   1.00
O345   O     0.22829   0.91420   0.25503   0.00000  Uiso   1.00
O346   O     0.10504   0.75247   0.24498   0.00000  Uiso   1.00
O347   O     0.08851   0.82597   0.30855   0.00000  Uiso   1.00
O348   O     0.24482   0.84070   0.19146   0.00000  Uiso   1.00
O349   O     0.18866   0.83540   0.31671   0.00000  Uiso   1.00
O350   O     0.14468   0.83126   0.18329   0.00000  Uiso   1.00
C351   C     0.51496   0.93327   0.25132   0.00000  Uiso   1.00
C352   C     0.53892   0.83885   0.16691   0.00000  Uiso   1.00
C353   C     0.43687   0.81713   0.38035   0.00000  Uiso   1.00
C354   C     0.56313   0.84956   0.11965   0.00000  Uiso   1.00
C355   C     0.36587   0.76603   0.44146   0.00000  Uiso   1.00
C356   C     0.63408   0.90074   0.05857   0.00000  Uiso   1.00
C357   C     0.38313   0.77727   0.39672   0.00000  Uiso   1.00
C358   C     0.61684   0.88946   0.10331   0.00000  Uiso   1.00
C359   C     0.47377   0.84286   0.40879   0.00000  Uiso   1.00
C360   C     0.52624   0.82384   0.09120   0.00000  Uiso   1.00
C361   C     0.46474   0.82337   0.45096   0.00000  Uiso   1.00
C362   C     0.48504   0.73340   0.24868   0.00000  Uiso   1.00
C363   C     0.53526   0.84337   0.04905   0.00000  Uiso   1.00
C364   C     0.40605   0.78907   0.46868   0.00000  Uiso   1.00
C365   C     0.59392   0.87769   0.03134   0.00000  Uiso   1.00
C366   C     0.50998   0.83875   0.47694   0.00000  Uiso   1.00
C367   C     0.49001   0.82799   0.02307   0.00000  Uiso   1.00
C368   C     0.42507   0.80418   0.04133   0.00000  Uiso   1.00
C369   C     0.57492   0.86258   0.45869   0.00000  Uiso   1.00
C370   C     0.38621   0.78097   0.01380   0.00000  Uiso   1.00
C371   C     0.61375   0.88582   0.48623   0.00000  Uiso   1.00
C372   C     0.52340   0.98904   0.25200   0.00000  Uiso   1.00
C373   C     0.47660   0.67763   0.24800   0.00000  Uiso   1.00
C374   C     0.46108   0.82782   0.33309   0.00000  Uiso   1.00
Cl375  Cl    0.66348   0.92648   0.13728   0.00000  Uiso   1.00
Cl376  Cl    0.33648   0.74024   0.36276   0.00000  Uiso   1.00
Cl377  Cl    0.38496   0.81052   0.09724   0.00000  Uiso   1.00
Cl378  Cl    0.61505   0.85624   0.40279   0.00000  Uiso   1.00
Cu379  Cu    0.44071   0.82775   0.24517   0.00000  Uiso   1.00
Cu380  Cu    0.55929   0.83892   0.25484   0.00000  Uiso   1.00
F381   F     0.48668   0.77677   0.10335   0.00000  Uiso   1.00
F382   F     0.51333   0.88993   0.39664   0.00000  Uiso   1.00
F383   F     0.58040   0.68470   0.25684   0.00000  Uiso   1.00
F384   F     0.41960   0.98197   0.24316   0.00000  Uiso   1.00
F385   F     0.33717   0.87618   0.29405   0.00000  Uiso   1.00
F386   F     0.66283   0.79049   0.20595   0.00000  Uiso   1.00
H387   H     0.33816   0.76001   0.02818   0.00000  Uiso   1.00
H388   H     0.66180   0.90681   0.47185   0.00000  Uiso   1.00
H389   H     0.65538   0.73813   0.45470   0.00000  Uiso   1.00
H390   H     0.34456   0.92867   0.04534   0.00000  Uiso   1.00
N391   N     0.64839   0.84735   0.26212   0.00000  Uiso   1.00
N392   N     0.35161   0.81932   0.23788   0.00000  Uiso   1.00
O393   O     0.46148   0.90476   0.24686   0.00000  Uiso   1.00
O394   O     0.53852   0.76191   0.25314   0.00000  Uiso   1.00
O395   O     0.56163   0.91420   0.25503   0.00000  Uiso   1.00
O396   O     0.43837   0.75247   0.24498   0.00000  Uiso   1.00
O397   O     0.42185   0.82597   0.30855   0.00000  Uiso   1.00
O398   O     0.57815   0.84070   0.19146   0.00000  Uiso   1.00
O399   O     0.52199   0.83540   0.31671   0.00000  Uiso   1.00
O400   O     0.47801   0.83126   0.18329   0.00000  Uiso   1.00
C401   C     0.84829   0.93327   0.25132   0.00000  Uiso   1.00
C402   C     0.87226   0.83885   0.16691   0.00000  Uiso   1.00
C403   C     0.77021   0.81713   0.38035   0.00000  Uiso   1.00
C404   C     0.89646   0.84956   0.11965   0.00000  Uiso   1.00
C405   C     0.69921   0.76603   0.44146   0.00000  Uiso   1.00
C406   C     0.96742   0.90074   0.05857   0.00000  Uiso   1.00
C407   C     0.71647   0.77727   0.39672   0.00000  Uiso   1.00
C408   C     0.95017   0.88946   0.10331   0.00000  Uiso   1.00
C409   C     0.80710   0.84286   0.40879   0.00000  Uiso   1.00
C410   C     0.85957   0.82384   0.09120   0.00000  Uiso   1.00
C411   C     0.79807   0.82337   0.45096   0.00000  Uiso   1.00
C412   C     0.81837   0.73340   0.24868   0.00000  Uiso   1.00
C413   C     0.86859   0.84337   0.04905   0.00000  Uiso   1.00
C414   C     0.73938   0.78907   0.46868   0.00000  Uiso   1.00
C415   C     0.92726   0.87769   0.03134   0.00000  Uiso   1.00
C416   C     0.84331   0.83875   0.47694   0.00000  Uiso   1.00
C417   C     0.82335   0.82799   0.02307   0.00000  Uiso   1.00
C418   C     0.75840   0.80418   0.04133   0.00000  Uiso   1.00
C419   C     0.90826   0.86258   0.45869   0.00000  Uiso   1.00
C420   C     0.71955   0.78097   0.01380   0.00000  Uiso   1.00
C421   C     0.94709   0.88582   0.48623   0.00000  Uiso   1.00
C422   C     0.85673   0.98904   0.25200   0.00000  Uiso   1.00
C423   C     0.80993   0.67763   0.24800   0.00000  Uiso   1.00
C424   C     0.79441   0.82782   0.33309   0.00000  Uiso   1.00
Cl425  Cl    0.99681   0.92648   0.13728   0.00000  Uiso   1.00
Cl426  Cl    0.66981   0.74024   0.36276   0.00000  Uiso   1.00
Cl427  Cl    0.71830   0.81052   0.09724   0.00000  Uiso   1.00
Cl428  Cl    0.94839   0.85624   0.40279   0.00000  Uiso   1.00
Cu429  Cu    0.77404   0.82775   0.24517   0.00000  Uiso   1.00
Cu430  Cu    0.89263   0.83892   0.25484   0.00000  Uiso   1.00
F431   F     0.82001   0.77677   0.10335   0.00000  Uiso   1.00
F432   F     0.84666   0.88993   0.39664   0.00000  Uiso   1.00
F433   F     0.91373   0.68470   0.25684   0.00000  Uiso   1.00
F434   F     0.75293   0.98197   0.24316   0.00000  Uiso   1.00
F435   F     0.67051   0.87618   0.29405   0.00000  Uiso   1.00
F436   F     0.99616   0.79049   0.20595   0.00000  Uiso   1.00
H437   H     0.67149   0.76001   0.02818   0.00000  Uiso   1.00
H438   H     0.99513   0.90681   0.47185   0.00000  Uiso   1.00
H439   H     0.98871   0.73813   0.45470   0.00000  Uiso   1.00
H440   H     0.67789   0.92867   0.04534   0.00000  Uiso   1.00
N441   N     0.98173   0.84735   0.26212   0.00000  Uiso   1.00
N442   N     0.68494   0.81932   0.23788   0.00000  Uiso   1.00
O443   O     0.79482   0.90476   0.24686   0.00000  Uiso   1.00
O444   O     0.87185   0.76191   0.25314   0.00000  Uiso   1.00
O445   O     0.89496   0.91420   0.25503   0.00000  Uiso   1.00
O446   O     0.77171   0.75247   0.24498   0.00000  Uiso   1.00
O447   O     0.75518   0.82597   0.30855   0.00000  Uiso   1.00
O448   O     0.91149   0.84070   0.19146   0.00000  Uiso   1.00
O449   O     0.85532   0.83540   0.31671   0.00000  Uiso   1.00
O450   O     0.81134   0.83126   0.18329   0.00000  Uiso   1.00
C451   C     0.18163   0.26660   0.75132   0.00000  Uiso   1.00
C452   C     0.20559   0.17219   0.66691   0.00000  Uiso   1.00
C453   C     0.10354   0.15047   0.88035   0.00000  Uiso   1.00
C454   C     0.22979   0.18289   0.61965   0.00000  Uiso   1.00
C455   C     0.03254   0.09936   0.94146   0.00000  Uiso   1.00
C456   C     0.30075   0.23407   0.55857   0.00000  Uiso   1.00
C457   C     0.04980   0.11060   0.89672   0.00000  Uiso   1.00
C458   C     0.28351   0.22279   0.60331   0.00000  Uiso   1.00
C459   C     0.14044   0.17620   0.90879   0.00000  Uiso   1.00
C460   C     0.19290   0.15717   0.59120   0.00000  Uiso   1.00
C461   C     0.13140   0.15670   0.95096   0.00000  Uiso   1.00
C462   C     0.15171   0.06673   0.74868   0.00000  Uiso   1.00
C463   C     0.20192   0.17670   0.54905   0.00000  Uiso   1.00
C464   C     0.07271   0.12240   0.96868   0.00000  Uiso   1.00
C465   C     0.26059   0.21103   0.53134   0.00000  Uiso   1.00
C466   C     0.17665   0.17208   0.97694   0.00000  Uiso   1.00
C467   C     0.15668   0.16132   0.52307   0.00000  Uiso   1.00
C468   C     0.09173   0.13751   0.54133   0.00000  Uiso   1.00
C469   C     0.24159   0.19591   0.95869   0.00000  Uiso   1.00
C470   C     0.05288   0.11430   0.51380   0.00000  Uiso   1.00
C471   C     0.28042   0.21916   0.98623   0.00000  Uiso   1.00
C472   C     0.19007   0.32237   0.75200   0.00000  Uiso   1.00
C473   C     0.14327   0.01096   0.74800   0.00000  Uiso   1.00
C474   C     0.12774   0.16115   0.83309   0.00000  Uiso   1.00
Cl475  Cl    0.33014   0.25981   0.63728   0.00000  Uiso   1.00
Cl476  Cl    0.00314   0.07357   0.86276   0.00000  Uiso   1.00
Cl477  Cl    0.05163   0.14385   0.59724   0.00000  Uiso   1.00
Cl478  Cl    0.28172   0.18957   0.90279   0.00000  Uiso   1.00
Cu479  Cu    0.10737   0.16108   0.74517   0.00000  Uiso   1.00
Cu480  Cu    0.22596   0.17225   0.75484   0.00000  Uiso   1.00
F481   F     0.15335   0.11010   0.60335   0.00000  Uiso   1.00
F482   F     0.17999   0.22326   0.89664   0.00000  Uiso   1.00
F483   F     0.24707   0.01803   0.75684   0.00000  Uiso   1.00
F484   F     0.08627   0.31530   0.74316   0.00000  Uiso   1.00
F485   F     0.00384   0.20951   0.79405   0.00000  Uiso   1.00
F486   F     0.32949   0.12382   0.70595   0.00000  Uiso   1.00
H487   H     0.00483   0.09335   0.52818   0.00000  Uiso   1.00
H488   H     0.32846   0.24014   0.97185   0.00000  Uiso   1.00
H489   H     0.32204   0.07146   0.95470   0.00000  Uiso   1.00
H490   H     0.01122   0.26200   0.54534   0.00000  Uiso   1.00
N491   N     0.31506   0.18068   0.76212   0.00000  Uiso   1.00
N492   N     0.01827   0.15265   0.73788   0.00000  Uiso   1.00
O493   O     0.12815   0.23809   0.74686   0.00000  Uiso   1.00
O494   O     0.20518   0.09524   0.75314   0.00000  Uiso   1.00
O495   O     0.22829   0.24753   0.75503   0.00000  Uiso   1.00
O496   O     0.10504   0.08580   0.74498   0.00000  Uiso   1.00
O497   O     0.08851   0.15930   0.80855   0.00000  Uiso   1.00
O498   O     0.24482   0.17403   0.69146   0.00000  Uiso   1.00
O499   O     0.18866   0.16874   0.81671   0.00000  Uiso   1.00
O500   O     0.14468   0.16460   0.68329   0.00000  Uiso   1.00
C501   C     0.51496   0.26660   0.75132   0.00000  Uiso   1.00
C502   C     0.53892   0.17219   0.66691   0.00000  Uiso   1.00
C503   C     0.43687   0.15047   0.88035   0.00000  Uiso   1.00
C504   C     0.56313   0.18289   0.61965   0.00000  Uiso   1.00
C505   C     0.36587   0.09936   0.94146   0.00000  Uiso   1.00
C506   C     0.63408   0.23407   0.55857   0.00000  Uiso   1.00
C507   C     0.38313   0.11060   0.89672   0.00000  Uiso   1.00
C508   C     0.61684   0.22279   0.60331   0.00000  Uiso   1.00
C509   C     0.47377   0.17620   0.90879   0.00000  Uiso   1.00
C510   C     0.52624   0.15717   0.59120   0.00000  Uiso   1.00
C511   C     0.46474   0.15670   0.95096   0.00000  Uiso   1.00
C512   C     0.48504   0.06673   0.74868   0.00000  Uiso   1.00
C513   C     0.53526   0.17670   0.54905   0.00000  Uiso   1.00
C514   C     0.40605   0.12240   0.96868   0.00000  Uiso   1.00
C515   C     0.59392   0.21103   0.53134   0.00000  Uiso   1.00
C516   C     0.50998   0.17208   0.97694   0.00000  Uiso   1.00
C517   C     0.49001   0.16132   0.52307   0.00000  Uiso   1.00
C518   C     0.42507   0.13751   0.54133   0.00000  Uiso   1.00
C519   C     0.57492   0.19591   0.95869   0.00000  Uiso   1.00
C520   C     0.38621   0.11430   0.51380   0.00000  Uiso   1.00
C521   C     0.61375   0.21916   0.98623   0.00000  Uiso   1.00
C522   C     0.52340   0.32237   0.75200   0.00000  Uiso   1.00
C523   C     0.47660   0.01096   0.74800   0.00000  Uiso   1.00
C524   C     0.46108   0.16115   0.83309   0.00000  Uiso   1.00
Cl525  Cl    0.66348   0.25981   0.63728   0.00000  Uiso   1.00
Cl526  Cl    0.33648   0.07357   0.86276   0.00000  Uiso   1.00
Cl527  Cl    0.38496   0.14385   0.59724   0.00000  Uiso   1.00
Cl528  Cl    0.61505   0.18957   0.90279   0.00000  Uiso   1.00
Cu529  Cu    0.44071   0.16108   0.74517   0.00000  Uiso   1.00
Cu530  Cu    0.55929   0.17225   0.75484   0.00000  Uiso   1.00
F531   F     0.48668   0.11010   0.60335   0.00000  Uiso   1.00
F532   F     0.51333   0.22326   0.89664   0.00000  Uiso   1.00
F533   F     0.58040   0.01803   0.75684   0.00000  Uiso   1.00
F534   F     0.41960   0.31530   0.74316   0.00000  Uiso   1.00
F535   F     0.33717   0.20951   0.79405   0.00000  Uiso   1.00
F536   F     0.66283   0.12382   0.70595   0.00000  Uiso   1.00
H537   H     0.33816   0.09335   0.52818   0.00000  Uiso   1.00
H538   H     0.66180   0.24014   0.97185   0.00000  Uiso   1.00
H539   H     0.65538   0.07146   0.95470   0.00000  Uiso   1.00
H540   H     0.34456   0.26200   0.54534   0.00000  Uiso   1.00
N541   N     0.64839   0.18068   0.76212   0.00000  Uiso   1.00
N542   N     0.35161   0.15265   0.73788   0.00000  Uiso   1.00
O543   O     0.46148   0.23809   0.74686   0.00000  Uiso   1.00
O544   O     0.53852   0.09524   0.75314   0.00000  Uiso   1.00
O545   O     0.56163   0.24753   0.75503   0.00000  Uiso   1.00
O546   O     0.43837   0.08580   0.74498   0.00000  Uiso   1.00
O547   O     0.42185   0.15930   0.80855   0.00000  Uiso   1.00
O548   O     0.57815   0.17403   0.69146   0.00000  Uiso   1.00
O549   O     0.52199   0.16874   0.81671   0.00000  Uiso   1.00
O550   O     0.47801   0.16460   0.68329   0.00000  Uiso   1.00
C551   C     0.84829   0.26660   0.75132   0.00000  Uiso   1.00
C552   C     0.87226   0.17219   0.66691   0.00000  Uiso   1.00
C553   C     0.77021   0.15047   0.88035   0.00000  Uiso   1.00
C554   C     0.89646   0.18289   0.61965   0.00000  Uiso   1.00
C555   C     0.69921   0.09936   0.94146   0.00000  Uiso   1.00
C556   C     0.96742   0.23407   0.55857   0.00000  Uiso   1.00
C557   C     0.71647   0.11060   0.89672   0.00000  Uiso   1.00
C558   C     0.95017   0.22279   0.60331   0.00000  Uiso   1.00
C559   C     0.80710   0.17620   0.90879   0.00000  Uiso   1.00
C560   C     0.85957   0.15717   0.59120   0.00000  Uiso   1.00
C561   C     0.79807   0.15670   0.95096   0.00000  Uiso   1.00
C562   C     0.81837   0.06673   0.74868   0.00000  Uiso   1.00
C563   C     0.86859   0.17670   0.54905   0.00000  Uiso   1.00
C564   C     0.73938   0.12240   0.96868   0.00000  Uiso   1.00
C565   C     0.92726   0.21103   0.53134   0.00000  Uiso   1.00
C566   C     0.84331   0.17208   0.97694   0.00000  Uiso   1.00
C567   C     0.82335   0.16132   0.52307   0.00000  Uiso   1.00
C568   C     0.75840   0.13751   0.54133   0.00000  Uiso   1.00
C569   C     0.90826   0.19591   0.95869   0.00000  Uiso   1.00
C570   C     0.71955   0.11430   0.51380   0.00000  Uiso   1.00
C571   C     0.94709   0.21916   0.98623   0.00000  Uiso   1.00
C572   C     0.85673   0.32237   0.75200   0.00000  Uiso   1.00
C573   C     0.80993   0.01096   0.74800   0.00000  Uiso   1.00
C574   C     0.79441   0.16115   0.83309   0.00000  Uiso   1.00
Cl575  Cl    0.99681   0.25981   0.63728   0.00000  Uiso   1.00
Cl576  Cl    0.66981   0.07357   0.86276   0.00000  Uiso   1.00
Cl577  Cl    0.71830   0.14385   0.59724   0.00000  Uiso   1.00
Cl578  Cl    0.94839   0.18957   0.90279   0.00000  Uiso   1.00
Cu579  Cu    0.77404   0.16108   0.74517   0.00000  Uiso   1.00
Cu580  Cu    0.89263   0.17225   0.75484   0.00000  Uiso   1.00
F581   F     0.82001   0.11010   0.60335   0.00000  Uiso   1.00
F582   F     0.84666   0.22326   0.89664   0.00000  Uiso   1.00
F583   F     0.91373   0.01803   0.75684   0.00000  Uiso   1.00
F584   F     0.75293   0.31530   0.74316   0.00000  Uiso   1.00
F585   F     0.67051   0.20951   0.79405   0.00000  Uiso   1.00
F586   F     0.99616   0.12382   0.70595   0.00000  Uiso   1.00
H587   H     0.67149   0.09335   0.52818   0.00000  Uiso   1.00
H588   H     0.99513   0.24014   0.97185   0.00000  Uiso   1.00
H589   H     0.98871   0.07146   0.95470   0.00000  Uiso   1.00
H590   H     0.67789   0.26200   0.54534   0.00000  Uiso   1.00
N591   N     0.98173   0.18068   0.76212   0.00000  Uiso   1.00
N592   N     0.68494   0.15265   0.73788   0.00000  Uiso   1.00
O593   O     0.79482   0.23809   0.74686   0.00000  Uiso   1.00
O594   O     0.87185   0.09524   0.75314   0.00000  Uiso   1.00
O595   O     0.89496   0.24753   0.75503   0.00000  Uiso   1.00
O596   O     0.77171   0.08580   0.74498   0.00000  Uiso   1.00
O597   O     0.75518   0.15930   0.80855   0.00000  Uiso   1.00
O598   O     0.91149   0.17403   0.69146   0.00000  Uiso   1.00
O599   O     0.85532   0.16874   0.81671   0.00000  Uiso   1.00
O600   O     0.81134   0.16460   0.68329   0.00000  Uiso   1.00
C601   C     0.18163   0.59993   0.75132   0.00000  Uiso   1.00
C602   C     0.20559   0.50552   0.66691   0.00000  Uiso   1.00
C603   C     0.10354   0.48380   0.88035   0.00000  Uiso   1.00
C604   C     0.22979   0.51622   0.61965   0.00000  Uiso   1.00
C605   C     0.03254   0.43270   0.94146   0.00000  Uiso   1.00
C606   C     0.30075   0.56740   0.55857   0.00000  Uiso   1.00
C607   C     0.04980   0.44393   0.89672   0.00000  Uiso   1.00
C608   C     0.28351   0.55612   0.60331   0.00000  Uiso   1.00
C609   C     0.14044   0.50953   0.90879   0.00000  Uiso   1.00
C610   C     0.19290   0.49051   0.59120   0.00000  Uiso   1.00
C611   C     0.13140   0.49003   0.95096   0.00000  Uiso   1.00
C612   C     0.15171   0.40007   0.74868   0.00000  Uiso   1.00
C613   C     0.20192   0.51003   0.54905   0.00000  Uiso   1.00
C614   C     0.07271   0.45574   0.96868   0.00000  Uiso   1.00
C615   C     0.26059   0.54436   0.53134   0.00000  Uiso   1.00
C616   C     0.17665   0.50542   0.97694   0.00000  Uiso   1.00
C617   C     0.15668   0.49465   0.52307   0.00000  Uiso   1.00
C618   C     0.09173   0.47085   0.54133   0.00000  Uiso   1.00
C619   C     0.24159   0.52925   0.95869   0.00000  Uiso   1.00
C620   C     0.05288   0.44763   0.51380   0.00000  Uiso   1.00
C621   C     0.28042   0.55249   0.98623   0.00000  Uiso   1.00
C622   C     0.19007   0.65571   0.75200   0.00000  Uiso   1.00
C623   C     0.14327   0.34429   0.74800   0.00000  Uiso   1.00
C624   C     0.12774   0.49448   0.83309   0.00000  Uiso   1.00
Cl625  Cl    0.33014   0.59315   0.63728   0.00000  Uiso   1.00
Cl626  Cl    0.00314   0.40690   0.86276   0.00000  Uiso   1.00
Cl627  Cl    0.05163   0.47719   0.59724   0.00000  Uiso   1.00
Cl628  Cl    0.28172   0.52290   0.90279   0.00000  Uiso   1.00
Cu629  Cu    0.10737   0.49441   0.74517   0.00000  Uiso   1.00
Cu630  Cu    0.22596   0.50559   0.75484   0.00000  Uiso   1.00
F631   F     0.15335   0.44344   0.60335   0.00000  Uiso   1.00
F632   F     0.17999   0.55659   0.89664   0.00000  Uiso   1.00
F633   F     0.24707   0.35136   0.75684   0.00000  Uiso   1.00
F634   F     0.08627   0.64864   0.74316   0.00000  Uiso   1.00
F635   F     0.00384   0.54284   0.79405   0.00000  Uiso   1.00
F636   F     0.32949   0.45715   0.70595   0.00000  Uiso   1.00
H637   H     0.00483   0.42668   0.52818   0.00000  Uiso   1.00
H638   H     0.32846   0.57347   0.97185   0.00000  Uiso   1.00
H639   H     0.32204   0.40480   0.95470   0.00000  Uiso   1.00
H640   H     0.01122   0.59534   0.54534   0.00000  Uiso   1.00
N641   N     0.31506   0.51401   0.76212   0.00000  Uiso   1.00
N642   N     0.01827   0.48599   0.73788   0.00000  Uiso   1.00
O643   O     0.12815   0.57142   0.74686   0.00000  Uiso   1.00
O644   O     0.20518   0.42858   0.75314   0.00000  Uiso   1.00
O645   O     0.22829   0.58086   0.75503   0.00000  Uiso   1.00
O646   O     0.10504   0.41914   0.74498   0.00000  Uiso   1.00
O647   O     0.08851   0.49263   0.80855   0.00000  Uiso   1.00
O648   O     0.24482   0.50737   0.69146   0.00000  Uiso   1.00
O649   O     0.18866   0.50207   0.81671   0.00000  Uiso   1.00
O650   O     0.14468   0.49793   0.68329   0.00000  Uiso   1.00
C651   C     0.51496   0.59993   0.75132   0.00000  Uiso   1.00
C652   C     0.53892   0.50552   0.66691   0.00000  Uiso   1.00
C653   C     0.43687   0.48380   0.88035   0.00000  Uiso   1.00
C654   C     0.56313   0.51622   0.61965   0.00000  Uiso   1.00
C655   C     0.36587   0.43270   0.94146   0.00000  Uiso   1.00
C656   C     0.63408   0.56740   0.55857   0.00000  Uiso   1.00
C657   C     0.38313   0.44393   0.89672   0.00000  Uiso   1.00
C658   C     0.61684   0.55612   0.60331   0.00000  Uiso   1.00
C659   C     0.47377   0.50953   0.90879   0.00000  Uiso   1.00
C660   C     0.52624   0.49051   0.59120   0.00000  Uiso   1.00
C661   C     0.46474   0.49003   0.95096   0.00000  Uiso   1.00
C662   C     0.48504   0.40007   0.74868   0.00000  Uiso   1.00
C663   C     0.53526   0.51003   0.54905   0.00000  Uiso   1.00
C664   C     0.40605   0.45574   0.96868   0.00000  Uiso   1.00
C665   C     0.59392   0.54436   0.53134   0.00000  Uiso   1.00
C666   C     0.50998   0.50542   0.97694   0.00000  Uiso   1.00
C667   C     0.49001   0.49465   0.52307   0.00000  Uiso   1.00
C668   C     0.42507   0.47085   0.54133   0.00000  Uiso   1.00
C669   C     0.57492   0.52925   0.95869   0.00000  Uiso   1.00
C670   C     0.38621   0.44763   0.51380   0.00000  Uiso   1.00
C671   C     0.61375   0.55249   0.98623   0.00000  Uiso   1.00
C672   C     0.52340   0.65571   0.75200   0.00000  Uiso   1.00
C673   C     0.47660   0.34429   0.74800   0.00000  Uiso   1.00
C674   C     0.46108   0.49448   0.83309   0.00000  Uiso   1.00
Cl675  Cl    0.66348   0.59315   0.63728   0.00000  Uiso   1.00
Cl676  Cl    0.33648   0.40690   0.86276   0.00000  Uiso   1.00
Cl677  Cl    0.38496   0.47719   0.59724   0.00000  Uiso   1.00
Cl678  Cl    0.61505   0.52290   0.90279   0.00000  Uiso   1.00
Cu679  Cu    0.44071   0.49441   0.74517   0.00000  Uiso   1.00
Cu680  Cu    0.55929   0.50559   0.75484   0.00000  Uiso   1.00
F681   F     0.48668   0.44344   0.60335   0.00000  Uiso   1.00
F682   F     0.51333   0.55659   0.89664   0.00000  Uiso   1.00
F683   F     0.58040   0.35136   0.75684   0.00000  Uiso   1.00
F684   F     0.41960   0.64864   0.74316   0.00000  Uiso   1.00
F685   F     0.33717   0.54284   0.79405   0.00000  Uiso   1.00
F686   F     0.66283   0.45715   0.70595   0.00000  Uiso   1.00
H687   H     0.33816   0.42668   0.52818   0.00000  Uiso   1.00
H688   H     0.66180   0.57347   0.97185   0.00000  Uiso   1.00
H689   H     0.65538   0.40480   0.95470   0.00000  Uiso   1.00
H690   H     0.34456   0.59534   0.54534   0.00000  Uiso   1.00
N691   N     0.64839   0.51401   0.76212   0.00000  Uiso   1.00
N692   N     0.35161   0.48599   0.73788   0.00000  Uiso   1.00
O693   O     0.46148   0.57142   0.74686   0.00000  Uiso   1.00
O694   O     0.53852   0.42858   0.75314   0.00000  Uiso   1.00
O695   O     0.56163   0.58086   0.75503   0.00000  Uiso   1.00
O696   O     0.43837   0.41914   0.74498   0.00000  Uiso   1.00
O697   O     0.42185   0.49263   0.80855   0.00000  Uiso   1.00
O698   O     0.57815   0.50737   0.69146   0.00000  Uiso   1.00
O699   O     0.52199   0.50207   0.81671   0.00000  Uiso   1.00
O700   O     0.47801   0.49793   0.68329   0.00000  Uiso   1.00
C701   C     0.84829   0.59993   0.75132   0.00000  Uiso   1.00
C702   C     0.87226   0.50552   0.66691   0.00000  Uiso   1.00
C703   C     0.77021   0.48380   0.88035   0.00000  Uiso   1.00
C704   C     0.89646   0.51622   0.61965   0.00000  Uiso   1.00
C705   C     0.69921   0.43270   0.94146   0.00000  Uiso   1.00
C706   C     0.96742   0.56740   0.55857   0.00000  Uiso   1.00
C707   C     0.71647   0.44393   0.89672   0.00000  Uiso   1.00
C708   C     0.95017   0.55612   0.60331   0.00000  Uiso   1.00
C709   C     0.80710   0.50953   0.90879   0.00000  Uiso   1.00
C710   C     0.85957   0.49051   0.59120   0.00000  Uiso   1.00
C711   C     0.79807   0.49003   0.95096   0.00000  Uiso   1.00
C712   C     0.81837   0.40007   0.74868   0.00000  Uiso   1.00
C713   C     0.86859   0.51003   0.54905   0.00000  Uiso   1.00
C714   C     0.73938   0.45574   0.96868   0.00000  Uiso   1.00
C715   C     0.92726   0.54436   0.53134   0.00000  Uiso   1.00
C716   C     0.84331   0.50542   0.97694   0.00000  Uiso   1.00
C717   C     0.82335   0.49465   0.52307   0.00000  Uiso   1.00
C718   C     0.75840   0.47085   0.54133   0.00000  Uiso   1.00
C719   C     0.90826   0.52925   0.95869   0.00000  Uiso   1.00
C720   C     0.71955   0.44763   0.51380   0.00000  Uiso   1.00
C721   C     0.94709   0.55249   0.98623   0.00000  Uiso   1.00
C722   C     0.85673   0.65571   0.75200   0.00000  Uiso   1.00
C723   C     0.80993   0.34429   0.74800   0.00000  Uiso   1.00
C724   C     0.79441   0.49448   0.83309   0.00000  Uiso   1.00
Cl725  Cl    0.99681   0.59315   0.63728   0.00000  Uiso   1.00
Cl726  Cl    0.66981   0.40690   0.86276   0.00000  Uiso   1.00
Cl727  Cl    0.71830   0.47719   0.59724   0.00000  Uiso   1.00
Cl728  Cl    0.94839   0.52290   0.90279   0.00000  Uiso   1.00
Cu729  Cu    0.77404   0.49441   0.74517   0.00000  Uiso   1.00
Cu730  Cu    0.89263   0.50559   0.75484   0.00000  Uiso   1.00
F731   F     0.82001   0.44344   0.60335   0.00000  Uiso   1.00
F732   F     0.84666   0.55659   0.89664   0.00000  Uiso   1.00
F733   F     0.91373   0.35136   0.75684   0.00000  Uiso   1.00
F734   F     0.75293   0.64864   0.74316   0.00000  Uiso   1.00
F735   F     0.67051   0.54284   0.79405   0.00000  Uiso   1.00
F736   F     0.99616   0.45715   0.70595   0.00000  Uiso   1.00
H737   H     0.67149   0.42668   0.52818   0.00000  Uiso   1.00
H738   H     0.99513   0.57347   0.97185   0.00000  Uiso   1.00
H739   H     0.98871   0.40480   0.95470   0.00000  Uiso   1.00
H740   H     0.67789   0.59534   0.54534   0.00000  Uiso   1.00
N741   N     0.98173   0.51401   0.76212   0.00000  Uiso   1.00
N742   N     0.68494   0.48599   0.73788   0.00000  Uiso   1.00
O743   O     0.79482   0.57142   0.74686   0.00000  Uiso   1.00
O744   O     0.87185   0.42858   0.75314   0.00000  Uiso   1.00
O745   O     0.89496   0.58086   0.75503   0.00000  Uiso   1.00
O746   O     0.77171   0.41914   0.74498   0.00000  Uiso   1.00
O747   O     0.75518   0.49263   0.80855   0.00000  Uiso   1.00
O748   O     0.91149   0.50737   0.69146   0.00000  Uiso   1.00
O749   O     0.85532   0.50207   0.81671   0.00000  Uiso   1.00
O750   O     0.81134   0.49793   0.68329   0.00000  Uiso   1.00
C751   C     0.18163   0.93327   0.75132   0.00000  Uiso   1.00
C752   C     0.20559   0.83885   0.66691   0.00000  Uiso   1.00
C753   C     0.10354   0.81713   0.88035   0.00000  Uiso   1.00
C754   C     0.22979   0.84956   0.61965   0.00000  Uiso   1.00
C755   C     0.03254   0.76603   0.94146   0.00000  Uiso   1.00
C756   C     0.30075   0.90074   0.55857   0.00000  Uiso   1.00
C757   C     0.04980   0.77727   0.89672   0.00000  Uiso   1.00
C758   C     0.28351   0.88946   0.60331   0.00000  Uiso   1.00
C759   C     0.14044   0.84286   0.90879   0.00000  Uiso   1.00
C760   C     0.19290   0.82384   0.59120   0.00000  Uiso   1.00
C761   C     0.13140   0.82337   0.95096   0.00000  Uiso   1.00
C762   C     0.15171   0.73340   0.74868   0.00000  Uiso   1.00
C763   C     0.20192   0.84337   0.54905   0.00000  Uiso   1.00
C764   C     0.07271   0.78907   0.96868   0.00000  Uiso   1.00
C765   C     0.26059   0.87769   0.53134   0.00000  Uiso   1.00
C766   C     0.17665   0.83875   0.97694   0.00000  Uiso   1.00
C767   C     0.15668   0.82799   0.52307   0.00000  Uiso   1.00
C768   C     0.09173   0.80418   0.54133   0.00000  Uiso   1.00
C769   C     0.24159   0.86258   0.95869   0.00000  Uiso   1.00
C770   C     0.05288   0.78097   0.51380   0.00000  Uiso   1.00
C771   C     0.28042   0.88582   0.98623   0.00000  Uiso   1.00
C772   C     0.19007   0.98904   0.75200   0.00000  Uiso   1.00
C773   C     0.14327   0.67763   0.74800   0.00000  Uiso   1.00
C774   C     0.12774   0.82782   0.83309   0.00000  Uiso   1.00
Cl775  Cl    0.33014   0.92648   0.63728   0.00000  Uiso   1.00
Cl776  Cl    0.00314   0.74024   0.86276   0.00000  Uiso   1.00
Cl777  Cl    0.05163   0.81052   0.59724   0.00000  Uiso   1.00
Cl778  Cl    0.28172   0.85624   0.90279   0.00000  Uiso   1.00
Cu779  Cu    0.10737   0.82775   0.74517   0.00000  Uiso   1.00
Cu780  Cu    0.22596   0.83892   0.75484   0.00000  Uiso   1.00
F781   F     0.15335   0.77677   0.60335   0.00000  Uiso   1.00
F782   F     0.17999   0.88993   0.89664   0.00000  Uiso   1.00
F783   F     0.24707   0.68470   0.75684   0.00000  Uiso   1.00
F784   F     0.08627   0.98197   0.74316   0.00000  Uiso   1.00
F785   F     0.00384   0.87618   0.79405   0.00000  Uiso   1.00
F786   F     0.32949   0.79049   0.70595   0.00000  Uiso   1.00
H787   H     0.00483   0.76001   0.52818   0.00000  Uiso   1.00
H788   H     0.32846   0.90681   0.97185   0.00000  Uiso   1.00
H789   H     0.32204   0.73813   0.95470   0.00000  Uiso   1.00
H790   H     0.01122   0.92867   0.54534   0.00000  Uiso   1.00
N791   N     0.31506   0.84735   0.76212   0.00000  Uiso   1.00
N792   N     0.01827   0.81932   0.73788   0.00000  Uiso   1.00
O793   O     0.12815   0.90476   0.74686   0.00000  Uiso   1.00
O794   O     0.20518   0.76191   0.75314   0.00000  Uiso   1.00
O795   O     0.22829   0.91420   0.75503   0.00000  Uiso   1.00
O796   O     0.10504   0.75247   0.74498   0.00000  Uiso   1.00
O797   O     0.08851   0.82597   0.80855   0.00000  Uiso   1.00
O798   O     0.24482   0.84070   0.69146   0.00000  Uiso   1.00
O799   O     0.18866   0.83540   0.81671   0.00000  Uiso   1.00
O800   O     0.14468   0.83126   0.68329   0.00000  Uiso   1.00
C801   C     0.51496   0.93327   0.75132   0.00000  Uiso   1.00
C802   C     0.53892   0.83885   0.66691   0.00000  Uiso   1.00
C803   C     0.43687   0.81713   0.88035   0.00000  Uiso   1.00
C804   C     0.56313   0.84956   0.61965   0.00000  Uiso   1.00
C805   C     0.36587   0.76603   0.94146   0.00000  Uiso   1.00
C806   C     0.63408   0.90074   0.55857   0.00000  Uiso   1.00
C807   C     0.38313   0.77727   0.89672   0.00000  Uiso   1.00
C808   C     0.61684   0.88946   0.60331   0.00000  Uiso   1.00
C809   C     0.47377   0.84286   0.90879   0.00000  Uiso   1.00
C810   C     0.52624   0.82384   0.59120   0.00000  Uiso   1.00
C811   C     0.46474   0.82337   0.95096   0.00000  Uiso   1.00
C812   C     0.48504   0.73340   0.74868   0.00000  Uiso   1.00
C813   C     0.53526   0.84337   0.54905   0.00000  Uiso   1.00
C814   C     0.40605   0.78907   0.96868   0.00000  Uiso   1.00
C815   C     0.59392   0.87769   0.53134   0.00000  Uiso   1.00
C816   C     0.50998   0.83875   0.97694   0.00000  Uiso   1.00
C817   C     0.49001   0.82799   0.52307   0.00000  Uiso   1.00
C818   C     0.42507   0.80418   0.54133   0.00000  Uiso   1.00
C819   C     0.57492   0.86258   0.95869   0.00000  Uiso   1.00
C820   C     0.38621   0.78097   0.51380   0.00000  Uiso   1.00
C821   C     0.61375   0.88582   0.98623   0.00000  Uiso   1.00
C822   C     0.52340   0.98904   0.75200   0.00000  Uiso   1.00
C823   C     0.47660   0.67763   0.74800   0.00000  Uiso   1.00
C824   C     0.46108   0.82782   0.83309   0.00000  Uiso   1.00
Cl825  Cl    0.66348   0.92648   0.63728   0.00000  Uiso   1.00
Cl826  Cl    0.33648   0.74024   0.86276   0.00000  Uiso   1.00
Cl827  Cl    0.38496   0.81052   0.59724   0.00000  Uiso   1.00
Cl828  Cl    0.61505   0.85624   0.90279   0.00000  Uiso   1.00
Cu829  Cu    0.44071   0.82775   0.74517   0.00000  Uiso   1.00
Cu830  Cu    0.55929   0.83892   0.75484   0.00000  Uiso   1.00
F831   F     0.48668   0.77677   0.60335   0.00000  Uiso   1.00
F832   F     0.51333   0.88993   0.89664   0.00000  Uiso   1.00
F833   F     0.58040   0.68470   0.75684   0.00000  Uiso   1.00
F834   F     0.41960   0.98197   0.74316   0.00000  Uiso   1.00
F835   F     0.33717   0.87618   0.79405   0.00000  Uiso   1.00
F836   F     0.66283   0.79049   0.70595   0.00000  Uiso   1.00
H837   H     0.33816   0.76001   0.52818   0.00000  Uiso   1.00
H838   H     0.66180   0.90681   0.97185   0.00000  Uiso   1.00
H839   H     0.65538   0.73813   0.95470   0.00000  Uiso   1.00
H840   H     0.34456   0.92867   0.54534   0.00000  Uiso   1.00
N841   N     0.64839   0.84735   0.76212   0.00000  Uiso   1.00
N842   N     0.35161   0.81932   0.73788   0.00000  Uiso   1.00
O843   O     0.46148   0.90476   0.74686   0.00000  Uiso   1.00
O844   O     0.53852   0.76191   0.75314   0.00000  Uiso   1.00
O845   O     0.56163   0.91420   0.75503   0.00000  Uiso   1.00
O846   O     0.43837   0.75247   0.74498   0.00000  Uiso   1.00
O847   O     0.42185   0.82597   0.80855   0.00000  Uiso   1.00
O848   O     0.57815   0.84070   0.69146   0.00000  Uiso   1.00
O849   O     0.52199   0.83540   0.81671   0.00000  Uiso   1.00
O850   O     0.47801   0.83126   0.68329   0.00000  Uiso   1.00
C851   C     0.84829   0.93327   0.75132   0.00000  Uiso   1.00
C852   C     0.87226   0.83885   0.66691   0.00000  Uiso   1.00
C853   C     0.77021   0.81713   0.88035   0.00000  Uiso   1.00
C854   C     0.89646   0.84956   0.61965   0.00000  Uiso   1.00
C855   C     0.69921   0.76603   0.94146   0.00000  Uiso   1.00
C856   C     0.96742   0.90074   0.55857   0.00000  Uiso   1.00
C857   C     0.71647   0.77727   0.89672   0.00000  Uiso   1.00
C858   C     0.95017   0.88946   0.60331   0.00000  Uiso   1.00
C859   C     0.80710   0.84286   0.90879   0.00000  Uiso   1.00
C860   C     0.85957   0.82384   0.59120   0.00000  Uiso   1.00
C861   C     0.79807   0.82337   0.95096   0.00000  Uiso   1.00
C862   C     0.81837   0.73340   0.74868   0.00000  Uiso   1.00
C863   C     0.86859   0.84337   0.54905   0.00000  Uiso   1.00
C864   C     0.73938   0.78907   0.96868   0.00000  Uiso   1.00
C865   C     0.92726   0.87769   0.53134   0.00000  Uiso   1.00
C866   C     0.84331   0.83875   0.97694   0.00000  Uiso   1.00
C867   C     0.82335   0.82799   0.52307   0.00000  Uiso   1.00
C868   C     0.75840   0.80418   0.54133   0.00000  Uiso   1.00
C869   C     0.90826   0.86258   0.95869   0.00000  Uiso   1.00
C870   C     0.71955   0.78097   0.51380   0.00000  Uiso   1.00
C871   C     0.94709   0.88582   0.98623   0.00000  Uiso   1.00
C872   C     0.85673   0.98904   0.75200   0.00000  Uiso   1.00
C873   C     0.80993   0.67763   0.74800   0.00000  Uiso   1.00
C874   C     0.79441   0.82782   0.83309   0.00000  Uiso   1.00
Cl875  Cl    0.99681   0.92648   0.63728   0.00000  Uiso   1.00
Cl876  Cl    0.66981   0.74024   0.86276   0.00000  Uiso   1.00
Cl877  Cl    0.71830   0.81052   0.59724   0.00000  Uiso   1.00
Cl878  Cl    0.94839   0.85624   0.90279   0.00000  Uiso   1.00
Cu879  Cu    0.77404   0.82775   0.74517   0.00000  Uiso   1.00
Cu880  Cu    0.89263   0.83892   0.75484   0.00000  Uiso   1.00
F881   F     0.82001   0.77677   0.60335   0.00000  Uiso   1.00
F882   F     0.84666   0.88993   0.89664   0.00000  Uiso   1.00
F883   F     0.91373   0.68470   0.75684   0.00000  Uiso   1.00
F884   F     0.75293   0.98197   0.74316   0.00000  Uiso   1.00
F885   F     0.67051   0.87618   0.79405   0.00000  Uiso   1.00
F886   F     0.99616   0.79049   0.70595   0.00000  Uiso   1.00
H887   H     0.67149   0.76001   0.52818   0.00000  Uiso   1.00
H888   H     0.99513   0.90681   0.97185   0.00000  Uiso   1.00
H889   H     0.98871   0.73813   0.95470   0.00000  Uiso   1.00
H890   H     0.67789   0.92867   0.54534   0.00000  Uiso   1.00
N891   N     0.98173   0.84735   0.76212   0.00000  Uiso   1.00
N892   N     0.68494   0.81932   0.73788   0.00000  Uiso   1.00
O893   O     0.79482   0.90476   0.74686   0.00000  Uiso   1.00
O894   O     0.87185   0.76191   0.75314   0.00000  Uiso   1.00
O895   O     0.89496   0.91420   0.75503   0.00000  Uiso   1.00
O896   O     0.77171   0.75247   0.74498   0.00000  Uiso   1.00
O897   O     0.75518   0.82597   0.80855   0.00000  Uiso   1.00
O898   O     0.91149   0.84070   0.69146   0.00000  Uiso   1.00
O899   O     0.85532   0.83540   0.81671   0.00000  Uiso   1.00
O900   O     0.81134   0.83126   0.68329   0.00000  Uiso   1.00
loop_
_geom_bond_atom_site_label_1
_geom_bond_atom_site_label_2
_geom_bond_distance
_geom_bond_site_symmetry_2
_ccdc_geom_bond_type
C1     O45     1.291   .     A
C1     C22     1.429   .     S
C1     O43     1.290   .     A
C2     C4      1.469   .     S
C2     O50     1.299   .     A
C2     O48     1.301   .     A
C3     C9      1.400   .     A
C3     C7      1.410   .     A
C3     C24     1.469   .     S
C4     C8      1.410   .     A
C4     C10     1.400   .     A
C5     C14     1.402   .     A
C5     C7      1.395   .     A
C5     H139    1.084   1_455 S
C6     C8      1.395   .     A
C6     C15     1.402   .     A
C6     H90     1.084   .     S
C7     Cl26    1.763   .     S
C8     Cl25    1.763   .     S
C9     C11     1.408   .     A
C9     F32     1.359   .     S
C10    F31     1.359   .     S
C10    C13     1.408   .     A
C11    C14     1.413   .     A
C11    C16     1.428   .     A
C12    O44     1.290   .     A
C12    C23     1.429   .     S
C12    O46     1.291   .     A
C13    C17     1.428   .     A
C13    C15     1.413   .     A
C14    C470    1.389   .     S
C15    C471    1.389   1_554 S
C16    C19     1.427   .     A
C16    C467    1.432   .     S
C17    C18     1.427   .     A
C17    C466    1.432   1_554 S
C18    C20     1.390   .     A
C18    Cl27    1.766   .     S
C19    C21     1.390   .     A
C19    Cl28    1.766   .     S
C20    H37     1.085   .     S
C20    C464    1.389   1_554 S
C21    H38     1.085   .     S
C21    C465    1.389   .     S
C22    C173    1.342   .     S
C22    F183    1.364   .     S
C23    C322    1.342   1_545 S
C23    F334    1.364   1_545 S
C24    O49     1.299   .     A
C24    O47     1.301   .     A
Cu29   Cu30    2.694   .     S
Cu29   N42     2.025   .     S
Cu29   O46     1.960   .     S
Cu29   O43     1.962   .     S
Cu29   O47     1.927   .     S
Cu29   O50     1.906   .     S
Cu30   N41     2.025   .     S
Cu30   O45     1.960   .     S
Cu30   O44     1.962   .     S
Cu30   O48     1.927   .     S
Cu30   O49     1.906   .     S
F33    C322    1.364   1_545 S
F34    C173    1.364   .     S
F35    N141    1.335   1_455 S
F36    N92     1.335   .     S
H39    C55     1.084   .     S
H40    C106    1.084   1_455 S
N41    F85     1.335   .     S
N41    N92     1.284   .     S
N42    F136    1.335   1_455 S
N42    N141    1.284   1_455 S
C51    O95     1.291   .     A
C51    C72     1.429   .     S
C51    O93     1.290   .     A
C52    C54     1.469   .     S
C52    O100    1.299   .     A
C52    O98     1.301   .     A
C53    C59     1.400   .     A
C53    C57     1.410   .     A
C53    C74     1.469   .     S
C54    C58     1.410   .     A
C54    C60     1.400   .     A
C55    C64     1.402   .     A
C55    C57     1.395   .     A
C56    C58     1.395   .     A
C56    C65     1.402   .     A
C56    H140    1.084   .     S
C57    Cl76    1.763   .     S
C58    Cl75    1.763   .     S
C59    C61     1.408   .     A
C59    F82     1.359   .     S
C60    F81     1.359   .     S
C60    C63     1.408   .     A
C61    C64     1.413   .     A
C61    C66     1.428   .     A
C62    O94     1.290   .     A
C62    C73     1.429   .     S
C62    O96     1.291   .     A
C63    C67     1.428   .     A
C63    C65     1.413   .     A
C64    C520    1.389   .     S
C65    C521    1.389   1_554 S
C66    C69     1.427   .     A
C66    C517    1.432   .     S
C67    C68     1.427   .     A
C67    C516    1.432   1_554 S
C68    C70     1.390   .     A
C68    Cl77    1.766   .     S
C69    C71     1.390   .     A
C69    Cl78    1.766   .     S
C70    H87     1.085   .     S
C70    C514    1.389   1_554 S
C71    H88     1.085   .     S
C71    C515    1.389   .     S
C72    C223    1.342   .     S
C72    F233    1.364   .     S
C73    C372    1.342   1_545 S
C73    F384    1.364   1_545 S
C74    O99     1.299   .     A
C74    O97     1.301   .     A
Cu79   Cu80    2.694   .     S
Cu79   N92     2.025   .     S
Cu79   O96     1.960   .     S
Cu79   O93     1.962   .     S
Cu79   O97     1.927   .     S
Cu79   O100    1.906   .     S
Cu80   N91     2.025   .     S
Cu80   O95     1.960   .     S
Cu80   O94     1.962   .     S
Cu80   O98     1.927   .     S
Cu80   O99     1.906   .     S
F83    C372    1.364   1_545 S
F84    C223    1.364   .     S
F86    N142    1.335   .     S
H89    C105    1.084   .     S
N91    F135    1.335   .     S
N91    N142    1.284   .     S
C101   O145    1.291   .     A
C101   C122    1.429   .     S
C101   O143    1.290   .     A
C102   C104    1.469   .     S
C102   O150    1.299   .     A
C102   O148    1.301   .     A
C103   C109    1.400   .     A
C103   C107    1.410   .     A
C103   C124    1.469   .     S
C104   C108    1.410   .     A
C104   C110    1.400   .     A
C105   C114    1.402   .     A
C105   C107    1.395   .     A
C106   C108    1.395   .     A
C106   C115    1.402   .     A
C106   H40     1.084   1_655 S
C107   Cl126   1.763   .     S
C108   Cl125   1.763   .     S
C109   C111    1.408   .     A
C109   F132    1.359   .     S
C110   F131    1.359   .     S
C110   C113    1.408   .     A
C111   C114    1.413   .     A
C111   C116    1.428   .     A
C112   O144    1.290   .     A
C112   C123    1.429   .     S
C112   O146    1.291   .     A
C113   C117    1.428   .     A
C113   C115    1.413   .     A
C114   C570    1.389   .     S
C115   C571    1.389   1_554 S
C116   C119    1.427   .     A
C116   C567    1.432   .     S
C117   C118    1.427   .     A
C117   C566    1.432   1_554 S
C118   C120    1.390   .     A
C118   Cl127   1.766   .     S
C119   C121    1.390   .     A
C119   Cl128   1.766   .     S
C120   H137    1.085   .     S
C120   C564    1.389   1_554 S
C121   H138    1.085   .     S
C121   C565    1.389   .     S
C122   C273    1.342   .     S
C122   F283    1.364   .     S
C123   C422    1.342   1_545 S
C123   F434    1.364   1_545 S
C124   O149    1.299   .     A
C124   O147    1.301   .     A
Cu129  Cu130   2.694   .     S
Cu129  N142    2.025   .     S
Cu129  O146    1.960   .     S
Cu129  O143    1.962   .     S
Cu129  O147    1.927   .     S
Cu129  O150    1.906   .     S
Cu130  N141    2.025   .     S
Cu130  O145    1.960   .     S
Cu130  O144    1.962   .     S
Cu130  O148    1.927   .     S
Cu130  O149    1.906   .     S
F133   C422    1.364   1_545 S
F134   C273    1.364   .     S
F136   N42     1.335   1_655 S
H139   C5      1.084   1_655 S
N141   F35     1.335   1_655 S
N141   N42     1.284   1_655 S
C151   O195    1.291   .     A
C151   C172    1.429   .     S
C151   O193    1.290   .     A
C152   C154    1.469   .     S
C152   O200    1.299   .     A
C152   O198    1.301   .     A
C153   C159    1.400   .     A
C153   C157    1.410   .     A
C153   C174    1.469   .     S
C154   C158    1.410   .     A
C154   C160    1.400   .     A
C155   C164    1.402   .     A
C155   C157    1.395   .     A
C155   H289    1.084   1_455 S
C156   C158    1.395   .     A
C156   C165    1.402   .     A
C156   H240    1.084   .     S
C157   Cl176   1.763   .     S
C158   Cl175   1.763   .     S
C159   C161    1.408   .     A
C159   F182    1.359   .     S
C160   F181    1.359   .     S
C160   C163    1.408   .     A
C161   C164    1.413   .     A
C161   C166    1.428   .     A
C162   O194    1.290   .     A
C162   C173    1.429   .     S
C162   O196    1.291   .     A
C163   C167    1.428   .     A
C163   C165    1.413   .     A
C164   C620    1.389   .     S
C165   C621    1.389   1_554 S
C166   C169    1.427   .     A
C166   C617    1.432   .     S
C167   C168    1.427   .     A
C167   C616    1.432   1_554 S
C168   C170    1.390   .     A
C168   Cl177   1.766   .     S
C169   C171    1.390   .     A
C169   Cl178   1.766   .     S
C170   H187    1.085   .     S
C170   C614    1.389   1_554 S
C171   H188    1.085   .     S
C171   C615    1.389   .     S
C172   C323    1.342   .     S
C172   F333    1.364   .     S
C174   O199    1.299   .     A
C174   O197    1.301   .     A
Cu179  Cu180   2.694   .     S
Cu179  N192    2.025   .     S
Cu179  O196    1.960   .     S
Cu179  O193    1.962   .     S
Cu179  O197    1.927   .     S
Cu179  O200    1.906   .     S
Cu180  N191    2.025   .     S
Cu180  O195    1.960   .     S
Cu180  O194    1.962   .     S
Cu180  O198    1.927   .     S
Cu180  O199    1.906   .     S
F184   C323    1.364   .     S
F185   N291    1.335   1_455 S
F186   N242    1.335   .     S
H189   C205    1.084   .     S
H190   C256    1.084   1_455 S
N191   F235    1.335   .     S
N191   N242    1.284   .     S
N192   F286    1.335   1_455 S
N192   N291    1.284   1_455 S
C201   O245    1.291   .     A
C201   C222    1.429   .     S
C201   O243    1.290   .     A
C202   C204    1.469   .     S
C202   O250    1.299   .     A
C202   O248    1.301   .     A
C203   C209    1.400   .     A
C203   C207    1.410   .     A
C203   C224    1.469   .     S
C204   C208    1.410   .     A
C204   C210    1.400   .     A
C205   C214    1.402   .     A
C205   C207    1.395   .     A
C206   C208    1.395   .     A
C206   C215    1.402   .     A
C206   H290    1.084   .     S
C207   Cl226   1.763   .     S
C208   Cl225   1.763   .     S
C209   C211    1.408   .     A
C209   F232    1.359   .     S
C210   F231    1.359   .     S
C210   C213    1.408   .     A
C211   C214    1.413   .     A
C211   C216    1.428   .     A
C212   O244    1.290   .     A
C212   C223    1.429   .     S
C212   O246    1.291   .     A
C213   C217    1.428   .     A
C213   C215    1.413   .     A
C214   C670    1.389   .     S
C215   C671    1.389   1_554 S
C216   C219    1.427   .     A
C216   C667    1.432   .     S
C217   C218    1.427   .     A
C217   C666    1.432   1_554 S
C218   C220    1.390   .     A
C218   Cl227   1.766   .     S
C219   C221    1.390   .     A
C219   Cl228   1.766   .     S
C220   H237    1.085   .     S
C220   C664    1.389   1_554 S
C221   H238    1.085   .     S
C221   C665    1.389   .     S
C222   C373    1.342   .     S
C222   F383    1.364   .     S
C224   O249    1.299   .     A
C224   O247    1.301   .     A
Cu229  Cu230   2.694   .     S
Cu229  N242    2.025   .     S
Cu229  O246    1.960   .     S
Cu229  O243    1.962   .     S
Cu229  O247    1.927   .     S
Cu229  O250    1.906   .     S
Cu230  N241    2.025   .     S
Cu230  O245    1.960   .     S
Cu230  O244    1.962   .     S
Cu230  O248    1.927   .     S
Cu230  O249    1.906   .     S
F234   C373    1.364   .     S
F236   N292    1.335   .     S
H239   C255    1.084   .     S
N241   F285    1.335   .     S
N241   N292    1.284   .     S
C251   O295    1.291   .     A
C251   C272    1.429   .     S
C251   O293    1.290   .     A
C252   C254    1.469   .     S
C252   O300    1.299   .     A
C252   O298    1.301   .     A
C253   C259    1.400   .     A
C253   C257    1.410   .     A
C253   C274    1.469   .     S
C254   C258    1.410   .     A
C254   C260    1.400   .     A
C255   C264    1.402   .     A
C255   C257    1.395   .     A
C256   C258    1.395   .     A
C256   C265    1.402   .     A
C256   H190    1.084   1_655 S
C257   Cl276   1.763   .     S
C258   Cl275   1.763   .     S
C259   C261    1.408   .     A
C259   F282    1.359   .     S
C260   F281    1.359   .     S
C260   C263    1.408   .     A
C261   C264    1.413   .     A
C261   C266    1.428   .     A
C262   O294    1.290   .     A
C262   C273    1.429   .     S
C262   O296    1.291   .     A
C263   C267    1.428   .     A
C263   C265    1.413   .     A
C264   C720    1.389   .     S
C265   C721    1.389   1_554 S
C266   C269    1.427   .     A
C266   C717    1.432   .     S
C267   C268    1.427   .     A
C267   C716    1.432   1_554 S
C268   C270    1.390   .     A
C268   Cl277   1.766   .     S
C269   C271    1.390   .     A
C269   Cl278   1.766   .     S
C270   H287    1.085   .     S
C270   C714    1.389   1_554 S
C271   H288    1.085   .     S
C271   C715    1.389   .     S
C272   C423    1.342   .     S
C272   F433    1.364   .     S
C274   O299    1.299   .     A
C274   O297    1.301   .     A
Cu279  Cu280   2.694   .     S
Cu279  N292    2.025   .     S
Cu279  O296    1.960   .     S
Cu279  O293    1.962   .     S
Cu279  O297    1.927   .     S
Cu279  O300    1.906   .     S
Cu280  N291    2.025   .     S
Cu280  O295    1.960   .     S
Cu280  O294    1.962   .     S
Cu280  O298    1.927   .     S
Cu280  O299    1.906   .     S
F284   C423    1.364   .     S
F286   N192    1.335   1_655 S
H289   C155    1.084   1_655 S
N291   F185    1.335   1_655 S
N291   N192    1.284   1_655 S
C301   O345    1.291   .     A
C301   C322    1.429   .     S
C301   O343    1.290   .     A
C302   C304    1.469   .     S
C302   O350    1.299   .     A
C302   O348    1.301   .     A
C303   C309    1.400   .     A
C303   C307    1.410   .     A
C303   C324    1.469   .     S
C304   C308    1.410   .     A
C304   C310    1.400   .     A
C305   C314    1.402   .     A
C305   C307    1.395   .     A
C305   H439    1.084   1_455 S
C306   C308    1.395   .     A
C306   C315    1.402   .     A
C306   H390    1.084   .     S
C307   Cl326   1.763   .     S
C308   Cl325   1.763   .     S
C309   C311    1.408   .     A
C309   F332    1.359   .     S
C310   F331    1.359   .     S
C310   C313    1.408   .     A
C311   C314    1.413   .     A
C311   C316    1.428   .     A
C312   O344    1.290   .     A
C312   C323    1.429   .     S
C312   O346    1.291   .     A
C313   C317    1.428   .     A
C313   C315    1.413   .     A
C314   C770    1.389   .     S
C315   C771    1.389   1_554 S
C316   C319    1.427   .     A
C316   C767    1.432   .     S
C317   C318    1.427   .     A
C317   C766    1.432   1_554 S
C318   C320    1.390   .     A
C318   Cl327   1.766   .     S
C319   C321    1.390   .     A
C319   Cl328   1.766   .     S
C320   H337    1.085   .     S
C320   C764    1.389   1_554 S
C321   H338    1.085   .     S
C321   C765    1.389   .     S
C322   C23     1.342   1_565 S
C322   F33     1.364   1_565 S
C324   O349    1.299   .     A
C324   O347    1.301   .     A
Cu329  Cu330   2.694   .     S
Cu329  N342    2.025   .     S
Cu329  O346    1.960   .     S
Cu329  O343    1.962   .     S
Cu329  O347    1.927   .     S
Cu329  O350    1.906   .     S
Cu330  N341    2.025   .     S
Cu330  O345    1.960   .     S
Cu330  O344    1.962   .     S
Cu330  O348    1.927   .     S
Cu330  O349    1.906   .     S
F334   C23     1.364   1_565 S
F335   N441    1.335   1_455 S
F336   N392    1.335   .     S
H339   C355    1.084   .     S
H340   C406    1.084   1_455 S
N341   F385    1.335   .     S
N341   N392    1.284   .     S
N342   F436    1.335   1_455 S
N342   N441    1.284   1_455 S
C351   O395    1.291   .     A
C351   C372    1.429   .     S
C351   O393    1.290   .     A
C352   C354    1.469   .     S
C352   O400    1.299   .     A
C352   O398    1.301   .     A
C353   C359    1.400   .     A
C353   C357    1.410   .     A
C353   C374    1.469   .     S
C354   C358    1.410   .     A
C354   C360    1.400   .     A
C355   C364    1.402   .     A
C355   C357    1.395   .     A
C356   C358    1.395   .     A
C356   C365    1.402   .     A
C356   H440    1.084   .     S
C357   Cl376   1.763   .     S
C358   Cl375   1.763   .     S
C359   C361    1.408   .     A
C359   F382    1.359   .     S
C360   F381    1.359   .     S
C360   C363    1.408   .     A
C361   C364    1.413   .     A
C361   C366    1.428   .     A
C362   O394    1.290   .     A
C362   C373    1.429   .     S
C362   O396    1.291   .     A
C363   C367    1.428   .     A
C363   C365    1.413   .     A
C364   C820    1.389   .     S
C365   C821    1.389   1_554 S
C366   C369    1.427   .     A
C366   C817    1.432   .     S
C367   C368    1.427   .     A
C367   C816    1.432   1_554 S
C368   C370    1.390   .     A
C368   Cl377   1.766   .     S
C369   C371    1.390   .     A
C369   Cl378   1.766   .     S
C370   H387    1.085   .     S
C370   C814    1.389   1_554 S
C371   H388    1.085   .     S
C371   C815    1.389   .     S
C372   C73     1.342   1_565 S
C372   F83     1.364   1_565 S
C374   O399    1.299   .     A
C374   O397    1.301   .     A
Cu379  Cu380   2.694   .     S
Cu379  N392    2.025   .     S
Cu379  O396    1.960   .     S
Cu379  O393    1.962   .     S
Cu379  O397    1.927   .     S
Cu379  O400    1.906   .     S
Cu380  N391    2.025   .     S
Cu380  O395    1.960   .     S
Cu380  O394    1.962   .     S
Cu380  O398    1.927   .     S
Cu380  O399    1.906   .     S
F384   C73     1.364   1_565 S
F386   N442    1.335   .     S
H389   C405    1.084   .     S
N391   F435    1.335   .     S
N391   N442    1.284   .     S
C401   O445    1.291   .     A
C401   C422    1.429   .     S
C401   O443    1.290   .     A
C402   C404    1.469   .     S
C402   O450    1.299   .     A
C402   O448    1.301   .     A
C403   C409    1.400   .     A
C403   C407    1.410   .     A
C403   C424    1.469   .     S
C404   C408    1.410   .     A
C404   C410    1.400   .     A
C405   C414    1.402   .     A
C405   C407    1.395   .     A
C406   C408    1.395   .     A
C406   C415    1.402   .     A
C406   H340    1.084   1_655 S
C407   Cl426   1.763   .     S
C408   Cl425   1.763   .     S
C409   C411    1.408   .     A
C409   F432    1.359   .     S
C410   F431    1.359   .     S
C410   C413    1.408   .     A
C411   C414    1.413   .     A
C411   C416    1.428   .     A
C412   O444    1.290   .     A
C412   C423    1.429   .     S
C412   O446    1.291   .     A
C413   C417    1.428   .     A
C413   C415    1.413   .     A
C414   C870    1.389   .     S
C415   C871    1.389   1_554 S
C416   C419    1.427   .     A
C416   C867    1.432   .     S
C417   C418    1.427   .     A
C417   C866    1.432   1_554 S
C418   C420    1.390   .     A
C418   Cl427   1.766   .     S
C419   C421    1.390   .     A
C419   Cl428   1.766   .     S
C420   H437    1.085   .     S
C420   C864    1.389   1_554 S
C421   H438    1.085   .     S
C421   C865    1.389   .     S
C422   C123    1.342   1_565 S
C422   F133    1.364   1_565 S
C424   O449    1.299   .     A
C424   O447    1.301   .     A
Cu429  Cu430   2.694   .     S
Cu429  N442    2.025   .     S
Cu429  O446    1.960   .     S
Cu429  O443    1.962   .     S
Cu429  O447    1.927   .     S
Cu429  O450    1.906   .     S
Cu430  N441    2.025   .     S
Cu430  O445    1.960   .     S
Cu430  O444    1.962   .     S
Cu430  O448    1.927   .     S
Cu430  O449    1.906   .     S
F434   C123    1.364   1_565 S
F436   N342    1.335   1_655 S
H439   C305    1.084   1_655 S
N441   F335    1.335   1_655 S
N441   N342    1.284   1_655 S
C451   O495    1.291   .     A
C451   C472    1.429   .     S
C451   O493    1.290   .     A
C452   C454    1.469   .     S
C452   O500    1.299   .     A
C452   O498    1.301   .     A
C453   C459    1.400   .     A
C453   C457    1.410   .     A
C453   C474    1.469   .     S
C454   C458    1.410   .     A
C454   C460    1.400   .     A
C455   C464    1.402   .     A
C455   C457    1.395   .     A
C455   H589    1.084   1_455 S
C456   C458    1.395   .     A
C456   C465    1.402   .     A
C456   H540    1.084   .     S
C457   Cl476   1.763   .     S
C458   Cl475   1.763   .     S
C459   C461    1.408   .     A
C459   F482    1.359   .     S
C460   F481    1.359   .     S
C460   C463    1.408   .     A
C461   C464    1.413   .     A
C461   C466    1.428   .     A
C462   O494    1.290   .     A
C462   C473    1.429   .     S
C462   O496    1.291   .     A
C463   C467    1.428   .     A
C463   C465    1.413   .     A
C464   C20     1.389   1_556 S
C466   C469    1.427   .     A
C466   C17     1.432   1_556 S
C467   C468    1.427   .     A
C468   C470    1.390   .     A
C468   Cl477   1.766   .     S
C469   C471    1.390   .     A
C469   Cl478   1.766   .     S
C470   H487    1.085   .     S
C471   H488    1.085   .     S
C471   C15     1.389   1_556 S
C472   C623    1.342   .     S
C472   F633    1.364   .     S
C473   C772    1.342   1_545 S
C473   F784    1.364   1_545 S
C474   O499    1.299   .     A
C474   O497    1.301   .     A
Cu479  Cu480   2.694   .     S
Cu479  N492    2.025   .     S
Cu479  O496    1.960   .     S
Cu479  O493    1.962   .     S
Cu479  O497    1.927   .     S
Cu479  O500    1.906   .     S
Cu480  N491    2.025   .     S
Cu480  O495    1.960   .     S
Cu480  O494    1.962   .     S
Cu480  O498    1.927   .     S
Cu480  O499    1.906   .     S
F483   C772    1.364   1_545 S
F484   C623    1.364   .     S
F485   N591    1.335   1_455 S
F486   N542    1.335   .     S
H489   C505    1.084   .     S
H490   C556    1.084   1_455 S
N491   F535    1.335   .     S
N491   N542    1.284   .     S
N492   F586    1.335   1_455 S
N492   N591    1.284   1_455 S
C501   O545    1.291   .     A
C501   C522    1.429   .     S
C501   O543    1.290   .     A
C502   C504    1.469   .     S
C502   O550    1.299   .     A
C502   O548    1.301   .     A
C503   C509    1.400   .     A
C503   C507    1.410   .     A
C503   C524    1.469   .     S
C504   C508    1.410   .     A
C504   C510    1.400   .     A
C505   C514    1.402   .     A
C505   C507    1.395   .     A
C506   C508    1.395   .     A
C506   C515    1.402   .     A
C506   H590    1.084   .     S
C507   Cl526   1.763   .     S
C508   Cl525   1.763   .     S
C509   C511    1.408   .     A
C509   F532    1.359   .     S
C510   F531    1.359   .     S
C510   C513    1.408   .     A
C511   C514    1.413   .     A
C511   C516    1.428   .     A
C512   O544    1.290   .     A
C512   C523    1.429   .     S
C512   O546    1.291   .     A
C513   C517    1.428   .     A
C513   C515    1.413   .     A
C514   C70     1.389   1_556 S
C516   C519    1.427   .     A
C516   C67     1.432   1_556 S
C517   C518    1.427   .     A
C518   C520    1.390   .     A
C518   Cl527   1.766   .     S
C519   C521    1.390   .     A
C519   Cl528   1.766   .     S
C520   H537    1.085   .     S
C521   H538    1.085   .     S
C521   C65     1.389   1_556 S
C522   C673    1.342   .     S
C522   F683    1.364   .     S
C523   C822    1.342   1_545 S
C523   F834    1.364   1_545 S
C524   O549    1.299   .     A
C524   O547    1.301   .     A
Cu529  Cu530   2.694   .     S
Cu529  N542    2.025   .     S
Cu529  O546    1.960   .     S
Cu529  O543    1.962   .     S
Cu529  O547    1.927   .     S
Cu529  O550    1.906   .     S
Cu530  N541    2.025   .     S
Cu530  O545    1.960   .     S
Cu530  O544    1.962   .     S
Cu530  O548    1.927   .     S
Cu530  O549    1.906   .     S
F533   C822    1.364   1_545 S
F534   C673    1.364   .     S
F536   N592    1.335   .     S
H539   C555    1.084   .     S
N541   F585    1.335   .     S
N541   N592    1.284   .     S
C551   O595    1.291   .     A
C551   C572    1.429   .     S
C551   O593    1.290   .     A
C552   C554    1.469   .     S
C552   O600    1.299   .     A
C552   O598    1.301   .     A
C553   C559    1.400   .     A
C553   C557    1.410   .     A
C553   C574    1.469   .     S
C554   C558    1.410   .     A
C554   C560    1.400   .     A
C555   C564    1.402   .     A
C555   C557    1.395   .     A
C556   C558    1.395   .     A
C556   C565    1.402   .     A
C556   H490    1.084   1_655 S
C557   Cl576   1.763   .     S
C558   Cl575   1.763   .     S
C559   C561    1.408   .     A
C559   F582    1.359   .     S
C560   F581    1.359   .     S
C560   C563    1.408   .     A
C561   C564    1.413   .     A
C561   C566    1.428   .     A
C562   O594    1.290   .     A
C562   C573    1.429   .     S
C562   O596    1.291   .     A
C563   C567    1.428   .     A
C563   C565    1.413   .     A
C564   C120    1.389   1_556 S
C566   C569    1.427   .     A
C566   C117    1.432   1_556 S
C567   C568    1.427   .     A
C568   C570    1.390   .     A
C568   Cl577   1.766   .     S
C569   C571    1.390   .     A
C569   Cl578   1.766   .     S
C570   H587    1.085   .     S
C571   H588    1.085   .     S
C571   C115    1.389   1_556 S
C572   C723    1.342   .     S
C572   F733    1.364   .     S
C573   C872    1.342   1_545 S
C573   F884    1.364   1_545 S
C574   O599    1.299   .     A
C574   O597    1.301   .     A
Cu579  Cu580   2.694   .     S
Cu579  N592    2.025   .     S
Cu579  O596    1.960   .     S
Cu579  O593    1.962   .     S
Cu579  O597    1.927   .     S
Cu579  O600    1.906   .     S
Cu580  N591    2.025   .     S
Cu580  O595    1.960   .     S
Cu580  O594    1.962   .     S
Cu580  O598    1.927   .     S
Cu580  O599    1.906   .     S
F583   C872    1.364   1_545 S
F584   C723    1.364   .     S
F586   N492    1.335   1_655 S
H589   C455    1.084   1_655 S
N591   F485    1.335   1_655 S
N591   N492    1.284   1_655 S
C601   O645    1.291   .     A
C601   C622    1.429   .     S
C601   O643    1.290   .     A
C602   C604    1.469   .     S
C602   O650    1.299   .     A
C602   O648    1.301   .     A
C603   C609    1.400   .     A
C603   C607    1.410   .     A
C603   C624    1.469   .     S
C604   C608    1.410   .     A
C604   C610    1.400   .     A
C605   C614    1.402   .     A
C605   C607    1.395   .     A
C605   H739    1.084   1_455 S
C606   C608    1.395   .     A
C606   C615    1.402   .     A
C606   H690    1.084   .     S
C607   Cl626   1.763   .     S
C608   Cl625   1.763   .     S
C609   C611    1.408   .     A
C609   F632    1.359   .     S
C610   F631    1.359   .     S
C610   C613    1.408   .     A
C611   C614    1.413   .     A
C611   C616    1.428   .     A
C612   O644    1.290   .     A
C612   C623    1.429   .     S
C612   O646    1.291   .     A
C613   C617    1.428   .     A
C613   C615    1.413   .     A
C614   C170    1.389   1_556 S
C616   C619    1.427   .     A
C616   C167    1.432   1_556 S
C617   C618    1.427   .     A
C618   C620    1.390   .     A
C618   Cl627   1.766   .     S
C619   C621    1.390   .     A
C619   Cl628   1.766   .     S
C620   H637    1.085   .     S
C621   H638    1.085   .     S
C621   C165    1.389   1_556 S
C622   C773    1.342   .     S
C622   F783    1.364   .     S
C624   O649    1.299   .     A
C624   O647    1.301   .     A
Cu629  Cu630   2.694   .     S
Cu629  N642    2.025   .     S
Cu629  O646    1.960   .     S
Cu629  O643    1.962   .     S
Cu629  O647    1.927   .     S
Cu629  O650    1.906   .     S
Cu630  N641    2.025   .     S
Cu630  O645    1.960   .     S
Cu630  O644    1.962   .     S
Cu630  O648    1.927   .     S
Cu630  O649    1.906   .     S
F634   C773    1.364   .     S
F635   N741    1.335   1_455 S
F636   N692    1.335   .     S
H639   C655    1.084   .     S
H640   C706    1.084   1_455 S
N641   F685    1.335   .     S
N641   N692    1.284   .     S
N642   F736    1.335   1_455 S
N642   N741    1.284   1_455 S
C651   O695    1.291   .     A
C651   C672    1.429   .     S
C651   O693    1.290   .     A
C652   C654    1.469   .     S
C652   O700    1.299   .     A
C652   O698    1.301   .     A
C653   C659    1.400   .     A
C653   C657    1.410   .     A
C653   C674    1.469   .     S
C654   C658    1.410   .     A
C654   C660    1.400   .     A
C655   C664    1.402   .     A
C655   C657    1.395   .     A
C656   C658    1.395   .     A
C656   C665    1.402   .     A
C656   H740    1.084   .     S
C657   Cl676   1.763   .     S
C658   Cl675   1.763   .     S
C659   C661    1.408   .     A
C659   F682    1.359   .     S
C660   F681    1.359   .     S
C660   C663    1.408   .     A
C661   C664    1.413   .     A
C661   C666    1.428   .     A
C662   O694    1.290   .     A
C662   C673    1.429   .     S
C662   O696    1.291   .     A
C663   C667    1.428   .     A
C663   C665    1.413   .     A
C664   C220    1.389   1_556 S
C666   C669    1.427   .     A
C666   C217    1.432   1_556 S
C667   C668    1.427   .     A
C668   C670    1.390   .     A
C668   Cl677   1.766   .     S
C669   C671    1.390   .     A
C669   Cl678   1.766   .     S
C670   H687    1.085   .     S
C671   H688    1.085   .     S
C671   C215    1.389   1_556 S
C672   C823    1.342   .     S
C672   F833    1.364   .     S
C674   O699    1.299   .     A
C674   O697    1.301   .     A
Cu679  Cu680   2.694   .     S
Cu679  N692    2.025   .     S
Cu679  O696    1.960   .     S
Cu679  O693    1.962   .     S
Cu679  O697    1.927   .     S
Cu679  O700    1.906   .     S
Cu680  N691    2.025   .     S
Cu680  O695    1.960   .     S
Cu680  O694    1.962   .     S
Cu680  O698    1.927   .     S
Cu680  O699    1.906   .     S
F684   C823    1.364   .     S
F686   N742    1.335   .     S
H689   C705    1.084   .     S
N691   F735    1.335   .     S
N691   N742    1.284   .     S
C701   O745    1.291   .     A
C701   C722    1.429   .     S
C701   O743    1.290   .     A
C702   C704    1.469   .     S
C702   O750    1.299   .     A
C702   O748    1.301   .     A
C703   C709    1.400   .     A
C703   C707    1.410   .     A
C703   C724    1.469   .     S
C704   C708    1.410   .     A
C704   C710    1.400   .     A
C705   C714    1.402   .     A
C705   C707    1.395   .     A
C706   C708    1.395   .     A
C706   C715    1.402   .     A
C706   H640    1.084   1_655 S
C707   Cl726   1.763   .     S
C708   Cl725   1.763   .     S
C709   C711    1.408   .     A
C709   F732    1.359   .     S
C710   F731    1.359   .     S
C710   C713    1.408   .     A
C711   C714    1.413   .     A
C711   C716    1.428   .     A
C712   O744    1.290   .     A
C712   C723    1.429   .     S
C712   O746    1.291   .     A
C713   C717    1.428   .     A
C713   C715    1.413   .     A
C714   C270    1.389   1_556 S
C716   C719    1.427   .     A
C716   C267    1.432   1_556 S
C717   C718    1.427   .     A
C718   C720    1.390   .     A
C718   Cl727   1.766   .     S
C719   C721    1.390   .     A
C719   Cl728   1.766   .     S
C720   H737    1.085   .     S
C721   H738    1.085   .     S
C721   C265    1.389   1_556 S
C722   C873    1.342   .     S
C722   F883    1.364   .     S
C724   O749    1.299   .     A
C724   O747    1.301   .     A
Cu729  Cu730   2.694   .     S
Cu729  N742    2.025   .     S
Cu729  O746    1.960   .     S
Cu729  O743    1.962   .     S
Cu729  O747    1.927   .     S
Cu729  O750    1.906   .     S
Cu730  N741    2.025   .     S
Cu730  O745    1.960   .     S
Cu730  O744    1.962   .     S
Cu730  O748    1.927   .     S
Cu730  O749    1.906   .     S
F734   C873    1.364   .     S
F736   N642    1.335   1_655 S
H739   C605    1.084   1_655 S
N741   F635    1.335   1_655 S
N741   N642    1.284   1_655 S
C751   O795    1.291   .     A
C751   C772    1.429   .     S
C751   O793    1.290   .     A
C752   C754    1.469   .     S
C752   O800    1.299   .     A
C752   O798    1.301   .     A
C753   C759    1.400   .     A
C753   C757    1.410   .     A
C753   C774    1.469   .     S
C754   C758    1.410   .     A
C754   C760    1.400   .     A
C755   C764    1.402   .     A
C755   C757    1.395   .     A
C755   H889    1.084   1_455 S
C756   C758    1.395   .     A
C756   C765    1.402   .     A
C756   H840    1.084   .     S
C757   Cl776   1.763   .     S
C758   Cl775   1.763   .     S
C759   C761    1.408   .     A
C759   F782    1.359   .     S
C760   F781    1.359   .     S
C760   C763    1.408   .     A
C761   C764    1.413   .     A
C761   C766    1.428   .     A
C762   O794    1.290   .     A
C762   C773    1.429   .     S
C762   O796    1.291   .     A
C763   C767    1.428   .     A
C763   C765    1.413   .     A
C764   C320    1.389   1_556 S
C766   C769    1.427   .     A
C766   C317    1.432   1_556 S
C767   C768    1.427   .     A
C768   C770    1.390   .     A
C768   Cl777   1.766   .     S
C769   C771    1.390   .     A
C769   Cl778   1.766   .     S
C770   H787    1.085   .     S
C771   H788    1.085   .     S
C771   C315    1.389   1_556 S
C772   C473    1.342   1_565 S
C772   F483    1.364   1_565 S
C774   O799    1.299   .     A
C774   O797    1.301   .     A
Cu779  Cu780   2.694   .     S
Cu779  N792    2.025   .     S
Cu779  O796    1.960   .     S
Cu779  O793    1.962   .     S
Cu779  O797    1.927   .     S
Cu779  O800    1.906   .     S
Cu780  N791    2.025   .     S
Cu780  O795    1.960   .     S
Cu780  O794    1.962   .     S
Cu780  O798    1.927   .     S
Cu780  O799    1.906   .     S
F784   C473    1.364   1_565 S
F785   N891    1.335   1_455 S
F786   N842    1.335   .     S
H789   C805    1.084   .     S
H790   C856    1.084   1_455 S
N791   F835    1.335   .     S
N791   N842    1.284   .     S
N792   F886    1.335   1_455 S
N792   N891    1.284   1_455 S
C801   O845    1.291   .     A
C801   C822    1.429   .     S
C801   O843    1.290   .     A
C802   C804    1.469   .     S
C802   O850    1.299   .     A
C802   O848    1.301   .     A
C803   C809    1.400   .     A
C803   C807    1.410   .     A
C803   C824    1.469   .     S
C804   C808    1.410   .     A
C804   C810    1.400   .     A
C805   C814    1.402   .     A
C805   C807    1.395   .     A
C806   C808    1.395   .     A
C806   C815    1.402   .     A
C806   H890    1.084   .     S
C807   Cl826   1.763   .     S
C808   Cl825   1.763   .     S
C809   C811    1.408   .     A
C809   F832    1.359   .     S
C810   F831    1.359   .     S
C810   C813    1.408   .     A
C811   C814    1.413   .     A
C811   C816    1.428   .     A
C812   O844    1.290   .     A
C812   C823    1.429   .     S
C812   O846    1.291   .     A
C813   C817    1.428   .     A
C813   C815    1.413   .     A
C814   C370    1.389   1_556 S
C816   C819    1.427   .     A
C816   C367    1.432   1_556 S
C817   C818    1.427   .     A
C818   C820    1.390   .     A
C818   Cl827   1.766   .     S
C819   C821    1.390   .     A
C819   Cl828   1.766   .     S
C820   H837    1.085   .     S
C821   H838    1.085   .     S
C821   C365    1.389   1_556 S
C822   C523    1.342   1_565 S
C822   F533    1.364   1_565 S
C824   O849    1.299   .     A
C824   O847    1.301   .     A
Cu829  Cu830   2.694   .     S
Cu829  N842    2.025   .     S
Cu829  O846    1.960   .     S
Cu829  O843    1.962   .     S
Cu829  O847    1.927   .     S
Cu829  O850    1.906   .     S
Cu830  N841    2.025   .     S
Cu830  O845    1.960   .     S
Cu830  O844    1.962   .     S
Cu830  O848    1.927   .     S
Cu830  O849    1.906   .     S
F834   C523    1.364   1_565 S
F836   N892    1.335   .     S
H839   C855    1.084   .     S
N841   F885    1.335   .     S
N841   N892    1.284   .     S
C851   O895    1.291   .     A
C851   C872    1.429   .     S
C851   O893    1.290   .     A
C852   C854    1.469   .     S
C852   O900    1.299   .     A
C852   O898    1.301   .     A
C853   C859    1.400   .     A
C853   C857    1.410   .     A
C853   C874    1.469   .     S
C854   C858    1.410   .     A
C854   C860    1.400   .     A
C855   C864    1.402   .     A
C855   C857    1.395   .     A
C856   C858    1.395   .     A
C856   C865    1.402   .     A
C856   H790    1.084   1_655 S
C857   Cl876   1.763   .     S
C858   Cl875   1.763   .     S
C859   C861    1.408   .     A
C859   F882    1.359   .     S
C860   F881    1.359   .     S
C860   C863    1.408   .     A
C861   C864    1.413   .     A
C861   C866    1.428   .     A
C862   O894    1.290   .     A
C862   C873    1.429   .     S
C862   O896    1.291   .     A
C863   C867    1.428   .     A
C863   C865    1.413   .     A
C864   C420    1.389   1_556 S
C866   C869    1.427   .     A
C866   C417    1.432   1_556 S
C867   C868    1.427   .     A
C868   C870    1.390   .     A
C868   Cl877   1.766   .     S
C869   C871    1.390   .     A
C869   Cl878   1.766   .     S
C870   H887    1.085   .     S
C871   H888    1.085   .     S
C871   C415    1.389   1_556 S
C872   C573    1.342   1_565 S
C872   F583    1.364   1_565 S
C874   O899    1.299   .     A
C874   O897    1.301   .     A
Cu879  Cu880   2.694   .     S
Cu879  N892    2.025   .     S
Cu879  O896    1.960   .     S
Cu879  O893    1.962   .     S
Cu879  O897    1.927   .     S
Cu879  O900    1.906   .     S
Cu880  N891    2.025   .     S
Cu880  O895    1.960   .     S
Cu880  O894    1.962   .     S
Cu880  O898    1.927   .     S
Cu880  O899    1.906   .     S
F884   C573    1.364   1_565 S
F886   N792    1.335   1_655 S
H889   C755    1.084   1_655 S
N891   F785    1.335   1_655 S
N891   N792    1.284   1_655 S
