data_str_m2_o1_o17_pcu_sym.61
_audit_creation_date              2020-01-03
_audit_creation_method            'Materials Studio'
_symmetry_space_group_name_H-M    'P1'
_symmetry_Int_Tables_number       1
_symmetry_cell_setting            triclinic
loop_
_symmetry_equiv_pos_as_xyz
  x,y,z
_cell_length_a                    32.9680
_cell_length_b                    28.4591
_cell_length_c                    30.0100
_cell_angle_alpha                 89.5245
_cell_angle_beta                  93.6279
_cell_angle_gamma                 89.8591
loop_
_atom_site_label
_atom_site_type_symbol
_atom_site_fract_x
_atom_site_fract_y
_atom_site_fract_z
_atom_site_U_iso_or_equiv
_atom_site_adp_type
_atom_site_occupancy
C1     C     0.08740   0.16670   0.25061   0.00000  Uiso   1.00
C2     C     0.04291   0.16700   0.25204   0.00000  Uiso   1.00
C3     C     0.14120   0.02516   0.22076   0.00000  Uiso   1.00
C4     C     0.19204   0.30815   0.27933   0.00000  Uiso   1.00
C5     C     0.19196   0.02451   0.27940   0.00000  Uiso   1.00
C6     C     0.14117   0.30880   0.22079   0.00000  Uiso   1.00
C7     C     0.16515   0.16695   0.16420   0.00000  Uiso   1.00
C8     C     0.16662   0.16656   0.33565   0.00000  Uiso   1.00
C9     C     0.19861   0.15366   0.40986   0.00000  Uiso   1.00
C10    C     0.12958   0.15161   0.09092   0.00000  Uiso   1.00
C11    C     0.16388   0.16647   0.38385   0.00000  Uiso   1.00
C12    C     0.24607   0.16667   0.25085   0.00000  Uiso   1.00
C13    C     0.16412   0.16764   0.11559   0.00000  Uiso   1.00
C14    C     0.12823   0.18194   0.40347   0.00000  Uiso   1.00
C15    C     0.19683   0.18587   0.09330   0.00000  Uiso   1.00
C16    C     0.12537   0.17278   0.45031   0.00000  Uiso   1.00
C17    C     0.19976   0.17315   0.04836   0.00000  Uiso   1.00
C18    C     0.16266   0.16540   0.47622   0.00000  Uiso   1.00
C19    C     0.16310   0.16541   0.02282   0.00000  Uiso   1.00
C20    C     0.19968   0.15819   0.45610   0.00000  Uiso   1.00
C21    C     0.12722   0.15648   0.04410   0.00000  Uiso   1.00
C22    C     0.08829   0.16728   0.47270   0.00000  Uiso   1.00
C23    C     0.09047   0.15233   0.01806   0.00000  Uiso   1.00
C24    C     0.23713   0.16486   0.02893   0.00000  Uiso   1.00
C25    C     0.10084   0.21618   0.37545   0.00000  Uiso   1.00
C26    C     0.11803   0.26642   0.37814   0.00000  Uiso   1.00
C27    C     0.09358   0.29995   0.34675   0.00000  Uiso   1.00
C28    C     0.22084   0.22699   0.11308   0.00000  Uiso   1.00
C29    C     0.19505   0.27218   0.11164   0.00000  Uiso   1.00
C30    C     0.21697   0.31169   0.13736   0.00000  Uiso   1.00
C31    C     0.04635   0.17736   0.45110   0.00000  Uiso   1.00
C32    C     0.03641   0.23012   0.45666   0.00000  Uiso   1.00
C33    C     0.33055   0.24519   0.43061   0.00000  Uiso   1.00
C34    C     0.23654   0.15413   0.48296   0.00000  Uiso   1.00
C35    C     0.27687   0.16115   0.05743   0.00000  Uiso   1.00
C36    C     0.30512   0.20237   0.04774   0.00000  Uiso   1.00
C37    C     0.33089   0.21864   0.08897   0.00000  Uiso   1.00
C38    C     0.02275   0.13059   0.27417   0.00000  Uiso   1.00
C39    C     0.31110   0.20507   0.23281   0.00000  Uiso   1.00
C40    C     0.31376   0.13039   0.27389   0.00000  Uiso   1.00
C41    C     0.02034   0.20469   0.23217   0.00000  Uiso   1.00
C42    C     0.29084   0.16701   0.25215   0.00000  Uiso   1.00
Cu43   Cu    0.16667   0.21355   0.25000   0.00000  Uiso   1.00
Cu44   Cu    0.16667   0.11978   0.25000   0.00000  Uiso   1.00
H45    H     0.22554   0.14401   0.39315   0.00000  Uiso   1.00
H46    H     0.11749   0.27950   0.41284   0.00000  Uiso   1.00
H47    H     0.15021   0.26703   0.36937   0.00000  Uiso   1.00
H48    H     0.09773   0.20473   0.34025   0.00000  Uiso   1.00
H49    H     0.06912   0.21777   0.38275   0.00000  Uiso   1.00
H50    H     0.22210   0.30182   0.17316   0.00000  Uiso   1.00
H51    H     0.24668   0.31910   0.12328   0.00000  Uiso   1.00
H52    H     0.19811   0.01077   0.13489   0.00000  Uiso   1.00
H53    H     0.18900   0.28353   0.07629   0.00000  Uiso   1.00
H54    H     0.16516   0.26637   0.12574   0.00000  Uiso   1.00
H55    H     0.23275   0.21816   0.14750   0.00000  Uiso   1.00
H56    H     0.10390   0.13989   0.10878   0.00000  Uiso   1.00
H57    H     0.24685   0.23527   0.09348   0.00000  Uiso   1.00
H58    H     0.32903   0.23082   0.39625   0.00000  Uiso   1.00
H59    H     0.30382   0.23346   0.44824   0.00000  Uiso   1.00
H60    H     0.32933   0.28413   0.42827   0.00000  Uiso   1.00
H61    H     0.03433   0.23855   0.49243   0.00000  Uiso   1.00
H62    H     0.06148   0.25250   0.44613   0.00000  Uiso   1.00
H63    H     0.04343   0.16417   0.41648   0.00000  Uiso   1.00
H64    H     0.02276   0.15638   0.46663   0.00000  Uiso   1.00
H65    H     0.31401   0.24476   0.10774   0.00000  Uiso   1.00
H66    H     0.00633   0.18874   0.11161   0.00000  Uiso   1.00
H67    H     0.12085   0.04423   0.19736   0.00000  Uiso   1.00
H68    H     0.02555   0.23603   0.07843   0.00000  Uiso   1.00
H69    H     0.32526   0.19028   0.02244   0.00000  Uiso   1.00
H70    H     0.28796   0.23311   0.03311   0.00000  Uiso   1.00
H71    H     0.27163   0.15876   0.09353   0.00000  Uiso   1.00
H72    H     0.29223   0.12743   0.05036   0.00000  Uiso   1.00
H73    H     0.04874   0.15322   0.06467   0.00000  Uiso   1.00
H74    H     0.06198   0.09903   0.04816   0.00000  Uiso   1.00
H75    H     0.28018   0.16041   0.43826   0.00000  Uiso   1.00
H76    H     0.26826   0.10449   0.45185   0.00000  Uiso   1.00
H77    H     0.05825   0.07181   0.27648   0.00000  Uiso   1.00
H78    H     0.21233   0.28907   0.30278   0.00000  Uiso   1.00
H79    H     0.06657   0.10888   0.32084   0.00000  Uiso   1.00
H80    H     0.29485   0.24866   0.18058   0.00000  Uiso   1.00
H81    H     0.29698   0.27460   0.23139   0.00000  Uiso   1.00
H82    H     0.27515   0.10740   0.31977   0.00000  Uiso   1.00
H83    H     0.27913   0.07140   0.27469   0.00000  Uiso   1.00
H84    H     0.03415   0.27405   0.22615   0.00000  Uiso   1.00
H85    H     0.03082   0.24412   0.17714   0.00000  Uiso   1.00
H86    H     0.21207   0.04304   0.30303   0.00000  Uiso   1.00
H87    H     0.12085   0.29024   0.19739   0.00000  Uiso   1.00
H88    H     0.09444   0.28807   0.31165   0.00000  Uiso   1.00
H89    H     0.06149   0.30162   0.35592   0.00000  Uiso   1.00
H90    H     0.10682   0.00241   0.34927   0.00000  Uiso   1.00
N91    N     0.16667   0.28402   0.25000   0.00000  Uiso   1.00
N92    N     0.16667   0.04931   0.25000   0.00000  Uiso   1.00
N93    N     0.05519   0.13327   0.03714   0.00000  Uiso   1.00
N94    N     0.27326   0.13824   0.46452   0.00000  Uiso   1.00
N95    N     0.04453   0.09393   0.29874   0.00000  Uiso   1.00
N96    N     0.28831   0.24427   0.21389   0.00000  Uiso   1.00
N97    N     0.29498   0.09310   0.29761   0.00000  Uiso   1.00
N98    N     0.04086   0.24237   0.21080   0.00000  Uiso   1.00
O99    O     0.10655   0.20625   0.25000   0.00000  Uiso   1.00
O100   O     0.22679   0.12709   0.25001   0.00000  Uiso   1.00
O101   O     0.22679   0.20625   0.25001   0.00000  Uiso   1.00
O102   O     0.10655   0.12709   0.25000   0.00000  Uiso   1.00
O103   O     0.16666   0.20627   0.18513   0.00000  Uiso   1.00
O104   O     0.16668   0.12707   0.31487   0.00000  Uiso   1.00
O105   O     0.16668   0.20627   0.31487   0.00000  Uiso   1.00
O106   O     0.16666   0.12707   0.18513   0.00000  Uiso   1.00
C107   C     0.42073   0.16670   0.25061   0.00000  Uiso   1.00
C108   C     0.37624   0.16700   0.25204   0.00000  Uiso   1.00
C109   C     0.47453   0.02516   0.22076   0.00000  Uiso   1.00
C110   C     0.52537   0.30815   0.27933   0.00000  Uiso   1.00
C111   C     0.52530   0.02451   0.27940   0.00000  Uiso   1.00
C112   C     0.47450   0.30880   0.22079   0.00000  Uiso   1.00
C113   C     0.49848   0.16695   0.16420   0.00000  Uiso   1.00
C114   C     0.49996   0.16656   0.33565   0.00000  Uiso   1.00
C115   C     0.53195   0.15366   0.40986   0.00000  Uiso   1.00
C116   C     0.46291   0.15161   0.09092   0.00000  Uiso   1.00
C117   C     0.49721   0.16647   0.38385   0.00000  Uiso   1.00
C118   C     0.57941   0.16667   0.25085   0.00000  Uiso   1.00
C119   C     0.49745   0.16764   0.11559   0.00000  Uiso   1.00
C120   C     0.46156   0.18194   0.40347   0.00000  Uiso   1.00
C121   C     0.53016   0.18587   0.09330   0.00000  Uiso   1.00
C122   C     0.45870   0.17278   0.45031   0.00000  Uiso   1.00
C123   C     0.53310   0.17315   0.04836   0.00000  Uiso   1.00
C124   C     0.49599   0.16540   0.47622   0.00000  Uiso   1.00
C125   C     0.49644   0.16541   0.02282   0.00000  Uiso   1.00
C126   C     0.53301   0.15819   0.45610   0.00000  Uiso   1.00
C127   C     0.46056   0.15648   0.04410   0.00000  Uiso   1.00
C128   C     0.42162   0.16728   0.47270   0.00000  Uiso   1.00
C129   C     0.42380   0.15233   0.01806   0.00000  Uiso   1.00
C130   C     0.57047   0.16486   0.02893   0.00000  Uiso   1.00
C131   C     0.43417   0.21618   0.37545   0.00000  Uiso   1.00
C132   C     0.45136   0.26642   0.37814   0.00000  Uiso   1.00
C133   C     0.42691   0.29995   0.34675   0.00000  Uiso   1.00
C134   C     0.55418   0.22699   0.11308   0.00000  Uiso   1.00
C135   C     0.52839   0.27218   0.11164   0.00000  Uiso   1.00
C136   C     0.55031   0.31169   0.13736   0.00000  Uiso   1.00
C137   C     0.37968   0.17736   0.45110   0.00000  Uiso   1.00
C138   C     0.36974   0.23012   0.45666   0.00000  Uiso   1.00
C139   C     0.66388   0.24519   0.43061   0.00000  Uiso   1.00
C140   C     0.56987   0.15413   0.48296   0.00000  Uiso   1.00
C141   C     0.61020   0.16115   0.05743   0.00000  Uiso   1.00
C142   C     0.63846   0.20237   0.04774   0.00000  Uiso   1.00
C143   C     0.66422   0.21864   0.08897   0.00000  Uiso   1.00
C144   C     0.35608   0.13059   0.27417   0.00000  Uiso   1.00
C145   C     0.64443   0.20507   0.23281   0.00000  Uiso   1.00
C146   C     0.64709   0.13039   0.27389   0.00000  Uiso   1.00
C147   C     0.35367   0.20469   0.23217   0.00000  Uiso   1.00
C148   C     0.62417   0.16701   0.25215   0.00000  Uiso   1.00
Cu149  Cu    0.50000   0.21355   0.25000   0.00000  Uiso   1.00
Cu150  Cu    0.50000   0.11978   0.25000   0.00000  Uiso   1.00
H151   H     0.55887   0.14401   0.39315   0.00000  Uiso   1.00
H152   H     0.45083   0.27950   0.41284   0.00000  Uiso   1.00
H153   H     0.48354   0.26703   0.36937   0.00000  Uiso   1.00
H154   H     0.43107   0.20473   0.34025   0.00000  Uiso   1.00
H155   H     0.40245   0.21777   0.38275   0.00000  Uiso   1.00
H156   H     0.55544   0.30182   0.17316   0.00000  Uiso   1.00
H157   H     0.58001   0.31910   0.12328   0.00000  Uiso   1.00
H158   H     0.53144   0.01077   0.13489   0.00000  Uiso   1.00
H159   H     0.52234   0.28353   0.07629   0.00000  Uiso   1.00
H160   H     0.49850   0.26637   0.12574   0.00000  Uiso   1.00
H161   H     0.56608   0.21816   0.14750   0.00000  Uiso   1.00
H162   H     0.43723   0.13989   0.10878   0.00000  Uiso   1.00
H163   H     0.58018   0.23527   0.09348   0.00000  Uiso   1.00
H164   H     0.66236   0.23082   0.39625   0.00000  Uiso   1.00
H165   H     0.63715   0.23346   0.44824   0.00000  Uiso   1.00
H166   H     0.66266   0.28413   0.42827   0.00000  Uiso   1.00
H167   H     0.36767   0.23855   0.49243   0.00000  Uiso   1.00
H168   H     0.39481   0.25250   0.44613   0.00000  Uiso   1.00
H169   H     0.37676   0.16417   0.41648   0.00000  Uiso   1.00
H170   H     0.35609   0.15638   0.46663   0.00000  Uiso   1.00
H171   H     0.64734   0.24476   0.10774   0.00000  Uiso   1.00
H172   H     0.33966   0.18874   0.11161   0.00000  Uiso   1.00
H173   H     0.45418   0.04423   0.19736   0.00000  Uiso   1.00
H174   H     0.35889   0.23603   0.07843   0.00000  Uiso   1.00
H175   H     0.65859   0.19028   0.02244   0.00000  Uiso   1.00
H176   H     0.62129   0.23311   0.03311   0.00000  Uiso   1.00
H177   H     0.60496   0.15876   0.09353   0.00000  Uiso   1.00
H178   H     0.62556   0.12743   0.05036   0.00000  Uiso   1.00
H179   H     0.38207   0.15322   0.06467   0.00000  Uiso   1.00
H180   H     0.39532   0.09903   0.04816   0.00000  Uiso   1.00
H181   H     0.61351   0.16041   0.43826   0.00000  Uiso   1.00
H182   H     0.60159   0.10449   0.45185   0.00000  Uiso   1.00
H183   H     0.39159   0.07181   0.27648   0.00000  Uiso   1.00
H184   H     0.54566   0.28907   0.30278   0.00000  Uiso   1.00
H185   H     0.39991   0.10888   0.32084   0.00000  Uiso   1.00
H186   H     0.62818   0.24866   0.18058   0.00000  Uiso   1.00
H187   H     0.63031   0.27460   0.23139   0.00000  Uiso   1.00
H188   H     0.60848   0.10740   0.31977   0.00000  Uiso   1.00
H189   H     0.61246   0.07140   0.27469   0.00000  Uiso   1.00
H190   H     0.36749   0.27405   0.22615   0.00000  Uiso   1.00
H191   H     0.36415   0.24412   0.17714   0.00000  Uiso   1.00
H192   H     0.54540   0.04304   0.30303   0.00000  Uiso   1.00
H193   H     0.45418   0.29024   0.19739   0.00000  Uiso   1.00
H194   H     0.42777   0.28807   0.31165   0.00000  Uiso   1.00
H195   H     0.39482   0.30162   0.35592   0.00000  Uiso   1.00
H196   H     0.44016   0.00241   0.34927   0.00000  Uiso   1.00
N197   N     0.50000   0.28402   0.25000   0.00000  Uiso   1.00
N198   N     0.50000   0.04931   0.25000   0.00000  Uiso   1.00
N199   N     0.38852   0.13327   0.03714   0.00000  Uiso   1.00
N200   N     0.60659   0.13824   0.46452   0.00000  Uiso   1.00
N201   N     0.37787   0.09393   0.29874   0.00000  Uiso   1.00
N202   N     0.62164   0.24427   0.21389   0.00000  Uiso   1.00
N203   N     0.62831   0.09310   0.29761   0.00000  Uiso   1.00
N204   N     0.37419   0.24237   0.21080   0.00000  Uiso   1.00
O205   O     0.43988   0.20625   0.25000   0.00000  Uiso   1.00
O206   O     0.56012   0.12709   0.25001   0.00000  Uiso   1.00
O207   O     0.56012   0.20625   0.25001   0.00000  Uiso   1.00
O208   O     0.43988   0.12709   0.25000   0.00000  Uiso   1.00
O209   O     0.49999   0.20627   0.18513   0.00000  Uiso   1.00
O210   O     0.50001   0.12707   0.31487   0.00000  Uiso   1.00
O211   O     0.50001   0.20627   0.31487   0.00000  Uiso   1.00
O212   O     0.49999   0.12707   0.18513   0.00000  Uiso   1.00
C213   C     0.75406   0.16670   0.25061   0.00000  Uiso   1.00
C214   C     0.70957   0.16700   0.25204   0.00000  Uiso   1.00
C215   C     0.80786   0.02516   0.22076   0.00000  Uiso   1.00
C216   C     0.85871   0.30815   0.27933   0.00000  Uiso   1.00
C217   C     0.85863   0.02451   0.27940   0.00000  Uiso   1.00
C218   C     0.80784   0.30880   0.22079   0.00000  Uiso   1.00
C219   C     0.83181   0.16695   0.16420   0.00000  Uiso   1.00
C220   C     0.83329   0.16656   0.33565   0.00000  Uiso   1.00
C221   C     0.86528   0.15366   0.40986   0.00000  Uiso   1.00
C222   C     0.79625   0.15161   0.09092   0.00000  Uiso   1.00
C223   C     0.83054   0.16647   0.38385   0.00000  Uiso   1.00
C224   C     0.91274   0.16667   0.25085   0.00000  Uiso   1.00
C225   C     0.83078   0.16764   0.11559   0.00000  Uiso   1.00
C226   C     0.79489   0.18194   0.40347   0.00000  Uiso   1.00
C227   C     0.86350   0.18587   0.09330   0.00000  Uiso   1.00
C228   C     0.79203   0.17278   0.45031   0.00000  Uiso   1.00
C229   C     0.86643   0.17315   0.04836   0.00000  Uiso   1.00
C230   C     0.82933   0.16540   0.47622   0.00000  Uiso   1.00
C231   C     0.82977   0.16541   0.02282   0.00000  Uiso   1.00
C232   C     0.86635   0.15819   0.45610   0.00000  Uiso   1.00
C233   C     0.79389   0.15648   0.04410   0.00000  Uiso   1.00
C234   C     0.75495   0.16728   0.47270   0.00000  Uiso   1.00
C235   C     0.75713   0.15233   0.01806   0.00000  Uiso   1.00
C236   C     0.90380   0.16486   0.02893   0.00000  Uiso   1.00
C237   C     0.76751   0.21618   0.37545   0.00000  Uiso   1.00
C238   C     0.78469   0.26642   0.37814   0.00000  Uiso   1.00
C239   C     0.76024   0.29995   0.34675   0.00000  Uiso   1.00
C240   C     0.88751   0.22699   0.11308   0.00000  Uiso   1.00
C241   C     0.86172   0.27218   0.11164   0.00000  Uiso   1.00
C242   C     0.88364   0.31169   0.13736   0.00000  Uiso   1.00
C243   C     0.71302   0.17736   0.45110   0.00000  Uiso   1.00
C244   C     0.70308   0.23012   0.45666   0.00000  Uiso   1.00
C245   C     0.99722   0.24519   0.43061   0.00000  Uiso   1.00
C246   C     0.90321   0.15413   0.48296   0.00000  Uiso   1.00
C247   C     0.94354   0.16115   0.05743   0.00000  Uiso   1.00
C248   C     0.97179   0.20237   0.04774   0.00000  Uiso   1.00
C249   C     0.99756   0.21864   0.08897   0.00000  Uiso   1.00
C250   C     0.68941   0.13059   0.27417   0.00000  Uiso   1.00
C251   C     0.97777   0.20507   0.23281   0.00000  Uiso   1.00
C252   C     0.98042   0.13039   0.27389   0.00000  Uiso   1.00
C253   C     0.68700   0.20469   0.23217   0.00000  Uiso   1.00
C254   C     0.95751   0.16701   0.25215   0.00000  Uiso   1.00
Cu255  Cu    0.83333   0.21355   0.25000   0.00000  Uiso   1.00
Cu256  Cu    0.83333   0.11978   0.25000   0.00000  Uiso   1.00
H257   H     0.89221   0.14401   0.39315   0.00000  Uiso   1.00
H258   H     0.78416   0.27950   0.41284   0.00000  Uiso   1.00
H259   H     0.81688   0.26703   0.36937   0.00000  Uiso   1.00
H260   H     0.76440   0.20473   0.34025   0.00000  Uiso   1.00
H261   H     0.73579   0.21777   0.38275   0.00000  Uiso   1.00
H262   H     0.88877   0.30182   0.17316   0.00000  Uiso   1.00
H263   H     0.91334   0.31910   0.12328   0.00000  Uiso   1.00
H264   H     0.86478   0.01077   0.13489   0.00000  Uiso   1.00
H265   H     0.85567   0.28353   0.07629   0.00000  Uiso   1.00
H266   H     0.83183   0.26637   0.12574   0.00000  Uiso   1.00
H267   H     0.89942   0.21816   0.14750   0.00000  Uiso   1.00
H268   H     0.77056   0.13989   0.10878   0.00000  Uiso   1.00
H269   H     0.91351   0.23527   0.09348   0.00000  Uiso   1.00
H270   H     0.99570   0.23082   0.39625   0.00000  Uiso   1.00
H271   H     0.97048   0.23346   0.44824   0.00000  Uiso   1.00
H272   H     0.99600   0.28413   0.42827   0.00000  Uiso   1.00
H273   H     0.70100   0.23855   0.49243   0.00000  Uiso   1.00
H274   H     0.72814   0.25250   0.44613   0.00000  Uiso   1.00
H275   H     0.71010   0.16417   0.41648   0.00000  Uiso   1.00
H276   H     0.68943   0.15638   0.46663   0.00000  Uiso   1.00
H277   H     0.98067   0.24476   0.10774   0.00000  Uiso   1.00
H278   H     0.67300   0.18874   0.11161   0.00000  Uiso   1.00
H279   H     0.78752   0.04423   0.19736   0.00000  Uiso   1.00
H280   H     0.69222   0.23603   0.07843   0.00000  Uiso   1.00
H281   H     0.99193   0.19028   0.02244   0.00000  Uiso   1.00
H282   H     0.95462   0.23311   0.03311   0.00000  Uiso   1.00
H283   H     0.93830   0.15876   0.09353   0.00000  Uiso   1.00
H284   H     0.95890   0.12743   0.05036   0.00000  Uiso   1.00
H285   H     0.71541   0.15322   0.06467   0.00000  Uiso   1.00
H286   H     0.72865   0.09903   0.04816   0.00000  Uiso   1.00
H287   H     0.94685   0.16041   0.43826   0.00000  Uiso   1.00
H288   H     0.93492   0.10449   0.45185   0.00000  Uiso   1.00
H289   H     0.72492   0.07181   0.27648   0.00000  Uiso   1.00
H290   H     0.87899   0.28907   0.30278   0.00000  Uiso   1.00
H291   H     0.73324   0.10888   0.32084   0.00000  Uiso   1.00
H292   H     0.96151   0.24866   0.18058   0.00000  Uiso   1.00
H293   H     0.96364   0.27460   0.23139   0.00000  Uiso   1.00
H294   H     0.94181   0.10740   0.31977   0.00000  Uiso   1.00
H295   H     0.94579   0.07140   0.27469   0.00000  Uiso   1.00
H296   H     0.70082   0.27405   0.22615   0.00000  Uiso   1.00
H297   H     0.69748   0.24412   0.17714   0.00000  Uiso   1.00
H298   H     0.87874   0.04304   0.30303   0.00000  Uiso   1.00
H299   H     0.78751   0.29024   0.19739   0.00000  Uiso   1.00
H300   H     0.76110   0.28807   0.31165   0.00000  Uiso   1.00
H301   H     0.72815   0.30162   0.35592   0.00000  Uiso   1.00
H302   H     0.77349   0.00241   0.34927   0.00000  Uiso   1.00
N303   N     0.83333   0.28402   0.25000   0.00000  Uiso   1.00
N304   N     0.83333   0.04931   0.25000   0.00000  Uiso   1.00
N305   N     0.72186   0.13327   0.03714   0.00000  Uiso   1.00
N306   N     0.93992   0.13824   0.46452   0.00000  Uiso   1.00
N307   N     0.71120   0.09393   0.29874   0.00000  Uiso   1.00
N308   N     0.95497   0.24427   0.21389   0.00000  Uiso   1.00
N309   N     0.96165   0.09310   0.29761   0.00000  Uiso   1.00
N310   N     0.70752   0.24237   0.21080   0.00000  Uiso   1.00
O311   O     0.77321   0.20625   0.25000   0.00000  Uiso   1.00
O312   O     0.89345   0.12709   0.25001   0.00000  Uiso   1.00
O313   O     0.89345   0.20625   0.25001   0.00000  Uiso   1.00
O314   O     0.77321   0.12709   0.25000   0.00000  Uiso   1.00
O315   O     0.83332   0.20627   0.18513   0.00000  Uiso   1.00
O316   O     0.83334   0.12707   0.31487   0.00000  Uiso   1.00
O317   O     0.83334   0.20627   0.31487   0.00000  Uiso   1.00
O318   O     0.83332   0.12707   0.18513   0.00000  Uiso   1.00
C319   C     0.08740   0.50003   0.25061   0.00000  Uiso   1.00
C320   C     0.04291   0.50033   0.25204   0.00000  Uiso   1.00
C321   C     0.14120   0.35850   0.22076   0.00000  Uiso   1.00
C322   C     0.19204   0.64149   0.27933   0.00000  Uiso   1.00
C323   C     0.19196   0.35784   0.27940   0.00000  Uiso   1.00
C324   C     0.14117   0.64214   0.22079   0.00000  Uiso   1.00
C325   C     0.16515   0.50028   0.16420   0.00000  Uiso   1.00
C326   C     0.16662   0.49989   0.33565   0.00000  Uiso   1.00
C327   C     0.19861   0.48700   0.40986   0.00000  Uiso   1.00
C328   C     0.12958   0.48494   0.09092   0.00000  Uiso   1.00
C329   C     0.16388   0.49980   0.38385   0.00000  Uiso   1.00
C330   C     0.24607   0.50000   0.25085   0.00000  Uiso   1.00
C331   C     0.16412   0.50097   0.11559   0.00000  Uiso   1.00
C332   C     0.12823   0.51527   0.40347   0.00000  Uiso   1.00
C333   C     0.19683   0.51921   0.09330   0.00000  Uiso   1.00
C334   C     0.12537   0.50611   0.45031   0.00000  Uiso   1.00
C335   C     0.19976   0.50649   0.04836   0.00000  Uiso   1.00
C336   C     0.16266   0.49874   0.47622   0.00000  Uiso   1.00
C337   C     0.16310   0.49875   0.02282   0.00000  Uiso   1.00
C338   C     0.19968   0.49152   0.45610   0.00000  Uiso   1.00
C339   C     0.12722   0.48981   0.04410   0.00000  Uiso   1.00
C340   C     0.08829   0.50062   0.47270   0.00000  Uiso   1.00
C341   C     0.09047   0.48566   0.01806   0.00000  Uiso   1.00
C342   C     0.23713   0.49820   0.02893   0.00000  Uiso   1.00
C343   C     0.10084   0.54951   0.37545   0.00000  Uiso   1.00
C344   C     0.11803   0.59975   0.37814   0.00000  Uiso   1.00
C345   C     0.09358   0.63328   0.34675   0.00000  Uiso   1.00
C346   C     0.22084   0.56032   0.11308   0.00000  Uiso   1.00
C347   C     0.19505   0.60551   0.11164   0.00000  Uiso   1.00
C348   C     0.21697   0.64502   0.13736   0.00000  Uiso   1.00
C349   C     0.04635   0.51069   0.45110   0.00000  Uiso   1.00
C350   C     0.03641   0.56346   0.45666   0.00000  Uiso   1.00
C351   C     0.33055   0.57852   0.43061   0.00000  Uiso   1.00
C352   C     0.23654   0.48747   0.48296   0.00000  Uiso   1.00
C353   C     0.27687   0.49448   0.05743   0.00000  Uiso   1.00
C354   C     0.30512   0.53570   0.04774   0.00000  Uiso   1.00
C355   C     0.33089   0.55197   0.08897   0.00000  Uiso   1.00
C356   C     0.02275   0.46393   0.27417   0.00000  Uiso   1.00
C357   C     0.31110   0.53840   0.23281   0.00000  Uiso   1.00
C358   C     0.31376   0.46372   0.27389   0.00000  Uiso   1.00
C359   C     0.02034   0.53802   0.23217   0.00000  Uiso   1.00
C360   C     0.29084   0.50035   0.25215   0.00000  Uiso   1.00
Cu361  Cu    0.16667   0.54689   0.25000   0.00000  Uiso   1.00
Cu362  Cu    0.16667   0.45311   0.25000   0.00000  Uiso   1.00
H363   H     0.22554   0.47734   0.39315   0.00000  Uiso   1.00
H364   H     0.11749   0.61284   0.41284   0.00000  Uiso   1.00
H365   H     0.15021   0.60036   0.36937   0.00000  Uiso   1.00
H366   H     0.09773   0.53806   0.34025   0.00000  Uiso   1.00
H367   H     0.06912   0.55110   0.38275   0.00000  Uiso   1.00
H368   H     0.22210   0.63515   0.17316   0.00000  Uiso   1.00
H369   H     0.24668   0.65243   0.12328   0.00000  Uiso   1.00
H370   H     0.19811   0.34410   0.13489   0.00000  Uiso   1.00
H371   H     0.18900   0.61686   0.07629   0.00000  Uiso   1.00
H372   H     0.16516   0.59971   0.12574   0.00000  Uiso   1.00
H373   H     0.23275   0.55149   0.14750   0.00000  Uiso   1.00
H374   H     0.10390   0.47323   0.10878   0.00000  Uiso   1.00
H375   H     0.24685   0.56860   0.09348   0.00000  Uiso   1.00
H376   H     0.32903   0.56415   0.39625   0.00000  Uiso   1.00
H377   H     0.30382   0.56680   0.44824   0.00000  Uiso   1.00
H378   H     0.32933   0.61746   0.42827   0.00000  Uiso   1.00
H379   H     0.03433   0.57188   0.49243   0.00000  Uiso   1.00
H380   H     0.06148   0.58583   0.44613   0.00000  Uiso   1.00
H381   H     0.04343   0.49750   0.41648   0.00000  Uiso   1.00
H382   H     0.02276   0.48972   0.46663   0.00000  Uiso   1.00
H383   H     0.31401   0.57810   0.10774   0.00000  Uiso   1.00
H384   H     0.00633   0.52208   0.11161   0.00000  Uiso   1.00
H385   H     0.12085   0.37757   0.19736   0.00000  Uiso   1.00
H386   H     0.02555   0.56937   0.07843   0.00000  Uiso   1.00
H387   H     0.32526   0.52361   0.02244   0.00000  Uiso   1.00
H388   H     0.28796   0.56644   0.03311   0.00000  Uiso   1.00
H389   H     0.27163   0.49209   0.09353   0.00000  Uiso   1.00
H390   H     0.29223   0.46076   0.05036   0.00000  Uiso   1.00
H391   H     0.04874   0.48655   0.06467   0.00000  Uiso   1.00
H392   H     0.06198   0.43236   0.04816   0.00000  Uiso   1.00
H393   H     0.28018   0.49374   0.43826   0.00000  Uiso   1.00
H394   H     0.26826   0.43783   0.45185   0.00000  Uiso   1.00
H395   H     0.05825   0.40514   0.27648   0.00000  Uiso   1.00
H396   H     0.21233   0.62240   0.30278   0.00000  Uiso   1.00
H397   H     0.06657   0.44222   0.32084   0.00000  Uiso   1.00
H398   H     0.29485   0.58199   0.18058   0.00000  Uiso   1.00
H399   H     0.29698   0.60793   0.23139   0.00000  Uiso   1.00
H400   H     0.27515   0.44073   0.31977   0.00000  Uiso   1.00
H401   H     0.27913   0.40473   0.27469   0.00000  Uiso   1.00
H402   H     0.03415   0.60738   0.22615   0.00000  Uiso   1.00
H403   H     0.03082   0.57745   0.17714   0.00000  Uiso   1.00
H404   H     0.21207   0.37638   0.30303   0.00000  Uiso   1.00
H405   H     0.12085   0.62357   0.19739   0.00000  Uiso   1.00
H406   H     0.09444   0.62140   0.31165   0.00000  Uiso   1.00
H407   H     0.06149   0.63495   0.35592   0.00000  Uiso   1.00
H408   H     0.10682   0.33574   0.34927   0.00000  Uiso   1.00
N409   N     0.16667   0.61736   0.25000   0.00000  Uiso   1.00
N410   N     0.16667   0.38264   0.25000   0.00000  Uiso   1.00
N411   N     0.05519   0.46660   0.03714   0.00000  Uiso   1.00
N412   N     0.27326   0.47157   0.46452   0.00000  Uiso   1.00
N413   N     0.04453   0.42727   0.29874   0.00000  Uiso   1.00
N414   N     0.28831   0.57760   0.21389   0.00000  Uiso   1.00
N415   N     0.29498   0.42644   0.29761   0.00000  Uiso   1.00
N416   N     0.04086   0.57570   0.21080   0.00000  Uiso   1.00
O417   O     0.10655   0.53958   0.25000   0.00000  Uiso   1.00
O418   O     0.22679   0.46042   0.25001   0.00000  Uiso   1.00
O419   O     0.22679   0.53958   0.25001   0.00000  Uiso   1.00
O420   O     0.10655   0.46042   0.25000   0.00000  Uiso   1.00
O421   O     0.16666   0.53960   0.18513   0.00000  Uiso   1.00
O422   O     0.16668   0.46040   0.31487   0.00000  Uiso   1.00
O423   O     0.16668   0.53960   0.31487   0.00000  Uiso   1.00
O424   O     0.16666   0.46040   0.18513   0.00000  Uiso   1.00
C425   C     0.42073   0.50003   0.25061   0.00000  Uiso   1.00
C426   C     0.37624   0.50033   0.25204   0.00000  Uiso   1.00
C427   C     0.47453   0.35850   0.22076   0.00000  Uiso   1.00
C428   C     0.52537   0.64149   0.27933   0.00000  Uiso   1.00
C429   C     0.52530   0.35784   0.27940   0.00000  Uiso   1.00
C430   C     0.47450   0.64214   0.22079   0.00000  Uiso   1.00
C431   C     0.49848   0.50028   0.16420   0.00000  Uiso   1.00
C432   C     0.49996   0.49989   0.33565   0.00000  Uiso   1.00
C433   C     0.53195   0.48700   0.40986   0.00000  Uiso   1.00
C434   C     0.46291   0.48494   0.09092   0.00000  Uiso   1.00
C435   C     0.49721   0.49980   0.38385   0.00000  Uiso   1.00
C436   C     0.57941   0.50000   0.25085   0.00000  Uiso   1.00
C437   C     0.49745   0.50097   0.11559   0.00000  Uiso   1.00
C438   C     0.46156   0.51527   0.40347   0.00000  Uiso   1.00
C439   C     0.53016   0.51921   0.09330   0.00000  Uiso   1.00
C440   C     0.45870   0.50611   0.45031   0.00000  Uiso   1.00
C441   C     0.53310   0.50649   0.04836   0.00000  Uiso   1.00
C442   C     0.49599   0.49874   0.47622   0.00000  Uiso   1.00
C443   C     0.49644   0.49875   0.02282   0.00000  Uiso   1.00
C444   C     0.53301   0.49152   0.45610   0.00000  Uiso   1.00
C445   C     0.46056   0.48981   0.04410   0.00000  Uiso   1.00
C446   C     0.42162   0.50062   0.47270   0.00000  Uiso   1.00
C447   C     0.42380   0.48566   0.01806   0.00000  Uiso   1.00
C448   C     0.57047   0.49820   0.02893   0.00000  Uiso   1.00
C449   C     0.43417   0.54951   0.37545   0.00000  Uiso   1.00
C450   C     0.45136   0.59975   0.37814   0.00000  Uiso   1.00
C451   C     0.42691   0.63328   0.34675   0.00000  Uiso   1.00
C452   C     0.55418   0.56032   0.11308   0.00000  Uiso   1.00
C453   C     0.52839   0.60551   0.11164   0.00000  Uiso   1.00
C454   C     0.55031   0.64502   0.13736   0.00000  Uiso   1.00
C455   C     0.37968   0.51069   0.45110   0.00000  Uiso   1.00
C456   C     0.36974   0.56346   0.45666   0.00000  Uiso   1.00
C457   C     0.66388   0.57852   0.43061   0.00000  Uiso   1.00
C458   C     0.56987   0.48747   0.48296   0.00000  Uiso   1.00
C459   C     0.61020   0.49448   0.05743   0.00000  Uiso   1.00
C460   C     0.63846   0.53570   0.04774   0.00000  Uiso   1.00
C461   C     0.66422   0.55197   0.08897   0.00000  Uiso   1.00
C462   C     0.35608   0.46393   0.27417   0.00000  Uiso   1.00
C463   C     0.64443   0.53840   0.23281   0.00000  Uiso   1.00
C464   C     0.64709   0.46372   0.27389   0.00000  Uiso   1.00
C465   C     0.35367   0.53802   0.23217   0.00000  Uiso   1.00
C466   C     0.62417   0.50035   0.25215   0.00000  Uiso   1.00
Cu467  Cu    0.50000   0.54689   0.25000   0.00000  Uiso   1.00
Cu468  Cu    0.50000   0.45311   0.25000   0.00000  Uiso   1.00
H469   H     0.55887   0.47734   0.39315   0.00000  Uiso   1.00
H470   H     0.45083   0.61284   0.41284   0.00000  Uiso   1.00
H471   H     0.48354   0.60036   0.36937   0.00000  Uiso   1.00
H472   H     0.43107   0.53806   0.34025   0.00000  Uiso   1.00
H473   H     0.40245   0.55110   0.38275   0.00000  Uiso   1.00
H474   H     0.55544   0.63515   0.17316   0.00000  Uiso   1.00
H475   H     0.58001   0.65243   0.12328   0.00000  Uiso   1.00
H476   H     0.53144   0.34410   0.13489   0.00000  Uiso   1.00
H477   H     0.52234   0.61686   0.07629   0.00000  Uiso   1.00
H478   H     0.49850   0.59971   0.12574   0.00000  Uiso   1.00
H479   H     0.56608   0.55149   0.14750   0.00000  Uiso   1.00
H480   H     0.43723   0.47323   0.10878   0.00000  Uiso   1.00
H481   H     0.58018   0.56860   0.09348   0.00000  Uiso   1.00
H482   H     0.66236   0.56415   0.39625   0.00000  Uiso   1.00
H483   H     0.63715   0.56680   0.44824   0.00000  Uiso   1.00
H484   H     0.66266   0.61746   0.42827   0.00000  Uiso   1.00
H485   H     0.36767   0.57188   0.49243   0.00000  Uiso   1.00
H486   H     0.39481   0.58583   0.44613   0.00000  Uiso   1.00
H487   H     0.37676   0.49750   0.41648   0.00000  Uiso   1.00
H488   H     0.35609   0.48972   0.46663   0.00000  Uiso   1.00
H489   H     0.64734   0.57810   0.10774   0.00000  Uiso   1.00
H490   H     0.33966   0.52208   0.11161   0.00000  Uiso   1.00
H491   H     0.45418   0.37757   0.19736   0.00000  Uiso   1.00
H492   H     0.35889   0.56937   0.07843   0.00000  Uiso   1.00
H493   H     0.65859   0.52361   0.02244   0.00000  Uiso   1.00
H494   H     0.62129   0.56644   0.03311   0.00000  Uiso   1.00
H495   H     0.60496   0.49209   0.09353   0.00000  Uiso   1.00
H496   H     0.62556   0.46076   0.05036   0.00000  Uiso   1.00
H497   H     0.38207   0.48655   0.06467   0.00000  Uiso   1.00
H498   H     0.39532   0.43236   0.04816   0.00000  Uiso   1.00
H499   H     0.61351   0.49374   0.43826   0.00000  Uiso   1.00
H500   H     0.60159   0.43783   0.45185   0.00000  Uiso   1.00
H501   H     0.39159   0.40514   0.27648   0.00000  Uiso   1.00
H502   H     0.54566   0.62240   0.30278   0.00000  Uiso   1.00
H503   H     0.39991   0.44222   0.32084   0.00000  Uiso   1.00
H504   H     0.62818   0.58199   0.18058   0.00000  Uiso   1.00
H505   H     0.63031   0.60793   0.23139   0.00000  Uiso   1.00
H506   H     0.60848   0.44073   0.31977   0.00000  Uiso   1.00
H507   H     0.61246   0.40473   0.27469   0.00000  Uiso   1.00
H508   H     0.36749   0.60738   0.22615   0.00000  Uiso   1.00
H509   H     0.36415   0.57745   0.17714   0.00000  Uiso   1.00
H510   H     0.54540   0.37638   0.30303   0.00000  Uiso   1.00
H511   H     0.45418   0.62357   0.19739   0.00000  Uiso   1.00
H512   H     0.42777   0.62140   0.31165   0.00000  Uiso   1.00
H513   H     0.39482   0.63495   0.35592   0.00000  Uiso   1.00
H514   H     0.44016   0.33574   0.34927   0.00000  Uiso   1.00
N515   N     0.50000   0.61736   0.25000   0.00000  Uiso   1.00
N516   N     0.50000   0.38264   0.25000   0.00000  Uiso   1.00
N517   N     0.38852   0.46660   0.03714   0.00000  Uiso   1.00
N518   N     0.60659   0.47157   0.46452   0.00000  Uiso   1.00
N519   N     0.37787   0.42727   0.29874   0.00000  Uiso   1.00
N520   N     0.62164   0.57760   0.21389   0.00000  Uiso   1.00
N521   N     0.62831   0.42644   0.29761   0.00000  Uiso   1.00
N522   N     0.37419   0.57570   0.21080   0.00000  Uiso   1.00
O523   O     0.43988   0.53958   0.25000   0.00000  Uiso   1.00
O524   O     0.56012   0.46042   0.25001   0.00000  Uiso   1.00
O525   O     0.56012   0.53958   0.25001   0.00000  Uiso   1.00
O526   O     0.43988   0.46042   0.25000   0.00000  Uiso   1.00
O527   O     0.49999   0.53960   0.18513   0.00000  Uiso   1.00
O528   O     0.50001   0.46040   0.31487   0.00000  Uiso   1.00
O529   O     0.50001   0.53960   0.31487   0.00000  Uiso   1.00
O530   O     0.49999   0.46040   0.18513   0.00000  Uiso   1.00
C531   C     0.75406   0.50003   0.25061   0.00000  Uiso   1.00
C532   C     0.70957   0.50033   0.25204   0.00000  Uiso   1.00
C533   C     0.80786   0.35850   0.22076   0.00000  Uiso   1.00
C534   C     0.85871   0.64149   0.27933   0.00000  Uiso   1.00
C535   C     0.85863   0.35784   0.27940   0.00000  Uiso   1.00
C536   C     0.80784   0.64214   0.22079   0.00000  Uiso   1.00
C537   C     0.83181   0.50028   0.16420   0.00000  Uiso   1.00
C538   C     0.83329   0.49989   0.33565   0.00000  Uiso   1.00
C539   C     0.86528   0.48700   0.40986   0.00000  Uiso   1.00
C540   C     0.79625   0.48494   0.09092   0.00000  Uiso   1.00
C541   C     0.83054   0.49980   0.38385   0.00000  Uiso   1.00
C542   C     0.91274   0.50000   0.25085   0.00000  Uiso   1.00
C543   C     0.83078   0.50097   0.11559   0.00000  Uiso   1.00
C544   C     0.79489   0.51527   0.40347   0.00000  Uiso   1.00
C545   C     0.86350   0.51921   0.09330   0.00000  Uiso   1.00
C546   C     0.79203   0.50611   0.45031   0.00000  Uiso   1.00
C547   C     0.86643   0.50649   0.04836   0.00000  Uiso   1.00
C548   C     0.82933   0.49874   0.47622   0.00000  Uiso   1.00
C549   C     0.82977   0.49875   0.02282   0.00000  Uiso   1.00
C550   C     0.86635   0.49152   0.45610   0.00000  Uiso   1.00
C551   C     0.79389   0.48981   0.04410   0.00000  Uiso   1.00
C552   C     0.75495   0.50062   0.47270   0.00000  Uiso   1.00
C553   C     0.75713   0.48566   0.01806   0.00000  Uiso   1.00
C554   C     0.90380   0.49820   0.02893   0.00000  Uiso   1.00
C555   C     0.76751   0.54951   0.37545   0.00000  Uiso   1.00
C556   C     0.78469   0.59975   0.37814   0.00000  Uiso   1.00
C557   C     0.76024   0.63328   0.34675   0.00000  Uiso   1.00
C558   C     0.88751   0.56032   0.11308   0.00000  Uiso   1.00
C559   C     0.86172   0.60551   0.11164   0.00000  Uiso   1.00
C560   C     0.88364   0.64502   0.13736   0.00000  Uiso   1.00
C561   C     0.71302   0.51069   0.45110   0.00000  Uiso   1.00
C562   C     0.70308   0.56346   0.45666   0.00000  Uiso   1.00
C563   C     0.99722   0.57852   0.43061   0.00000  Uiso   1.00
C564   C     0.90321   0.48747   0.48296   0.00000  Uiso   1.00
C565   C     0.94354   0.49448   0.05743   0.00000  Uiso   1.00
C566   C     0.97179   0.53570   0.04774   0.00000  Uiso   1.00
C567   C     0.99756   0.55197   0.08897   0.00000  Uiso   1.00
C568   C     0.68941   0.46393   0.27417   0.00000  Uiso   1.00
C569   C     0.97777   0.53840   0.23281   0.00000  Uiso   1.00
C570   C     0.98042   0.46372   0.27389   0.00000  Uiso   1.00
C571   C     0.68700   0.53802   0.23217   0.00000  Uiso   1.00
C572   C     0.95751   0.50035   0.25215   0.00000  Uiso   1.00
Cu573  Cu    0.83333   0.54689   0.25000   0.00000  Uiso   1.00
Cu574  Cu    0.83333   0.45311   0.25000   0.00000  Uiso   1.00
H575   H     0.89221   0.47734   0.39315   0.00000  Uiso   1.00
H576   H     0.78416   0.61284   0.41284   0.00000  Uiso   1.00
H577   H     0.81688   0.60036   0.36937   0.00000  Uiso   1.00
H578   H     0.76440   0.53806   0.34025   0.00000  Uiso   1.00
H579   H     0.73579   0.55110   0.38275   0.00000  Uiso   1.00
H580   H     0.88877   0.63515   0.17316   0.00000  Uiso   1.00
H581   H     0.91334   0.65243   0.12328   0.00000  Uiso   1.00
H582   H     0.86478   0.34410   0.13489   0.00000  Uiso   1.00
H583   H     0.85567   0.61686   0.07629   0.00000  Uiso   1.00
H584   H     0.83183   0.59971   0.12574   0.00000  Uiso   1.00
H585   H     0.89942   0.55149   0.14750   0.00000  Uiso   1.00
H586   H     0.77056   0.47323   0.10878   0.00000  Uiso   1.00
H587   H     0.91351   0.56860   0.09348   0.00000  Uiso   1.00
H588   H     0.99570   0.56415   0.39625   0.00000  Uiso   1.00
H589   H     0.97048   0.56680   0.44824   0.00000  Uiso   1.00
H590   H     0.99600   0.61746   0.42827   0.00000  Uiso   1.00
H591   H     0.70100   0.57188   0.49243   0.00000  Uiso   1.00
H592   H     0.72814   0.58583   0.44613   0.00000  Uiso   1.00
H593   H     0.71010   0.49750   0.41648   0.00000  Uiso   1.00
H594   H     0.68943   0.48972   0.46663   0.00000  Uiso   1.00
H595   H     0.98067   0.57810   0.10774   0.00000  Uiso   1.00
H596   H     0.67300   0.52208   0.11161   0.00000  Uiso   1.00
H597   H     0.78752   0.37757   0.19736   0.00000  Uiso   1.00
H598   H     0.69222   0.56937   0.07843   0.00000  Uiso   1.00
H599   H     0.99193   0.52361   0.02244   0.00000  Uiso   1.00
H600   H     0.95462   0.56644   0.03311   0.00000  Uiso   1.00
H601   H     0.93830   0.49209   0.09353   0.00000  Uiso   1.00
H602   H     0.95890   0.46076   0.05036   0.00000  Uiso   1.00
H603   H     0.71541   0.48655   0.06467   0.00000  Uiso   1.00
H604   H     0.72865   0.43236   0.04816   0.00000  Uiso   1.00
H605   H     0.94685   0.49374   0.43826   0.00000  Uiso   1.00
H606   H     0.93492   0.43783   0.45185   0.00000  Uiso   1.00
H607   H     0.72492   0.40514   0.27648   0.00000  Uiso   1.00
H608   H     0.87899   0.62240   0.30278   0.00000  Uiso   1.00
H609   H     0.73324   0.44222   0.32084   0.00000  Uiso   1.00
H610   H     0.96151   0.58199   0.18058   0.00000  Uiso   1.00
H611   H     0.96364   0.60793   0.23139   0.00000  Uiso   1.00
H612   H     0.94181   0.44073   0.31977   0.00000  Uiso   1.00
H613   H     0.94579   0.40473   0.27469   0.00000  Uiso   1.00
H614   H     0.70082   0.60738   0.22615   0.00000  Uiso   1.00
H615   H     0.69748   0.57745   0.17714   0.00000  Uiso   1.00
H616   H     0.87874   0.37638   0.30303   0.00000  Uiso   1.00
H617   H     0.78751   0.62357   0.19739   0.00000  Uiso   1.00
H618   H     0.76110   0.62140   0.31165   0.00000  Uiso   1.00
H619   H     0.72815   0.63495   0.35592   0.00000  Uiso   1.00
H620   H     0.77349   0.33574   0.34927   0.00000  Uiso   1.00
N621   N     0.83333   0.61736   0.25000   0.00000  Uiso   1.00
N622   N     0.83333   0.38264   0.25000   0.00000  Uiso   1.00
N623   N     0.72186   0.46660   0.03714   0.00000  Uiso   1.00
N624   N     0.93992   0.47157   0.46452   0.00000  Uiso   1.00
N625   N     0.71120   0.42727   0.29874   0.00000  Uiso   1.00
N626   N     0.95497   0.57760   0.21389   0.00000  Uiso   1.00
N627   N     0.96165   0.42644   0.29761   0.00000  Uiso   1.00
N628   N     0.70752   0.57570   0.21080   0.00000  Uiso   1.00
O629   O     0.77321   0.53958   0.25000   0.00000  Uiso   1.00
O630   O     0.89345   0.46042   0.25001   0.00000  Uiso   1.00
O631   O     0.89345   0.53958   0.25001   0.00000  Uiso   1.00
O632   O     0.77321   0.46042   0.25000   0.00000  Uiso   1.00
O633   O     0.83332   0.53960   0.18513   0.00000  Uiso   1.00
O634   O     0.83334   0.46040   0.31487   0.00000  Uiso   1.00
O635   O     0.83334   0.53960   0.31487   0.00000  Uiso   1.00
O636   O     0.83332   0.46040   0.18513   0.00000  Uiso   1.00
C637   C     0.08740   0.83337   0.25061   0.00000  Uiso   1.00
C638   C     0.04291   0.83367   0.25204   0.00000  Uiso   1.00
C639   C     0.14120   0.69183   0.22076   0.00000  Uiso   1.00
C640   C     0.19204   0.97482   0.27933   0.00000  Uiso   1.00
C641   C     0.19196   0.69117   0.27940   0.00000  Uiso   1.00
C642   C     0.14117   0.97547   0.22079   0.00000  Uiso   1.00
C643   C     0.16515   0.83361   0.16420   0.00000  Uiso   1.00
C644   C     0.16662   0.83322   0.33565   0.00000  Uiso   1.00
C645   C     0.19861   0.82033   0.40986   0.00000  Uiso   1.00
C646   C     0.12958   0.81828   0.09092   0.00000  Uiso   1.00
C647   C     0.16388   0.83314   0.38385   0.00000  Uiso   1.00
C648   C     0.24607   0.83334   0.25085   0.00000  Uiso   1.00
C649   C     0.16412   0.83430   0.11559   0.00000  Uiso   1.00
C650   C     0.12823   0.84860   0.40347   0.00000  Uiso   1.00
C651   C     0.19683   0.85254   0.09330   0.00000  Uiso   1.00
C652   C     0.12537   0.83945   0.45031   0.00000  Uiso   1.00
C653   C     0.19976   0.83982   0.04836   0.00000  Uiso   1.00
C654   C     0.16266   0.83207   0.47622   0.00000  Uiso   1.00
C655   C     0.16310   0.83208   0.02282   0.00000  Uiso   1.00
C656   C     0.19968   0.82486   0.45610   0.00000  Uiso   1.00
C657   C     0.12722   0.82314   0.04410   0.00000  Uiso   1.00
C658   C     0.08829   0.83395   0.47270   0.00000  Uiso   1.00
C659   C     0.09047   0.81900   0.01806   0.00000  Uiso   1.00
C660   C     0.23713   0.83153   0.02893   0.00000  Uiso   1.00
C661   C     0.10084   0.88285   0.37545   0.00000  Uiso   1.00
C662   C     0.11803   0.93308   0.37814   0.00000  Uiso   1.00
C663   C     0.09358   0.96662   0.34675   0.00000  Uiso   1.00
C664   C     0.22084   0.89365   0.11308   0.00000  Uiso   1.00
C665   C     0.19505   0.93885   0.11164   0.00000  Uiso   1.00
C666   C     0.21697   0.97835   0.13736   0.00000  Uiso   1.00
C667   C     0.04635   0.84403   0.45110   0.00000  Uiso   1.00
C668   C     0.03641   0.89679   0.45666   0.00000  Uiso   1.00
C669   C     0.33055   0.91185   0.43061   0.00000  Uiso   1.00
C670   C     0.23654   0.82080   0.48296   0.00000  Uiso   1.00
C671   C     0.27687   0.82781   0.05743   0.00000  Uiso   1.00
C672   C     0.30512   0.86904   0.04774   0.00000  Uiso   1.00
C673   C     0.33089   0.88531   0.08897   0.00000  Uiso   1.00
C674   C     0.02275   0.79726   0.27417   0.00000  Uiso   1.00
C675   C     0.31110   0.87173   0.23281   0.00000  Uiso   1.00
C676   C     0.31376   0.79705   0.27389   0.00000  Uiso   1.00
C677   C     0.02034   0.87136   0.23217   0.00000  Uiso   1.00
C678   C     0.29084   0.83368   0.25215   0.00000  Uiso   1.00
Cu679  Cu    0.16667   0.88022   0.25000   0.00000  Uiso   1.00
Cu680  Cu    0.16667   0.78645   0.25000   0.00000  Uiso   1.00
H681   H     0.22554   0.81067   0.39315   0.00000  Uiso   1.00
H682   H     0.11749   0.94617   0.41284   0.00000  Uiso   1.00
H683   H     0.15021   0.93370   0.36937   0.00000  Uiso   1.00
H684   H     0.09773   0.87139   0.34025   0.00000  Uiso   1.00
H685   H     0.06912   0.88443   0.38275   0.00000  Uiso   1.00
H686   H     0.22210   0.96848   0.17316   0.00000  Uiso   1.00
H687   H     0.24668   0.98576   0.12328   0.00000  Uiso   1.00
H688   H     0.19811   0.67743   0.13489   0.00000  Uiso   1.00
H689   H     0.18900   0.95019   0.07629   0.00000  Uiso   1.00
H690   H     0.16516   0.93304   0.12574   0.00000  Uiso   1.00
H691   H     0.23275   0.88482   0.14750   0.00000  Uiso   1.00
H692   H     0.10390   0.80656   0.10878   0.00000  Uiso   1.00
H693   H     0.24685   0.90193   0.09348   0.00000  Uiso   1.00
H694   H     0.32903   0.89748   0.39625   0.00000  Uiso   1.00
H695   H     0.30382   0.90013   0.44824   0.00000  Uiso   1.00
H696   H     0.32933   0.95080   0.42827   0.00000  Uiso   1.00
H697   H     0.03433   0.90521   0.49243   0.00000  Uiso   1.00
H698   H     0.06148   0.91917   0.44613   0.00000  Uiso   1.00
H699   H     0.04343   0.83083   0.41648   0.00000  Uiso   1.00
H700   H     0.02276   0.82305   0.46663   0.00000  Uiso   1.00
H701   H     0.31401   0.91143   0.10774   0.00000  Uiso   1.00
H702   H     0.00633   0.85541   0.11161   0.00000  Uiso   1.00
H703   H     0.12085   0.71090   0.19736   0.00000  Uiso   1.00
H704   H     0.02555   0.90270   0.07843   0.00000  Uiso   1.00
H705   H     0.32526   0.85695   0.02244   0.00000  Uiso   1.00
H706   H     0.28796   0.89978   0.03311   0.00000  Uiso   1.00
H707   H     0.27163   0.82542   0.09353   0.00000  Uiso   1.00
H708   H     0.29223   0.79409   0.05036   0.00000  Uiso   1.00
H709   H     0.04874   0.81988   0.06467   0.00000  Uiso   1.00
H710   H     0.06198   0.76570   0.04816   0.00000  Uiso   1.00
H711   H     0.28018   0.82708   0.43826   0.00000  Uiso   1.00
H712   H     0.26826   0.77116   0.45185   0.00000  Uiso   1.00
H713   H     0.05825   0.73847   0.27648   0.00000  Uiso   1.00
H714   H     0.21233   0.95574   0.30278   0.00000  Uiso   1.00
H715   H     0.06657   0.77555   0.32084   0.00000  Uiso   1.00
H716   H     0.29485   0.91532   0.18058   0.00000  Uiso   1.00
H717   H     0.29698   0.94126   0.23139   0.00000  Uiso   1.00
H718   H     0.27515   0.77407   0.31977   0.00000  Uiso   1.00
H719   H     0.27913   0.73807   0.27469   0.00000  Uiso   1.00
H720   H     0.03415   0.94071   0.22615   0.00000  Uiso   1.00
H721   H     0.03082   0.91079   0.17714   0.00000  Uiso   1.00
H722   H     0.21207   0.70971   0.30303   0.00000  Uiso   1.00
H723   H     0.12085   0.95691   0.19739   0.00000  Uiso   1.00
H724   H     0.09444   0.95473   0.31165   0.00000  Uiso   1.00
H725   H     0.06149   0.96829   0.35592   0.00000  Uiso   1.00
H726   H     0.10682   0.66908   0.34927   0.00000  Uiso   1.00
N727   N     0.16667   0.95069   0.25000   0.00000  Uiso   1.00
N728   N     0.16667   0.71598   0.25000   0.00000  Uiso   1.00
N729   N     0.05519   0.79993   0.03714   0.00000  Uiso   1.00
N730   N     0.27326   0.80490   0.46452   0.00000  Uiso   1.00
N731   N     0.04453   0.76060   0.29874   0.00000  Uiso   1.00
N732   N     0.28831   0.91093   0.21389   0.00000  Uiso   1.00
N733   N     0.29498   0.75977   0.29761   0.00000  Uiso   1.00
N734   N     0.04086   0.90904   0.21080   0.00000  Uiso   1.00
O735   O     0.10655   0.87291   0.25000   0.00000  Uiso   1.00
O736   O     0.22679   0.79375   0.25001   0.00000  Uiso   1.00
O737   O     0.22679   0.87291   0.25001   0.00000  Uiso   1.00
O738   O     0.10655   0.79375   0.25000   0.00000  Uiso   1.00
O739   O     0.16666   0.87293   0.18513   0.00000  Uiso   1.00
O740   O     0.16668   0.79373   0.31487   0.00000  Uiso   1.00
O741   O     0.16668   0.87293   0.31487   0.00000  Uiso   1.00
O742   O     0.16666   0.79373   0.18513   0.00000  Uiso   1.00
C743   C     0.42073   0.83337   0.25061   0.00000  Uiso   1.00
C744   C     0.37624   0.83367   0.25204   0.00000  Uiso   1.00
C745   C     0.47453   0.69183   0.22076   0.00000  Uiso   1.00
C746   C     0.52537   0.97482   0.27933   0.00000  Uiso   1.00
C747   C     0.52530   0.69117   0.27940   0.00000  Uiso   1.00
C748   C     0.47450   0.97547   0.22079   0.00000  Uiso   1.00
C749   C     0.49848   0.83361   0.16420   0.00000  Uiso   1.00
C750   C     0.49996   0.83322   0.33565   0.00000  Uiso   1.00
C751   C     0.53195   0.82033   0.40986   0.00000  Uiso   1.00
C752   C     0.46291   0.81828   0.09092   0.00000  Uiso   1.00
C753   C     0.49721   0.83314   0.38385   0.00000  Uiso   1.00
C754   C     0.57941   0.83334   0.25085   0.00000  Uiso   1.00
C755   C     0.49745   0.83430   0.11559   0.00000  Uiso   1.00
C756   C     0.46156   0.84860   0.40347   0.00000  Uiso   1.00
C757   C     0.53016   0.85254   0.09330   0.00000  Uiso   1.00
C758   C     0.45870   0.83945   0.45031   0.00000  Uiso   1.00
C759   C     0.53310   0.83982   0.04836   0.00000  Uiso   1.00
C760   C     0.49599   0.83207   0.47622   0.00000  Uiso   1.00
C761   C     0.49644   0.83208   0.02282   0.00000  Uiso   1.00
C762   C     0.53301   0.82486   0.45610   0.00000  Uiso   1.00
C763   C     0.46056   0.82314   0.04410   0.00000  Uiso   1.00
C764   C     0.42162   0.83395   0.47270   0.00000  Uiso   1.00
C765   C     0.42380   0.81900   0.01806   0.00000  Uiso   1.00
C766   C     0.57047   0.83153   0.02893   0.00000  Uiso   1.00
C767   C     0.43417   0.88285   0.37545   0.00000  Uiso   1.00
C768   C     0.45136   0.93308   0.37814   0.00000  Uiso   1.00
C769   C     0.42691   0.96662   0.34675   0.00000  Uiso   1.00
C770   C     0.55418   0.89365   0.11308   0.00000  Uiso   1.00
C771   C     0.52839   0.93885   0.11164   0.00000  Uiso   1.00
C772   C     0.55031   0.97835   0.13736   0.00000  Uiso   1.00
C773   C     0.37968   0.84403   0.45110   0.00000  Uiso   1.00
C774   C     0.36974   0.89679   0.45666   0.00000  Uiso   1.00
C775   C     0.66388   0.91185   0.43061   0.00000  Uiso   1.00
C776   C     0.56987   0.82080   0.48296   0.00000  Uiso   1.00
C777   C     0.61020   0.82781   0.05743   0.00000  Uiso   1.00
C778   C     0.63846   0.86904   0.04774   0.00000  Uiso   1.00
C779   C     0.66422   0.88531   0.08897   0.00000  Uiso   1.00
C780   C     0.35608   0.79726   0.27417   0.00000  Uiso   1.00
C781   C     0.64443   0.87173   0.23281   0.00000  Uiso   1.00
C782   C     0.64709   0.79705   0.27389   0.00000  Uiso   1.00
C783   C     0.35367   0.87136   0.23217   0.00000  Uiso   1.00
C784   C     0.62417   0.83368   0.25215   0.00000  Uiso   1.00
Cu785  Cu    0.50000   0.88022   0.25000   0.00000  Uiso   1.00
Cu786  Cu    0.50000   0.78645   0.25000   0.00000  Uiso   1.00
H787   H     0.55887   0.81067   0.39315   0.00000  Uiso   1.00
H788   H     0.45083   0.94617   0.41284   0.00000  Uiso   1.00
H789   H     0.48354   0.93370   0.36937   0.00000  Uiso   1.00
H790   H     0.43107   0.87139   0.34025   0.00000  Uiso   1.00
H791   H     0.40245   0.88443   0.38275   0.00000  Uiso   1.00
H792   H     0.55544   0.96848   0.17316   0.00000  Uiso   1.00
H793   H     0.58001   0.98576   0.12328   0.00000  Uiso   1.00
H794   H     0.53144   0.67743   0.13489   0.00000  Uiso   1.00
H795   H     0.52234   0.95019   0.07629   0.00000  Uiso   1.00
H796   H     0.49850   0.93304   0.12574   0.00000  Uiso   1.00
H797   H     0.56608   0.88482   0.14750   0.00000  Uiso   1.00
H798   H     0.43723   0.80656   0.10878   0.00000  Uiso   1.00
H799   H     0.58018   0.90193   0.09348   0.00000  Uiso   1.00
H800   H     0.66236   0.89748   0.39625   0.00000  Uiso   1.00
H801   H     0.63715   0.90013   0.44824   0.00000  Uiso   1.00
H802   H     0.66266   0.95080   0.42827   0.00000  Uiso   1.00
H803   H     0.36767   0.90521   0.49243   0.00000  Uiso   1.00
H804   H     0.39481   0.91917   0.44613   0.00000  Uiso   1.00
H805   H     0.37676   0.83083   0.41648   0.00000  Uiso   1.00
H806   H     0.35609   0.82305   0.46663   0.00000  Uiso   1.00
H807   H     0.64734   0.91143   0.10774   0.00000  Uiso   1.00
H808   H     0.33966   0.85541   0.11161   0.00000  Uiso   1.00
H809   H     0.45418   0.71090   0.19736   0.00000  Uiso   1.00
H810   H     0.35889   0.90270   0.07843   0.00000  Uiso   1.00
H811   H     0.65859   0.85695   0.02244   0.00000  Uiso   1.00
H812   H     0.62129   0.89978   0.03311   0.00000  Uiso   1.00
H813   H     0.60496   0.82542   0.09353   0.00000  Uiso   1.00
H814   H     0.62556   0.79409   0.05036   0.00000  Uiso   1.00
H815   H     0.38207   0.81988   0.06467   0.00000  Uiso   1.00
H816   H     0.39532   0.76570   0.04816   0.00000  Uiso   1.00
H817   H     0.61351   0.82708   0.43826   0.00000  Uiso   1.00
H818   H     0.60159   0.77116   0.45185   0.00000  Uiso   1.00
H819   H     0.39159   0.73847   0.27648   0.00000  Uiso   1.00
H820   H     0.54566   0.95574   0.30278   0.00000  Uiso   1.00
H821   H     0.39991   0.77555   0.32084   0.00000  Uiso   1.00
H822   H     0.62818   0.91532   0.18058   0.00000  Uiso   1.00
H823   H     0.63031   0.94126   0.23139   0.00000  Uiso   1.00
H824   H     0.60848   0.77407   0.31977   0.00000  Uiso   1.00
H825   H     0.61246   0.73807   0.27469   0.00000  Uiso   1.00
H826   H     0.36749   0.94071   0.22615   0.00000  Uiso   1.00
H827   H     0.36415   0.91079   0.17714   0.00000  Uiso   1.00
H828   H     0.54540   0.70971   0.30303   0.00000  Uiso   1.00
H829   H     0.45418   0.95691   0.19739   0.00000  Uiso   1.00
H830   H     0.42777   0.95473   0.31165   0.00000  Uiso   1.00
H831   H     0.39482   0.96829   0.35592   0.00000  Uiso   1.00
H832   H     0.44016   0.66908   0.34927   0.00000  Uiso   1.00
N833   N     0.50000   0.95069   0.25000   0.00000  Uiso   1.00
N834   N     0.50000   0.71598   0.25000   0.00000  Uiso   1.00
N835   N     0.38852   0.79993   0.03714   0.00000  Uiso   1.00
N836   N     0.60659   0.80490   0.46452   0.00000  Uiso   1.00
N837   N     0.37787   0.76060   0.29874   0.00000  Uiso   1.00
N838   N     0.62164   0.91093   0.21389   0.00000  Uiso   1.00
N839   N     0.62831   0.75977   0.29761   0.00000  Uiso   1.00
N840   N     0.37419   0.90904   0.21080   0.00000  Uiso   1.00
O841   O     0.43988   0.87291   0.25000   0.00000  Uiso   1.00
O842   O     0.56012   0.79375   0.25001   0.00000  Uiso   1.00
O843   O     0.56012   0.87291   0.25001   0.00000  Uiso   1.00
O844   O     0.43988   0.79375   0.25000   0.00000  Uiso   1.00
O845   O     0.49999   0.87293   0.18513   0.00000  Uiso   1.00
O846   O     0.50001   0.79373   0.31487   0.00000  Uiso   1.00
O847   O     0.50001   0.87293   0.31487   0.00000  Uiso   1.00
O848   O     0.49999   0.79373   0.18513   0.00000  Uiso   1.00
C849   C     0.75406   0.83337   0.25061   0.00000  Uiso   1.00
C850   C     0.70957   0.83367   0.25204   0.00000  Uiso   1.00
C851   C     0.80786   0.69183   0.22076   0.00000  Uiso   1.00
C852   C     0.85871   0.97482   0.27933   0.00000  Uiso   1.00
C853   C     0.85863   0.69117   0.27940   0.00000  Uiso   1.00
C854   C     0.80784   0.97547   0.22079   0.00000  Uiso   1.00
C855   C     0.83181   0.83361   0.16420   0.00000  Uiso   1.00
C856   C     0.83329   0.83322   0.33565   0.00000  Uiso   1.00
C857   C     0.86528   0.82033   0.40986   0.00000  Uiso   1.00
C858   C     0.79625   0.81828   0.09092   0.00000  Uiso   1.00
C859   C     0.83054   0.83314   0.38385   0.00000  Uiso   1.00
C860   C     0.91274   0.83334   0.25085   0.00000  Uiso   1.00
C861   C     0.83078   0.83430   0.11559   0.00000  Uiso   1.00
C862   C     0.79489   0.84860   0.40347   0.00000  Uiso   1.00
C863   C     0.86350   0.85254   0.09330   0.00000  Uiso   1.00
C864   C     0.79203   0.83945   0.45031   0.00000  Uiso   1.00
C865   C     0.86643   0.83982   0.04836   0.00000  Uiso   1.00
C866   C     0.82933   0.83207   0.47622   0.00000  Uiso   1.00
C867   C     0.82977   0.83208   0.02282   0.00000  Uiso   1.00
C868   C     0.86635   0.82486   0.45610   0.00000  Uiso   1.00
C869   C     0.79389   0.82314   0.04410   0.00000  Uiso   1.00
C870   C     0.75495   0.83395   0.47270   0.00000  Uiso   1.00
C871   C     0.75713   0.81900   0.01806   0.00000  Uiso   1.00
C872   C     0.90380   0.83153   0.02893   0.00000  Uiso   1.00
C873   C     0.76751   0.88285   0.37545   0.00000  Uiso   1.00
C874   C     0.78469   0.93308   0.37814   0.00000  Uiso   1.00
C875   C     0.76024   0.96662   0.34675   0.00000  Uiso   1.00
C876   C     0.88751   0.89365   0.11308   0.00000  Uiso   1.00
C877   C     0.86172   0.93885   0.11164   0.00000  Uiso   1.00
C878   C     0.88364   0.97835   0.13736   0.00000  Uiso   1.00
C879   C     0.71302   0.84403   0.45110   0.00000  Uiso   1.00
C880   C     0.70308   0.89679   0.45666   0.00000  Uiso   1.00
C881   C     0.99722   0.91185   0.43061   0.00000  Uiso   1.00
C882   C     0.90321   0.82080   0.48296   0.00000  Uiso   1.00
C883   C     0.94354   0.82781   0.05743   0.00000  Uiso   1.00
C884   C     0.97179   0.86904   0.04774   0.00000  Uiso   1.00
C885   C     0.99756   0.88531   0.08897   0.00000  Uiso   1.00
C886   C     0.68941   0.79726   0.27417   0.00000  Uiso   1.00
C887   C     0.97777   0.87173   0.23281   0.00000  Uiso   1.00
C888   C     0.98042   0.79705   0.27389   0.00000  Uiso   1.00
C889   C     0.68700   0.87136   0.23217   0.00000  Uiso   1.00
C890   C     0.95751   0.83368   0.25215   0.00000  Uiso   1.00
Cu891  Cu    0.83333   0.88022   0.25000   0.00000  Uiso   1.00
Cu892  Cu    0.83333   0.78645   0.25000   0.00000  Uiso   1.00
H893   H     0.89221   0.81067   0.39315   0.00000  Uiso   1.00
H894   H     0.78416   0.94617   0.41284   0.00000  Uiso   1.00
H895   H     0.81688   0.93370   0.36937   0.00000  Uiso   1.00
H896   H     0.76440   0.87139   0.34025   0.00000  Uiso   1.00
H897   H     0.73579   0.88443   0.38275   0.00000  Uiso   1.00
H898   H     0.88877   0.96848   0.17316   0.00000  Uiso   1.00
H899   H     0.91334   0.98576   0.12328   0.00000  Uiso   1.00
H900   H     0.86478   0.67743   0.13489   0.00000  Uiso   1.00
H901   H     0.85567   0.95019   0.07629   0.00000  Uiso   1.00
H902   H     0.83183   0.93304   0.12574   0.00000  Uiso   1.00
H903   H     0.89942   0.88482   0.14750   0.00000  Uiso   1.00
H904   H     0.77056   0.80656   0.10878   0.00000  Uiso   1.00
H905   H     0.91351   0.90193   0.09348   0.00000  Uiso   1.00
H906   H     0.99570   0.89748   0.39625   0.00000  Uiso   1.00
H907   H     0.97048   0.90013   0.44824   0.00000  Uiso   1.00
H908   H     0.99600   0.95080   0.42827   0.00000  Uiso   1.00
H909   H     0.70100   0.90521   0.49243   0.00000  Uiso   1.00
H910   H     0.72814   0.91917   0.44613   0.00000  Uiso   1.00
H911   H     0.71010   0.83083   0.41648   0.00000  Uiso   1.00
H912   H     0.68943   0.82305   0.46663   0.00000  Uiso   1.00
H913   H     0.98067   0.91143   0.10774   0.00000  Uiso   1.00
H914   H     0.67300   0.85541   0.11161   0.00000  Uiso   1.00
H915   H     0.78752   0.71090   0.19736   0.00000  Uiso   1.00
H916   H     0.69222   0.90270   0.07843   0.00000  Uiso   1.00
H917   H     0.99193   0.85695   0.02244   0.00000  Uiso   1.00
H918   H     0.95462   0.89978   0.03311   0.00000  Uiso   1.00
H919   H     0.93830   0.82542   0.09353   0.00000  Uiso   1.00
H920   H     0.95890   0.79409   0.05036   0.00000  Uiso   1.00
H921   H     0.71541   0.81988   0.06467   0.00000  Uiso   1.00
H922   H     0.72865   0.76570   0.04816   0.00000  Uiso   1.00
H923   H     0.94685   0.82708   0.43826   0.00000  Uiso   1.00
H924   H     0.93492   0.77116   0.45185   0.00000  Uiso   1.00
H925   H     0.72492   0.73847   0.27648   0.00000  Uiso   1.00
H926   H     0.87899   0.95574   0.30278   0.00000  Uiso   1.00
H927   H     0.73324   0.77555   0.32084   0.00000  Uiso   1.00
H928   H     0.96151   0.91532   0.18058   0.00000  Uiso   1.00
H929   H     0.96364   0.94126   0.23139   0.00000  Uiso   1.00
H930   H     0.94181   0.77407   0.31977   0.00000  Uiso   1.00
H931   H     0.94579   0.73807   0.27469   0.00000  Uiso   1.00
H932   H     0.70082   0.94071   0.22615   0.00000  Uiso   1.00
H933   H     0.69748   0.91079   0.17714   0.00000  Uiso   1.00
H934   H     0.87874   0.70971   0.30303   0.00000  Uiso   1.00
H935   H     0.78751   0.95691   0.19739   0.00000  Uiso   1.00
H936   H     0.76110   0.95473   0.31165   0.00000  Uiso   1.00
H937   H     0.72815   0.96829   0.35592   0.00000  Uiso   1.00
H938   H     0.77349   0.66908   0.34927   0.00000  Uiso   1.00
N939   N     0.83333   0.95069   0.25000   0.00000  Uiso   1.00
N940   N     0.83333   0.71598   0.25000   0.00000  Uiso   1.00
N941   N     0.72186   0.79993   0.03714   0.00000  Uiso   1.00
N942   N     0.93992   0.80490   0.46452   0.00000  Uiso   1.00
N943   N     0.71120   0.76060   0.29874   0.00000  Uiso   1.00
N944   N     0.95497   0.91093   0.21389   0.00000  Uiso   1.00
N945   N     0.96165   0.75977   0.29761   0.00000  Uiso   1.00
N946   N     0.70752   0.90904   0.21080   0.00000  Uiso   1.00
O947   O     0.77321   0.87291   0.25000   0.00000  Uiso   1.00
O948   O     0.89345   0.79375   0.25001   0.00000  Uiso   1.00
O949   O     0.89345   0.87291   0.25001   0.00000  Uiso   1.00
O950   O     0.77321   0.79375   0.25000   0.00000  Uiso   1.00
O951   O     0.83332   0.87293   0.18513   0.00000  Uiso   1.00
O952   O     0.83334   0.79373   0.31487   0.00000  Uiso   1.00
O953   O     0.83334   0.87293   0.31487   0.00000  Uiso   1.00
O954   O     0.83332   0.79373   0.18513   0.00000  Uiso   1.00
C955   C     0.08740   0.16670   0.75061   0.00000  Uiso   1.00
C956   C     0.04291   0.16700   0.75204   0.00000  Uiso   1.00
C957   C     0.14120   0.02516   0.72076   0.00000  Uiso   1.00
C958   C     0.19204   0.30815   0.77933   0.00000  Uiso   1.00
C959   C     0.19196   0.02451   0.77940   0.00000  Uiso   1.00
C960   C     0.14117   0.30880   0.72079   0.00000  Uiso   1.00
C961   C     0.16515   0.16695   0.66420   0.00000  Uiso   1.00
C962   C     0.16662   0.16656   0.83565   0.00000  Uiso   1.00
C963   C     0.19861   0.15366   0.90986   0.00000  Uiso   1.00
C964   C     0.12958   0.15161   0.59092   0.00000  Uiso   1.00
C965   C     0.16388   0.16647   0.88385   0.00000  Uiso   1.00
C966   C     0.24607   0.16667   0.75085   0.00000  Uiso   1.00
C967   C     0.16412   0.16764   0.61559   0.00000  Uiso   1.00
C968   C     0.12823   0.18194   0.90347   0.00000  Uiso   1.00
C969   C     0.19683   0.18587   0.59330   0.00000  Uiso   1.00
C970   C     0.12537   0.17278   0.95031   0.00000  Uiso   1.00
C971   C     0.19976   0.17315   0.54836   0.00000  Uiso   1.00
C972   C     0.16266   0.16540   0.97622   0.00000  Uiso   1.00
C973   C     0.16310   0.16541   0.52282   0.00000  Uiso   1.00
C974   C     0.19968   0.15819   0.95610   0.00000  Uiso   1.00
C975   C     0.12722   0.15648   0.54410   0.00000  Uiso   1.00
C976   C     0.08829   0.16728   0.97270   0.00000  Uiso   1.00
C977   C     0.09047   0.15233   0.51806   0.00000  Uiso   1.00
C978   C     0.23713   0.16486   0.52893   0.00000  Uiso   1.00
C979   C     0.10084   0.21618   0.87545   0.00000  Uiso   1.00
C980   C     0.11803   0.26642   0.87814   0.00000  Uiso   1.00
C981   C     0.09358   0.29995   0.84675   0.00000  Uiso   1.00
C982   C     0.22084   0.22699   0.61308   0.00000  Uiso   1.00
C983   C     0.19505   0.27218   0.61164   0.00000  Uiso   1.00
C984   C     0.21697   0.31169   0.63736   0.00000  Uiso   1.00
C985   C     0.04635   0.17736   0.95110   0.00000  Uiso   1.00
C986   C     0.03641   0.23012   0.95666   0.00000  Uiso   1.00
C987   C     0.33055   0.24519   0.93061   0.00000  Uiso   1.00
C988   C     0.23654   0.15413   0.98296   0.00000  Uiso   1.00
C989   C     0.27687   0.16115   0.55743   0.00000  Uiso   1.00
C990   C     0.30512   0.20237   0.54774   0.00000  Uiso   1.00
C991   C     0.33089   0.21864   0.58897   0.00000  Uiso   1.00
C992   C     0.02275   0.13059   0.77417   0.00000  Uiso   1.00
C993   C     0.31110   0.20507   0.73281   0.00000  Uiso   1.00
C994   C     0.31376   0.13039   0.77389   0.00000  Uiso   1.00
C995   C     0.02034   0.20469   0.73217   0.00000  Uiso   1.00
C996   C     0.29084   0.16701   0.75215   0.00000  Uiso   1.00
Cu997  Cu    0.16667   0.21355   0.75000   0.00000  Uiso   1.00
Cu998  Cu    0.16667   0.11978   0.75000   0.00000  Uiso   1.00
H999   H     0.22554   0.14401   0.89315   0.00000  Uiso   1.00
H1000  H     0.11749   0.27950   0.91284   0.00000  Uiso   1.00
H1001  H     0.15021   0.26703   0.86937   0.00000  Uiso   1.00
H1002  H     0.09773   0.20473   0.84025   0.00000  Uiso   1.00
H1003  H     0.06912   0.21777   0.88275   0.00000  Uiso   1.00
H1004  H     0.22210   0.30182   0.67316   0.00000  Uiso   1.00
H1005  H     0.24668   0.31910   0.62328   0.00000  Uiso   1.00
H1006  H     0.19811   0.01077   0.63489   0.00000  Uiso   1.00
H1007  H     0.18900   0.28353   0.57629   0.00000  Uiso   1.00
H1008  H     0.16516   0.26637   0.62574   0.00000  Uiso   1.00
H1009  H     0.23275   0.21816   0.64750   0.00000  Uiso   1.00
H1010  H     0.10390   0.13989   0.60878   0.00000  Uiso   1.00
H1011  H     0.24685   0.23527   0.59348   0.00000  Uiso   1.00
H1012  H     0.32903   0.23082   0.89625   0.00000  Uiso   1.00
H1013  H     0.30382   0.23346   0.94824   0.00000  Uiso   1.00
H1014  H     0.32933   0.28413   0.92827   0.00000  Uiso   1.00
H1015  H     0.03433   0.23855   0.99243   0.00000  Uiso   1.00
H1016  H     0.06148   0.25250   0.94613   0.00000  Uiso   1.00
H1017  H     0.04343   0.16417   0.91648   0.00000  Uiso   1.00
H1018  H     0.02276   0.15638   0.96663   0.00000  Uiso   1.00
H1019  H     0.31401   0.24476   0.60774   0.00000  Uiso   1.00
H1020  H     0.00633   0.18874   0.61161   0.00000  Uiso   1.00
H1021  H     0.12085   0.04423   0.69736   0.00000  Uiso   1.00
H1022  H     0.02555   0.23603   0.57843   0.00000  Uiso   1.00
H1023  H     0.32526   0.19028   0.52244   0.00000  Uiso   1.00
H1024  H     0.28796   0.23311   0.53311   0.00000  Uiso   1.00
H1025  H     0.27163   0.15876   0.59353   0.00000  Uiso   1.00
H1026  H     0.29223   0.12743   0.55036   0.00000  Uiso   1.00
H1027  H     0.04874   0.15322   0.56467   0.00000  Uiso   1.00
H1028  H     0.06198   0.09903   0.54816   0.00000  Uiso   1.00
H1029  H     0.28018   0.16041   0.93826   0.00000  Uiso   1.00
H1030  H     0.26826   0.10449   0.95185   0.00000  Uiso   1.00
H1031  H     0.05825   0.07181   0.77648   0.00000  Uiso   1.00
H1032  H     0.21233   0.28907   0.80278   0.00000  Uiso   1.00
H1033  H     0.06657   0.10888   0.82084   0.00000  Uiso   1.00
H1034  H     0.29485   0.24866   0.68058   0.00000  Uiso   1.00
H1035  H     0.29698   0.27460   0.73139   0.00000  Uiso   1.00
H1036  H     0.27515   0.10740   0.81977   0.00000  Uiso   1.00
H1037  H     0.27913   0.07140   0.77469   0.00000  Uiso   1.00
H1038  H     0.03415   0.27405   0.72615   0.00000  Uiso   1.00
H1039  H     0.03082   0.24412   0.67714   0.00000  Uiso   1.00
H1040  H     0.21207   0.04304   0.80303   0.00000  Uiso   1.00
H1041  H     0.12085   0.29024   0.69739   0.00000  Uiso   1.00
H1042  H     0.09444   0.28807   0.81165   0.00000  Uiso   1.00
H1043  H     0.06149   0.30162   0.85592   0.00000  Uiso   1.00
H1044  H     0.10682   0.00241   0.84927   0.00000  Uiso   1.00
N1045  N     0.16667   0.28402   0.75000   0.00000  Uiso   1.00
N1046  N     0.16667   0.04931   0.75000   0.00000  Uiso   1.00
N1047  N     0.05519   0.13327   0.53714   0.00000  Uiso   1.00
N1048  N     0.27326   0.13824   0.96452   0.00000  Uiso   1.00
N1049  N     0.04453   0.09393   0.79874   0.00000  Uiso   1.00
N1050  N     0.28831   0.24427   0.71389   0.00000  Uiso   1.00
N1051  N     0.29498   0.09310   0.79761   0.00000  Uiso   1.00
N1052  N     0.04086   0.24237   0.71080   0.00000  Uiso   1.00
O1053  O     0.10655   0.20625   0.75000   0.00000  Uiso   1.00
O1054  O     0.22679   0.12709   0.75001   0.00000  Uiso   1.00
O1055  O     0.22679   0.20625   0.75001   0.00000  Uiso   1.00
O1056  O     0.10655   0.12709   0.75000   0.00000  Uiso   1.00
O1057  O     0.16666   0.20627   0.68513   0.00000  Uiso   1.00
O1058  O     0.16668   0.12707   0.81487   0.00000  Uiso   1.00
O1059  O     0.16668   0.20627   0.81487   0.00000  Uiso   1.00
O1060  O     0.16666   0.12707   0.68513   0.00000  Uiso   1.00
C1061  C     0.42073   0.16670   0.75061   0.00000  Uiso   1.00
C1062  C     0.37624   0.16700   0.75204   0.00000  Uiso   1.00
C1063  C     0.47453   0.02516   0.72076   0.00000  Uiso   1.00
C1064  C     0.52537   0.30815   0.77933   0.00000  Uiso   1.00
C1065  C     0.52530   0.02451   0.77940   0.00000  Uiso   1.00
C1066  C     0.47450   0.30880   0.72079   0.00000  Uiso   1.00
C1067  C     0.49848   0.16695   0.66420   0.00000  Uiso   1.00
C1068  C     0.49996   0.16656   0.83565   0.00000  Uiso   1.00
C1069  C     0.53195   0.15366   0.90986   0.00000  Uiso   1.00
C1070  C     0.46291   0.15161   0.59092   0.00000  Uiso   1.00
C1071  C     0.49721   0.16647   0.88385   0.00000  Uiso   1.00
C1072  C     0.57941   0.16667   0.75085   0.00000  Uiso   1.00
C1073  C     0.49745   0.16764   0.61559   0.00000  Uiso   1.00
C1074  C     0.46156   0.18194   0.90347   0.00000  Uiso   1.00
C1075  C     0.53016   0.18587   0.59330   0.00000  Uiso   1.00
C1076  C     0.45870   0.17278   0.95031   0.00000  Uiso   1.00
C1077  C     0.53310   0.17315   0.54836   0.00000  Uiso   1.00
C1078  C     0.49599   0.16540   0.97622   0.00000  Uiso   1.00
C1079  C     0.49644   0.16541   0.52282   0.00000  Uiso   1.00
C1080  C     0.53301   0.15819   0.95610   0.00000  Uiso   1.00
C1081  C     0.46056   0.15648   0.54410   0.00000  Uiso   1.00
C1082  C     0.42162   0.16728   0.97270   0.00000  Uiso   1.00
C1083  C     0.42380   0.15233   0.51806   0.00000  Uiso   1.00
C1084  C     0.57047   0.16486   0.52893   0.00000  Uiso   1.00
C1085  C     0.43417   0.21618   0.87545   0.00000  Uiso   1.00
C1086  C     0.45136   0.26642   0.87814   0.00000  Uiso   1.00
C1087  C     0.42691   0.29995   0.84675   0.00000  Uiso   1.00
C1088  C     0.55418   0.22699   0.61308   0.00000  Uiso   1.00
C1089  C     0.52839   0.27218   0.61164   0.00000  Uiso   1.00
C1090  C     0.55031   0.31169   0.63736   0.00000  Uiso   1.00
C1091  C     0.37968   0.17736   0.95110   0.00000  Uiso   1.00
C1092  C     0.36974   0.23012   0.95666   0.00000  Uiso   1.00
C1093  C     0.66388   0.24519   0.93061   0.00000  Uiso   1.00
C1094  C     0.56987   0.15413   0.98296   0.00000  Uiso   1.00
C1095  C     0.61020   0.16115   0.55743   0.00000  Uiso   1.00
C1096  C     0.63846   0.20237   0.54774   0.00000  Uiso   1.00
C1097  C     0.66422   0.21864   0.58897   0.00000  Uiso   1.00
C1098  C     0.35608   0.13059   0.77417   0.00000  Uiso   1.00
C1099  C     0.64443   0.20507   0.73281   0.00000  Uiso   1.00
C1100  C     0.64709   0.13039   0.77389   0.00000  Uiso   1.00
C1101  C     0.35367   0.20469   0.73217   0.00000  Uiso   1.00
C1102  C     0.62417   0.16701   0.75215   0.00000  Uiso   1.00
Cu1103 Cu    0.50000   0.21355   0.75000   0.00000  Uiso   1.00
Cu1104 Cu    0.50000   0.11978   0.75000   0.00000  Uiso   1.00
H1105  H     0.55887   0.14401   0.89315   0.00000  Uiso   1.00
H1106  H     0.45083   0.27950   0.91284   0.00000  Uiso   1.00
H1107  H     0.48354   0.26703   0.86937   0.00000  Uiso   1.00
H1108  H     0.43107   0.20473   0.84025   0.00000  Uiso   1.00
H1109  H     0.40245   0.21777   0.88275   0.00000  Uiso   1.00
H1110  H     0.55544   0.30182   0.67316   0.00000  Uiso   1.00
H1111  H     0.58001   0.31910   0.62328   0.00000  Uiso   1.00
H1112  H     0.53144   0.01077   0.63489   0.00000  Uiso   1.00
H1113  H     0.52234   0.28353   0.57629   0.00000  Uiso   1.00
H1114  H     0.49850   0.26637   0.62574   0.00000  Uiso   1.00
H1115  H     0.56608   0.21816   0.64750   0.00000  Uiso   1.00
H1116  H     0.43723   0.13989   0.60878   0.00000  Uiso   1.00
H1117  H     0.58018   0.23527   0.59348   0.00000  Uiso   1.00
H1118  H     0.66236   0.23082   0.89625   0.00000  Uiso   1.00
H1119  H     0.63715   0.23346   0.94824   0.00000  Uiso   1.00
H1120  H     0.66266   0.28413   0.92827   0.00000  Uiso   1.00
H1121  H     0.36767   0.23855   0.99243   0.00000  Uiso   1.00
H1122  H     0.39481   0.25250   0.94613   0.00000  Uiso   1.00
H1123  H     0.37676   0.16417   0.91648   0.00000  Uiso   1.00
H1124  H     0.35609   0.15638   0.96663   0.00000  Uiso   1.00
H1125  H     0.64734   0.24476   0.60774   0.00000  Uiso   1.00
H1126  H     0.33966   0.18874   0.61161   0.00000  Uiso   1.00
H1127  H     0.45418   0.04423   0.69736   0.00000  Uiso   1.00
H1128  H     0.35889   0.23603   0.57843   0.00000  Uiso   1.00
H1129  H     0.65859   0.19028   0.52244   0.00000  Uiso   1.00
H1130  H     0.62129   0.23311   0.53311   0.00000  Uiso   1.00
H1131  H     0.60496   0.15876   0.59353   0.00000  Uiso   1.00
H1132  H     0.62556   0.12743   0.55036   0.00000  Uiso   1.00
H1133  H     0.38207   0.15322   0.56467   0.00000  Uiso   1.00
H1134  H     0.39532   0.09903   0.54816   0.00000  Uiso   1.00
H1135  H     0.61351   0.16041   0.93826   0.00000  Uiso   1.00
H1136  H     0.60159   0.10449   0.95185   0.00000  Uiso   1.00
H1137  H     0.39159   0.07181   0.77648   0.00000  Uiso   1.00
H1138  H     0.54566   0.28907   0.80278   0.00000  Uiso   1.00
H1139  H     0.39991   0.10888   0.82084   0.00000  Uiso   1.00
H1140  H     0.62818   0.24866   0.68058   0.00000  Uiso   1.00
H1141  H     0.63031   0.27460   0.73139   0.00000  Uiso   1.00
H1142  H     0.60848   0.10740   0.81977   0.00000  Uiso   1.00
H1143  H     0.61246   0.07140   0.77469   0.00000  Uiso   1.00
H1144  H     0.36749   0.27405   0.72615   0.00000  Uiso   1.00
H1145  H     0.36415   0.24412   0.67714   0.00000  Uiso   1.00
H1146  H     0.54540   0.04304   0.80303   0.00000  Uiso   1.00
H1147  H     0.45418   0.29024   0.69739   0.00000  Uiso   1.00
H1148  H     0.42777   0.28807   0.81165   0.00000  Uiso   1.00
H1149  H     0.39482   0.30162   0.85592   0.00000  Uiso   1.00
H1150  H     0.44016   0.00241   0.84927   0.00000  Uiso   1.00
N1151  N     0.50000   0.28402   0.75000   0.00000  Uiso   1.00
N1152  N     0.50000   0.04931   0.75000   0.00000  Uiso   1.00
N1153  N     0.38852   0.13327   0.53714   0.00000  Uiso   1.00
N1154  N     0.60659   0.13824   0.96452   0.00000  Uiso   1.00
N1155  N     0.37787   0.09393   0.79874   0.00000  Uiso   1.00
N1156  N     0.62164   0.24427   0.71389   0.00000  Uiso   1.00
N1157  N     0.62831   0.09310   0.79761   0.00000  Uiso   1.00
N1158  N     0.37419   0.24237   0.71080   0.00000  Uiso   1.00
O1159  O     0.43988   0.20625   0.75000   0.00000  Uiso   1.00
O1160  O     0.56012   0.12709   0.75001   0.00000  Uiso   1.00
O1161  O     0.56012   0.20625   0.75001   0.00000  Uiso   1.00
O1162  O     0.43988   0.12709   0.75000   0.00000  Uiso   1.00
O1163  O     0.49999   0.20627   0.68513   0.00000  Uiso   1.00
O1164  O     0.50001   0.12707   0.81487   0.00000  Uiso   1.00
O1165  O     0.50001   0.20627   0.81487   0.00000  Uiso   1.00
O1166  O     0.49999   0.12707   0.68513   0.00000  Uiso   1.00
C1167  C     0.75406   0.16670   0.75061   0.00000  Uiso   1.00
C1168  C     0.70957   0.16700   0.75204   0.00000  Uiso   1.00
C1169  C     0.80786   0.02516   0.72076   0.00000  Uiso   1.00
C1170  C     0.85871   0.30815   0.77933   0.00000  Uiso   1.00
C1171  C     0.85863   0.02451   0.77940   0.00000  Uiso   1.00
C1172  C     0.80784   0.30880   0.72079   0.00000  Uiso   1.00
C1173  C     0.83181   0.16695   0.66420   0.00000  Uiso   1.00
C1174  C     0.83329   0.16656   0.83565   0.00000  Uiso   1.00
C1175  C     0.86528   0.15366   0.90986   0.00000  Uiso   1.00
C1176  C     0.79625   0.15161   0.59092   0.00000  Uiso   1.00
C1177  C     0.83054   0.16647   0.88385   0.00000  Uiso   1.00
C1178  C     0.91274   0.16667   0.75085   0.00000  Uiso   1.00
C1179  C     0.83078   0.16764   0.61559   0.00000  Uiso   1.00
C1180  C     0.79489   0.18194   0.90347   0.00000  Uiso   1.00
C1181  C     0.86350   0.18587   0.59330   0.00000  Uiso   1.00
C1182  C     0.79203   0.17278   0.95031   0.00000  Uiso   1.00
C1183  C     0.86643   0.17315   0.54836   0.00000  Uiso   1.00
C1184  C     0.82933   0.16540   0.97622   0.00000  Uiso   1.00
C1185  C     0.82977   0.16541   0.52282   0.00000  Uiso   1.00
C1186  C     0.86635   0.15819   0.95610   0.00000  Uiso   1.00
C1187  C     0.79389   0.15648   0.54410   0.00000  Uiso   1.00
C1188  C     0.75495   0.16728   0.97270   0.00000  Uiso   1.00
C1189  C     0.75713   0.15233   0.51806   0.00000  Uiso   1.00
C1190  C     0.90380   0.16486   0.52893   0.00000  Uiso   1.00
C1191  C     0.76751   0.21618   0.87545   0.00000  Uiso   1.00
C1192  C     0.78469   0.26642   0.87814   0.00000  Uiso   1.00
C1193  C     0.76024   0.29995   0.84675   0.00000  Uiso   1.00
C1194  C     0.88751   0.22699   0.61308   0.00000  Uiso   1.00
C1195  C     0.86172   0.27218   0.61164   0.00000  Uiso   1.00
C1196  C     0.88364   0.31169   0.63736   0.00000  Uiso   1.00
C1197  C     0.71302   0.17736   0.95110   0.00000  Uiso   1.00
C1198  C     0.70308   0.23012   0.95666   0.00000  Uiso   1.00
C1199  C     0.99722   0.24519   0.93061   0.00000  Uiso   1.00
C1200  C     0.90321   0.15413   0.98296   0.00000  Uiso   1.00
C1201  C     0.94354   0.16115   0.55743   0.00000  Uiso   1.00
C1202  C     0.97179   0.20237   0.54774   0.00000  Uiso   1.00
C1203  C     0.99756   0.21864   0.58897   0.00000  Uiso   1.00
C1204  C     0.68941   0.13059   0.77417   0.00000  Uiso   1.00
C1205  C     0.97777   0.20507   0.73281   0.00000  Uiso   1.00
C1206  C     0.98042   0.13039   0.77389   0.00000  Uiso   1.00
C1207  C     0.68700   0.20469   0.73217   0.00000  Uiso   1.00
C1208  C     0.95751   0.16701   0.75215   0.00000  Uiso   1.00
Cu1209 Cu    0.83333   0.21355   0.75000   0.00000  Uiso   1.00
Cu1210 Cu    0.83333   0.11978   0.75000   0.00000  Uiso   1.00
H1211  H     0.89221   0.14401   0.89315   0.00000  Uiso   1.00
H1212  H     0.78416   0.27950   0.91284   0.00000  Uiso   1.00
H1213  H     0.81688   0.26703   0.86937   0.00000  Uiso   1.00
H1214  H     0.76440   0.20473   0.84025   0.00000  Uiso   1.00
H1215  H     0.73579   0.21777   0.88275   0.00000  Uiso   1.00
H1216  H     0.88877   0.30182   0.67316   0.00000  Uiso   1.00
H1217  H     0.91334   0.31910   0.62328   0.00000  Uiso   1.00
H1218  H     0.86478   0.01077   0.63489   0.00000  Uiso   1.00
H1219  H     0.85567   0.28353   0.57629   0.00000  Uiso   1.00
H1220  H     0.83183   0.26637   0.62574   0.00000  Uiso   1.00
H1221  H     0.89942   0.21816   0.64750   0.00000  Uiso   1.00
H1222  H     0.77056   0.13989   0.60878   0.00000  Uiso   1.00
H1223  H     0.91351   0.23527   0.59348   0.00000  Uiso   1.00
H1224  H     0.99570   0.23082   0.89625   0.00000  Uiso   1.00
H1225  H     0.97048   0.23346   0.94824   0.00000  Uiso   1.00
H1226  H     0.99600   0.28413   0.92827   0.00000  Uiso   1.00
H1227  H     0.70100   0.23855   0.99243   0.00000  Uiso   1.00
H1228  H     0.72814   0.25250   0.94613   0.00000  Uiso   1.00
H1229  H     0.71010   0.16417   0.91648   0.00000  Uiso   1.00
H1230  H     0.68943   0.15638   0.96663   0.00000  Uiso   1.00
H1231  H     0.98067   0.24476   0.60774   0.00000  Uiso   1.00
H1232  H     0.67300   0.18874   0.61161   0.00000  Uiso   1.00
H1233  H     0.78752   0.04423   0.69736   0.00000  Uiso   1.00
H1234  H     0.69222   0.23603   0.57843   0.00000  Uiso   1.00
H1235  H     0.99193   0.19028   0.52244   0.00000  Uiso   1.00
H1236  H     0.95462   0.23311   0.53311   0.00000  Uiso   1.00
H1237  H     0.93830   0.15876   0.59353   0.00000  Uiso   1.00
H1238  H     0.95890   0.12743   0.55036   0.00000  Uiso   1.00
H1239  H     0.71541   0.15322   0.56467   0.00000  Uiso   1.00
H1240  H     0.72865   0.09903   0.54816   0.00000  Uiso   1.00
H1241  H     0.94685   0.16041   0.93826   0.00000  Uiso   1.00
H1242  H     0.93492   0.10449   0.95185   0.00000  Uiso   1.00
H1243  H     0.72492   0.07181   0.77648   0.00000  Uiso   1.00
H1244  H     0.87899   0.28907   0.80278   0.00000  Uiso   1.00
H1245  H     0.73324   0.10888   0.82084   0.00000  Uiso   1.00
H1246  H     0.96151   0.24866   0.68058   0.00000  Uiso   1.00
H1247  H     0.96364   0.27460   0.73139   0.00000  Uiso   1.00
H1248  H     0.94181   0.10740   0.81977   0.00000  Uiso   1.00
H1249  H     0.94579   0.07140   0.77469   0.00000  Uiso   1.00
H1250  H     0.70082   0.27405   0.72615   0.00000  Uiso   1.00
H1251  H     0.69748   0.24412   0.67714   0.00000  Uiso   1.00
H1252  H     0.87874   0.04304   0.80303   0.00000  Uiso   1.00
H1253  H     0.78751   0.29024   0.69739   0.00000  Uiso   1.00
H1254  H     0.76110   0.28807   0.81165   0.00000  Uiso   1.00
H1255  H     0.72815   0.30162   0.85592   0.00000  Uiso   1.00
H1256  H     0.77349   0.00241   0.84927   0.00000  Uiso   1.00
N1257  N     0.83333   0.28402   0.75000   0.00000  Uiso   1.00
N1258  N     0.83333   0.04931   0.75000   0.00000  Uiso   1.00
N1259  N     0.72186   0.13327   0.53714   0.00000  Uiso   1.00
N1260  N     0.93992   0.13824   0.96452   0.00000  Uiso   1.00
N1261  N     0.71120   0.09393   0.79874   0.00000  Uiso   1.00
N1262  N     0.95497   0.24427   0.71389   0.00000  Uiso   1.00
N1263  N     0.96165   0.09310   0.79761   0.00000  Uiso   1.00
N1264  N     0.70752   0.24237   0.71080   0.00000  Uiso   1.00
O1265  O     0.77321   0.20625   0.75000   0.00000  Uiso   1.00
O1266  O     0.89345   0.12709   0.75001   0.00000  Uiso   1.00
O1267  O     0.89345   0.20625   0.75001   0.00000  Uiso   1.00
O1268  O     0.77321   0.12709   0.75000   0.00000  Uiso   1.00
O1269  O     0.83332   0.20627   0.68513   0.00000  Uiso   1.00
O1270  O     0.83334   0.12707   0.81487   0.00000  Uiso   1.00
O1271  O     0.83334   0.20627   0.81487   0.00000  Uiso   1.00
O1272  O     0.83332   0.12707   0.68513   0.00000  Uiso   1.00
C1273  C     0.08740   0.50003   0.75061   0.00000  Uiso   1.00
C1274  C     0.04291   0.50033   0.75204   0.00000  Uiso   1.00
C1275  C     0.14120   0.35850   0.72076   0.00000  Uiso   1.00
C1276  C     0.19204   0.64149   0.77933   0.00000  Uiso   1.00
C1277  C     0.19196   0.35784   0.77940   0.00000  Uiso   1.00
C1278  C     0.14117   0.64214   0.72079   0.00000  Uiso   1.00
C1279  C     0.16515   0.50028   0.66420   0.00000  Uiso   1.00
C1280  C     0.16662   0.49989   0.83565   0.00000  Uiso   1.00
C1281  C     0.19861   0.48700   0.90986   0.00000  Uiso   1.00
C1282  C     0.12958   0.48494   0.59092   0.00000  Uiso   1.00
C1283  C     0.16388   0.49980   0.88385   0.00000  Uiso   1.00
C1284  C     0.24607   0.50000   0.75085   0.00000  Uiso   1.00
C1285  C     0.16412   0.50097   0.61559   0.00000  Uiso   1.00
C1286  C     0.12823   0.51527   0.90347   0.00000  Uiso   1.00
C1287  C     0.19683   0.51921   0.59330   0.00000  Uiso   1.00
C1288  C     0.12537   0.50611   0.95031   0.00000  Uiso   1.00
C1289  C     0.19976   0.50649   0.54836   0.00000  Uiso   1.00
C1290  C     0.16266   0.49874   0.97622   0.00000  Uiso   1.00
C1291  C     0.16310   0.49875   0.52282   0.00000  Uiso   1.00
C1292  C     0.19968   0.49152   0.95610   0.00000  Uiso   1.00
C1293  C     0.12722   0.48981   0.54410   0.00000  Uiso   1.00
C1294  C     0.08829   0.50062   0.97270   0.00000  Uiso   1.00
C1295  C     0.09047   0.48566   0.51806   0.00000  Uiso   1.00
C1296  C     0.23713   0.49820   0.52893   0.00000  Uiso   1.00
C1297  C     0.10084   0.54951   0.87545   0.00000  Uiso   1.00
C1298  C     0.11803   0.59975   0.87814   0.00000  Uiso   1.00
C1299  C     0.09358   0.63328   0.84675   0.00000  Uiso   1.00
C1300  C     0.22084   0.56032   0.61308   0.00000  Uiso   1.00
C1301  C     0.19505   0.60551   0.61164   0.00000  Uiso   1.00
C1302  C     0.21697   0.64502   0.63736   0.00000  Uiso   1.00
C1303  C     0.04635   0.51069   0.95110   0.00000  Uiso   1.00
C1304  C     0.03641   0.56346   0.95666   0.00000  Uiso   1.00
C1305  C     0.33055   0.57852   0.93061   0.00000  Uiso   1.00
C1306  C     0.23654   0.48747   0.98296   0.00000  Uiso   1.00
C1307  C     0.27687   0.49448   0.55743   0.00000  Uiso   1.00
C1308  C     0.30512   0.53570   0.54774   0.00000  Uiso   1.00
C1309  C     0.33089   0.55197   0.58897   0.00000  Uiso   1.00
C1310  C     0.02275   0.46393   0.77417   0.00000  Uiso   1.00
C1311  C     0.31110   0.53840   0.73281   0.00000  Uiso   1.00
C1312  C     0.31376   0.46372   0.77389   0.00000  Uiso   1.00
C1313  C     0.02034   0.53802   0.73217   0.00000  Uiso   1.00
C1314  C     0.29084   0.50035   0.75215   0.00000  Uiso   1.00
Cu1315 Cu    0.16667   0.54689   0.75000   0.00000  Uiso   1.00
Cu1316 Cu    0.16667   0.45311   0.75000   0.00000  Uiso   1.00
H1317  H     0.22554   0.47734   0.89315   0.00000  Uiso   1.00
H1318  H     0.11749   0.61284   0.91284   0.00000  Uiso   1.00
H1319  H     0.15021   0.60036   0.86937   0.00000  Uiso   1.00
H1320  H     0.09773   0.53806   0.84025   0.00000  Uiso   1.00
H1321  H     0.06912   0.55110   0.88275   0.00000  Uiso   1.00
H1322  H     0.22210   0.63515   0.67316   0.00000  Uiso   1.00
H1323  H     0.24668   0.65243   0.62328   0.00000  Uiso   1.00
H1324  H     0.19811   0.34410   0.63489   0.00000  Uiso   1.00
H1325  H     0.18900   0.61686   0.57629   0.00000  Uiso   1.00
H1326  H     0.16516   0.59971   0.62574   0.00000  Uiso   1.00
H1327  H     0.23275   0.55149   0.64750   0.00000  Uiso   1.00
H1328  H     0.10390   0.47323   0.60878   0.00000  Uiso   1.00
H1329  H     0.24685   0.56860   0.59348   0.00000  Uiso   1.00
H1330  H     0.32903   0.56415   0.89625   0.00000  Uiso   1.00
H1331  H     0.30382   0.56680   0.94824   0.00000  Uiso   1.00
H1332  H     0.32933   0.61746   0.92827   0.00000  Uiso   1.00
H1333  H     0.03433   0.57188   0.99243   0.00000  Uiso   1.00
H1334  H     0.06148   0.58583   0.94613   0.00000  Uiso   1.00
H1335  H     0.04343   0.49750   0.91648   0.00000  Uiso   1.00
H1336  H     0.02276   0.48972   0.96663   0.00000  Uiso   1.00
H1337  H     0.31401   0.57810   0.60774   0.00000  Uiso   1.00
H1338  H     0.00633   0.52208   0.61161   0.00000  Uiso   1.00
H1339  H     0.12085   0.37757   0.69736   0.00000  Uiso   1.00
H1340  H     0.02555   0.56937   0.57843   0.00000  Uiso   1.00
H1341  H     0.32526   0.52361   0.52244   0.00000  Uiso   1.00
H1342  H     0.28796   0.56644   0.53311   0.00000  Uiso   1.00
H1343  H     0.27163   0.49209   0.59353   0.00000  Uiso   1.00
H1344  H     0.29223   0.46076   0.55036   0.00000  Uiso   1.00
H1345  H     0.04874   0.48655   0.56467   0.00000  Uiso   1.00
H1346  H     0.06198   0.43236   0.54816   0.00000  Uiso   1.00
H1347  H     0.28018   0.49374   0.93826   0.00000  Uiso   1.00
H1348  H     0.26826   0.43783   0.95185   0.00000  Uiso   1.00
H1349  H     0.05825   0.40514   0.77648   0.00000  Uiso   1.00
H1350  H     0.21233   0.62240   0.80278   0.00000  Uiso   1.00
H1351  H     0.06657   0.44222   0.82084   0.00000  Uiso   1.00
H1352  H     0.29485   0.58199   0.68058   0.00000  Uiso   1.00
H1353  H     0.29698   0.60793   0.73139   0.00000  Uiso   1.00
H1354  H     0.27515   0.44073   0.81977   0.00000  Uiso   1.00
H1355  H     0.27913   0.40473   0.77469   0.00000  Uiso   1.00
H1356  H     0.03415   0.60738   0.72615   0.00000  Uiso   1.00
H1357  H     0.03082   0.57745   0.67714   0.00000  Uiso   1.00
H1358  H     0.21207   0.37638   0.80303   0.00000  Uiso   1.00
H1359  H     0.12085   0.62357   0.69739   0.00000  Uiso   1.00
H1360  H     0.09444   0.62140   0.81165   0.00000  Uiso   1.00
H1361  H     0.06149   0.63495   0.85592   0.00000  Uiso   1.00
H1362  H     0.10682   0.33574   0.84927   0.00000  Uiso   1.00
N1363  N     0.16667   0.61736   0.75000   0.00000  Uiso   1.00
N1364  N     0.16667   0.38264   0.75000   0.00000  Uiso   1.00
N1365  N     0.05519   0.46660   0.53714   0.00000  Uiso   1.00
N1366  N     0.27326   0.47157   0.96452   0.00000  Uiso   1.00
N1367  N     0.04453   0.42727   0.79874   0.00000  Uiso   1.00
N1368  N     0.28831   0.57760   0.71389   0.00000  Uiso   1.00
N1369  N     0.29498   0.42644   0.79761   0.00000  Uiso   1.00
N1370  N     0.04086   0.57570   0.71080   0.00000  Uiso   1.00
O1371  O     0.10655   0.53958   0.75000   0.00000  Uiso   1.00
O1372  O     0.22679   0.46042   0.75001   0.00000  Uiso   1.00
O1373  O     0.22679   0.53958   0.75001   0.00000  Uiso   1.00
O1374  O     0.10655   0.46042   0.75000   0.00000  Uiso   1.00
O1375  O     0.16666   0.53960   0.68513   0.00000  Uiso   1.00
O1376  O     0.16668   0.46040   0.81487   0.00000  Uiso   1.00
O1377  O     0.16668   0.53960   0.81487   0.00000  Uiso   1.00
O1378  O     0.16666   0.46040   0.68513   0.00000  Uiso   1.00
C1379  C     0.42073   0.50003   0.75061   0.00000  Uiso   1.00
C1380  C     0.37624   0.50033   0.75204   0.00000  Uiso   1.00
C1381  C     0.47453   0.35850   0.72076   0.00000  Uiso   1.00
C1382  C     0.52537   0.64149   0.77933   0.00000  Uiso   1.00
C1383  C     0.52530   0.35784   0.77940   0.00000  Uiso   1.00
C1384  C     0.47450   0.64214   0.72079   0.00000  Uiso   1.00
C1385  C     0.49848   0.50028   0.66420   0.00000  Uiso   1.00
C1386  C     0.49996   0.49989   0.83565   0.00000  Uiso   1.00
C1387  C     0.53195   0.48700   0.90986   0.00000  Uiso   1.00
C1388  C     0.46291   0.48494   0.59092   0.00000  Uiso   1.00
C1389  C     0.49721   0.49980   0.88385   0.00000  Uiso   1.00
C1390  C     0.57941   0.50000   0.75085   0.00000  Uiso   1.00
C1391  C     0.49745   0.50097   0.61559   0.00000  Uiso   1.00
C1392  C     0.46156   0.51527   0.90347   0.00000  Uiso   1.00
C1393  C     0.53016   0.51921   0.59330   0.00000  Uiso   1.00
C1394  C     0.45870   0.50611   0.95031   0.00000  Uiso   1.00
C1395  C     0.53310   0.50649   0.54836   0.00000  Uiso   1.00
C1396  C     0.49599   0.49874   0.97622   0.00000  Uiso   1.00
C1397  C     0.49644   0.49875   0.52282   0.00000  Uiso   1.00
C1398  C     0.53301   0.49152   0.95610   0.00000  Uiso   1.00
C1399  C     0.46056   0.48981   0.54410   0.00000  Uiso   1.00
C1400  C     0.42162   0.50062   0.97270   0.00000  Uiso   1.00
C1401  C     0.42380   0.48566   0.51806   0.00000  Uiso   1.00
C1402  C     0.57047   0.49820   0.52893   0.00000  Uiso   1.00
C1403  C     0.43417   0.54951   0.87545   0.00000  Uiso   1.00
C1404  C     0.45136   0.59975   0.87814   0.00000  Uiso   1.00
C1405  C     0.42691   0.63328   0.84675   0.00000  Uiso   1.00
C1406  C     0.55418   0.56032   0.61308   0.00000  Uiso   1.00
C1407  C     0.52839   0.60551   0.61164   0.00000  Uiso   1.00
C1408  C     0.55031   0.64502   0.63736   0.00000  Uiso   1.00
C1409  C     0.37968   0.51069   0.95110   0.00000  Uiso   1.00
C1410  C     0.36974   0.56346   0.95666   0.00000  Uiso   1.00
C1411  C     0.66388   0.57852   0.93061   0.00000  Uiso   1.00
C1412  C     0.56987   0.48747   0.98296   0.00000  Uiso   1.00
C1413  C     0.61020   0.49448   0.55743   0.00000  Uiso   1.00
C1414  C     0.63846   0.53570   0.54774   0.00000  Uiso   1.00
C1415  C     0.66422   0.55197   0.58897   0.00000  Uiso   1.00
C1416  C     0.35608   0.46393   0.77417   0.00000  Uiso   1.00
C1417  C     0.64443   0.53840   0.73281   0.00000  Uiso   1.00
C1418  C     0.64709   0.46372   0.77389   0.00000  Uiso   1.00
C1419  C     0.35367   0.53802   0.73217   0.00000  Uiso   1.00
C1420  C     0.62417   0.50035   0.75215   0.00000  Uiso   1.00
Cu1421 Cu    0.50000   0.54689   0.75000   0.00000  Uiso   1.00
Cu1422 Cu    0.50000   0.45311   0.75000   0.00000  Uiso   1.00
H1423  H     0.55887   0.47734   0.89315   0.00000  Uiso   1.00
H1424  H     0.45083   0.61284   0.91284   0.00000  Uiso   1.00
H1425  H     0.48354   0.60036   0.86937   0.00000  Uiso   1.00
H1426  H     0.43107   0.53806   0.84025   0.00000  Uiso   1.00
H1427  H     0.40245   0.55110   0.88275   0.00000  Uiso   1.00
H1428  H     0.55544   0.63515   0.67316   0.00000  Uiso   1.00
H1429  H     0.58001   0.65243   0.62328   0.00000  Uiso   1.00
H1430  H     0.53144   0.34410   0.63489   0.00000  Uiso   1.00
H1431  H     0.52234   0.61686   0.57629   0.00000  Uiso   1.00
H1432  H     0.49850   0.59971   0.62574   0.00000  Uiso   1.00
H1433  H     0.56608   0.55149   0.64750   0.00000  Uiso   1.00
H1434  H     0.43723   0.47323   0.60878   0.00000  Uiso   1.00
H1435  H     0.58018   0.56860   0.59348   0.00000  Uiso   1.00
H1436  H     0.66236   0.56415   0.89625   0.00000  Uiso   1.00
H1437  H     0.63715   0.56680   0.94824   0.00000  Uiso   1.00
H1438  H     0.66266   0.61746   0.92827   0.00000  Uiso   1.00
H1439  H     0.36767   0.57188   0.99243   0.00000  Uiso   1.00
H1440  H     0.39481   0.58583   0.94613   0.00000  Uiso   1.00
H1441  H     0.37676   0.49750   0.91648   0.00000  Uiso   1.00
H1442  H     0.35609   0.48972   0.96663   0.00000  Uiso   1.00
H1443  H     0.64734   0.57810   0.60774   0.00000  Uiso   1.00
H1444  H     0.33966   0.52208   0.61161   0.00000  Uiso   1.00
H1445  H     0.45418   0.37757   0.69736   0.00000  Uiso   1.00
H1446  H     0.35889   0.56937   0.57843   0.00000  Uiso   1.00
H1447  H     0.65859   0.52361   0.52244   0.00000  Uiso   1.00
H1448  H     0.62129   0.56644   0.53311   0.00000  Uiso   1.00
H1449  H     0.60496   0.49209   0.59353   0.00000  Uiso   1.00
H1450  H     0.62556   0.46076   0.55036   0.00000  Uiso   1.00
H1451  H     0.38207   0.48655   0.56467   0.00000  Uiso   1.00
H1452  H     0.39532   0.43236   0.54816   0.00000  Uiso   1.00
H1453  H     0.61351   0.49374   0.93826   0.00000  Uiso   1.00
H1454  H     0.60159   0.43783   0.95185   0.00000  Uiso   1.00
H1455  H     0.39159   0.40514   0.77648   0.00000  Uiso   1.00
H1456  H     0.54566   0.62240   0.80278   0.00000  Uiso   1.00
H1457  H     0.39991   0.44222   0.82084   0.00000  Uiso   1.00
H1458  H     0.62818   0.58199   0.68058   0.00000  Uiso   1.00
H1459  H     0.63031   0.60793   0.73139   0.00000  Uiso   1.00
H1460  H     0.60848   0.44073   0.81977   0.00000  Uiso   1.00
H1461  H     0.61246   0.40473   0.77469   0.00000  Uiso   1.00
H1462  H     0.36749   0.60738   0.72615   0.00000  Uiso   1.00
H1463  H     0.36415   0.57745   0.67714   0.00000  Uiso   1.00
H1464  H     0.54540   0.37638   0.80303   0.00000  Uiso   1.00
H1465  H     0.45418   0.62357   0.69739   0.00000  Uiso   1.00
H1466  H     0.42777   0.62140   0.81165   0.00000  Uiso   1.00
H1467  H     0.39482   0.63495   0.85592   0.00000  Uiso   1.00
H1468  H     0.44016   0.33574   0.84927   0.00000  Uiso   1.00
N1469  N     0.50000   0.61736   0.75000   0.00000  Uiso   1.00
N1470  N     0.50000   0.38264   0.75000   0.00000  Uiso   1.00
N1471  N     0.38852   0.46660   0.53714   0.00000  Uiso   1.00
N1472  N     0.60659   0.47157   0.96452   0.00000  Uiso   1.00
N1473  N     0.37787   0.42727   0.79874   0.00000  Uiso   1.00
N1474  N     0.62164   0.57760   0.71389   0.00000  Uiso   1.00
N1475  N     0.62831   0.42644   0.79761   0.00000  Uiso   1.00
N1476  N     0.37419   0.57570   0.71080   0.00000  Uiso   1.00
O1477  O     0.43988   0.53958   0.75000   0.00000  Uiso   1.00
O1478  O     0.56012   0.46042   0.75001   0.00000  Uiso   1.00
O1479  O     0.56012   0.53958   0.75001   0.00000  Uiso   1.00
O1480  O     0.43988   0.46042   0.75000   0.00000  Uiso   1.00
O1481  O     0.49999   0.53960   0.68513   0.00000  Uiso   1.00
O1482  O     0.50001   0.46040   0.81487   0.00000  Uiso   1.00
O1483  O     0.50001   0.53960   0.81487   0.00000  Uiso   1.00
O1484  O     0.49999   0.46040   0.68513   0.00000  Uiso   1.00
C1485  C     0.75406   0.50003   0.75061   0.00000  Uiso   1.00
C1486  C     0.70957   0.50033   0.75204   0.00000  Uiso   1.00
C1487  C     0.80786   0.35850   0.72076   0.00000  Uiso   1.00
C1488  C     0.85871   0.64149   0.77933   0.00000  Uiso   1.00
C1489  C     0.85863   0.35784   0.77940   0.00000  Uiso   1.00
C1490  C     0.80784   0.64214   0.72079   0.00000  Uiso   1.00
C1491  C     0.83181   0.50028   0.66420   0.00000  Uiso   1.00
C1492  C     0.83329   0.49989   0.83565   0.00000  Uiso   1.00
C1493  C     0.86528   0.48700   0.90986   0.00000  Uiso   1.00
C1494  C     0.79625   0.48494   0.59092   0.00000  Uiso   1.00
C1495  C     0.83054   0.49980   0.88385   0.00000  Uiso   1.00
C1496  C     0.91274   0.50000   0.75085   0.00000  Uiso   1.00
C1497  C     0.83078   0.50097   0.61559   0.00000  Uiso   1.00
C1498  C     0.79489   0.51527   0.90347   0.00000  Uiso   1.00
C1499  C     0.86350   0.51921   0.59330   0.00000  Uiso   1.00
C1500  C     0.79203   0.50611   0.95031   0.00000  Uiso   1.00
C1501  C     0.86643   0.50649   0.54836   0.00000  Uiso   1.00
C1502  C     0.82933   0.49874   0.97622   0.00000  Uiso   1.00
C1503  C     0.82977   0.49875   0.52282   0.00000  Uiso   1.00
C1504  C     0.86635   0.49152   0.95610   0.00000  Uiso   1.00
C1505  C     0.79389   0.48981   0.54410   0.00000  Uiso   1.00
C1506  C     0.75495   0.50062   0.97270   0.00000  Uiso   1.00
C1507  C     0.75713   0.48566   0.51806   0.00000  Uiso   1.00
C1508  C     0.90380   0.49820   0.52893   0.00000  Uiso   1.00
C1509  C     0.76751   0.54951   0.87545   0.00000  Uiso   1.00
C1510  C     0.78469   0.59975   0.87814   0.00000  Uiso   1.00
C1511  C     0.76024   0.63328   0.84675   0.00000  Uiso   1.00
C1512  C     0.88751   0.56032   0.61308   0.00000  Uiso   1.00
C1513  C     0.86172   0.60551   0.61164   0.00000  Uiso   1.00
C1514  C     0.88364   0.64502   0.63736   0.00000  Uiso   1.00
C1515  C     0.71302   0.51069   0.95110   0.00000  Uiso   1.00
C1516  C     0.70308   0.56346   0.95666   0.00000  Uiso   1.00
C1517  C     0.99722   0.57852   0.93061   0.00000  Uiso   1.00
C1518  C     0.90321   0.48747   0.98296   0.00000  Uiso   1.00
C1519  C     0.94354   0.49448   0.55743   0.00000  Uiso   1.00
C1520  C     0.97179   0.53570   0.54774   0.00000  Uiso   1.00
C1521  C     0.99756   0.55197   0.58897   0.00000  Uiso   1.00
C1522  C     0.68941   0.46393   0.77417   0.00000  Uiso   1.00
C1523  C     0.97777   0.53840   0.73281   0.00000  Uiso   1.00
C1524  C     0.98042   0.46372   0.77389   0.00000  Uiso   1.00
C1525  C     0.68700   0.53802   0.73217   0.00000  Uiso   1.00
C1526  C     0.95751   0.50035   0.75215   0.00000  Uiso   1.00
Cu1527 Cu    0.83333   0.54689   0.75000   0.00000  Uiso   1.00
Cu1528 Cu    0.83333   0.45311   0.75000   0.00000  Uiso   1.00
H1529  H     0.89221   0.47734   0.89315   0.00000  Uiso   1.00
H1530  H     0.78416   0.61284   0.91284   0.00000  Uiso   1.00
H1531  H     0.81688   0.60036   0.86937   0.00000  Uiso   1.00
H1532  H     0.76440   0.53806   0.84025   0.00000  Uiso   1.00
H1533  H     0.73579   0.55110   0.88275   0.00000  Uiso   1.00
H1534  H     0.88877   0.63515   0.67316   0.00000  Uiso   1.00
H1535  H     0.91334   0.65243   0.62328   0.00000  Uiso   1.00
H1536  H     0.86478   0.34410   0.63489   0.00000  Uiso   1.00
H1537  H     0.85567   0.61686   0.57629   0.00000  Uiso   1.00
H1538  H     0.83183   0.59971   0.62574   0.00000  Uiso   1.00
H1539  H     0.89942   0.55149   0.64750   0.00000  Uiso   1.00
H1540  H     0.77056   0.47323   0.60878   0.00000  Uiso   1.00
H1541  H     0.91351   0.56860   0.59348   0.00000  Uiso   1.00
H1542  H     0.99570   0.56415   0.89625   0.00000  Uiso   1.00
H1543  H     0.97048   0.56680   0.94824   0.00000  Uiso   1.00
H1544  H     0.99600   0.61746   0.92827   0.00000  Uiso   1.00
H1545  H     0.70100   0.57188   0.99243   0.00000  Uiso   1.00
H1546  H     0.72814   0.58583   0.94613   0.00000  Uiso   1.00
H1547  H     0.71010   0.49750   0.91648   0.00000  Uiso   1.00
H1548  H     0.68943   0.48972   0.96663   0.00000  Uiso   1.00
H1549  H     0.98067   0.57810   0.60774   0.00000  Uiso   1.00
H1550  H     0.67300   0.52208   0.61161   0.00000  Uiso   1.00
H1551  H     0.78752   0.37757   0.69736   0.00000  Uiso   1.00
H1552  H     0.69222   0.56937   0.57843   0.00000  Uiso   1.00
H1553  H     0.99193   0.52361   0.52244   0.00000  Uiso   1.00
H1554  H     0.95462   0.56644   0.53311   0.00000  Uiso   1.00
H1555  H     0.93830   0.49209   0.59353   0.00000  Uiso   1.00
H1556  H     0.95890   0.46076   0.55036   0.00000  Uiso   1.00
H1557  H     0.71541   0.48655   0.56467   0.00000  Uiso   1.00
H1558  H     0.72865   0.43236   0.54816   0.00000  Uiso   1.00
H1559  H     0.94685   0.49374   0.93826   0.00000  Uiso   1.00
H1560  H     0.93492   0.43783   0.95185   0.00000  Uiso   1.00
H1561  H     0.72492   0.40514   0.77648   0.00000  Uiso   1.00
H1562  H     0.87899   0.62240   0.80278   0.00000  Uiso   1.00
H1563  H     0.73324   0.44222   0.82084   0.00000  Uiso   1.00
H1564  H     0.96151   0.58199   0.68058   0.00000  Uiso   1.00
H1565  H     0.96364   0.60793   0.73139   0.00000  Uiso   1.00
H1566  H     0.94181   0.44073   0.81977   0.00000  Uiso   1.00
H1567  H     0.94579   0.40473   0.77469   0.00000  Uiso   1.00
H1568  H     0.70082   0.60738   0.72615   0.00000  Uiso   1.00
H1569  H     0.69748   0.57745   0.67714   0.00000  Uiso   1.00
H1570  H     0.87874   0.37638   0.80303   0.00000  Uiso   1.00
H1571  H     0.78751   0.62357   0.69739   0.00000  Uiso   1.00
H1572  H     0.76110   0.62140   0.81165   0.00000  Uiso   1.00
H1573  H     0.72815   0.63495   0.85592   0.00000  Uiso   1.00
H1574  H     0.77349   0.33574   0.84927   0.00000  Uiso   1.00
N1575  N     0.83333   0.61736   0.75000   0.00000  Uiso   1.00
N1576  N     0.83333   0.38264   0.75000   0.00000  Uiso   1.00
N1577  N     0.72186   0.46660   0.53714   0.00000  Uiso   1.00
N1578  N     0.93992   0.47157   0.96452   0.00000  Uiso   1.00
N1579  N     0.71120   0.42727   0.79874   0.00000  Uiso   1.00
N1580  N     0.95497   0.57760   0.71389   0.00000  Uiso   1.00
N1581  N     0.96165   0.42644   0.79761   0.00000  Uiso   1.00
N1582  N     0.70752   0.57570   0.71080   0.00000  Uiso   1.00
O1583  O     0.77321   0.53958   0.75000   0.00000  Uiso   1.00
O1584  O     0.89345   0.46042   0.75001   0.00000  Uiso   1.00
O1585  O     0.89345   0.53958   0.75001   0.00000  Uiso   1.00
O1586  O     0.77321   0.46042   0.75000   0.00000  Uiso   1.00
O1587  O     0.83332   0.53960   0.68513   0.00000  Uiso   1.00
O1588  O     0.83334   0.46040   0.81487   0.00000  Uiso   1.00
O1589  O     0.83334   0.53960   0.81487   0.00000  Uiso   1.00
O1590  O     0.83332   0.46040   0.68513   0.00000  Uiso   1.00
C1591  C     0.08740   0.83337   0.75061   0.00000  Uiso   1.00
C1592  C     0.04291   0.83367   0.75204   0.00000  Uiso   1.00
C1593  C     0.14120   0.69183   0.72076   0.00000  Uiso   1.00
C1594  C     0.19204   0.97482   0.77933   0.00000  Uiso   1.00
C1595  C     0.19196   0.69117   0.77940   0.00000  Uiso   1.00
C1596  C     0.14117   0.97547   0.72079   0.00000  Uiso   1.00
C1597  C     0.16515   0.83361   0.66420   0.00000  Uiso   1.00
C1598  C     0.16662   0.83322   0.83565   0.00000  Uiso   1.00
C1599  C     0.19861   0.82033   0.90986   0.00000  Uiso   1.00
C1600  C     0.12958   0.81828   0.59092   0.00000  Uiso   1.00
C1601  C     0.16388   0.83314   0.88385   0.00000  Uiso   1.00
C1602  C     0.24607   0.83334   0.75085   0.00000  Uiso   1.00
C1603  C     0.16412   0.83430   0.61559   0.00000  Uiso   1.00
C1604  C     0.12823   0.84860   0.90347   0.00000  Uiso   1.00
C1605  C     0.19683   0.85254   0.59330   0.00000  Uiso   1.00
C1606  C     0.12537   0.83945   0.95031   0.00000  Uiso   1.00
C1607  C     0.19976   0.83982   0.54836   0.00000  Uiso   1.00
C1608  C     0.16266   0.83207   0.97622   0.00000  Uiso   1.00
C1609  C     0.16310   0.83208   0.52282   0.00000  Uiso   1.00
C1610  C     0.19968   0.82486   0.95610   0.00000  Uiso   1.00
C1611  C     0.12722   0.82314   0.54410   0.00000  Uiso   1.00
C1612  C     0.08829   0.83395   0.97270   0.00000  Uiso   1.00
C1613  C     0.09047   0.81900   0.51806   0.00000  Uiso   1.00
C1614  C     0.23713   0.83153   0.52893   0.00000  Uiso   1.00
C1615  C     0.10084   0.88285   0.87545   0.00000  Uiso   1.00
C1616  C     0.11803   0.93308   0.87814   0.00000  Uiso   1.00
C1617  C     0.09358   0.96662   0.84675   0.00000  Uiso   1.00
C1618  C     0.22084   0.89365   0.61308   0.00000  Uiso   1.00
C1619  C     0.19505   0.93885   0.61164   0.00000  Uiso   1.00
C1620  C     0.21697   0.97835   0.63736   0.00000  Uiso   1.00
C1621  C     0.04635   0.84403   0.95110   0.00000  Uiso   1.00
C1622  C     0.03641   0.89679   0.95666   0.00000  Uiso   1.00
C1623  C     0.33055   0.91185   0.93061   0.00000  Uiso   1.00
C1624  C     0.23654   0.82080   0.98296   0.00000  Uiso   1.00
C1625  C     0.27687   0.82781   0.55743   0.00000  Uiso   1.00
C1626  C     0.30512   0.86904   0.54774   0.00000  Uiso   1.00
C1627  C     0.33089   0.88531   0.58897   0.00000  Uiso   1.00
C1628  C     0.02275   0.79726   0.77417   0.00000  Uiso   1.00
C1629  C     0.31110   0.87173   0.73281   0.00000  Uiso   1.00
C1630  C     0.31376   0.79705   0.77389   0.00000  Uiso   1.00
C1631  C     0.02034   0.87136   0.73217   0.00000  Uiso   1.00
C1632  C     0.29084   0.83368   0.75215   0.00000  Uiso   1.00
Cu1633 Cu    0.16667   0.88022   0.75000   0.00000  Uiso   1.00
Cu1634 Cu    0.16667   0.78645   0.75000   0.00000  Uiso   1.00
H1635  H     0.22554   0.81067   0.89315   0.00000  Uiso   1.00
H1636  H     0.11749   0.94617   0.91284   0.00000  Uiso   1.00
H1637  H     0.15021   0.93370   0.86937   0.00000  Uiso   1.00
H1638  H     0.09773   0.87139   0.84025   0.00000  Uiso   1.00
H1639  H     0.06912   0.88443   0.88275   0.00000  Uiso   1.00
H1640  H     0.22210   0.96848   0.67316   0.00000  Uiso   1.00
H1641  H     0.24668   0.98576   0.62328   0.00000  Uiso   1.00
H1642  H     0.19811   0.67743   0.63489   0.00000  Uiso   1.00
H1643  H     0.18900   0.95019   0.57629   0.00000  Uiso   1.00
H1644  H     0.16516   0.93304   0.62574   0.00000  Uiso   1.00
H1645  H     0.23275   0.88482   0.64750   0.00000  Uiso   1.00
H1646  H     0.10390   0.80656   0.60878   0.00000  Uiso   1.00
H1647  H     0.24685   0.90193   0.59348   0.00000  Uiso   1.00
H1648  H     0.32903   0.89748   0.89625   0.00000  Uiso   1.00
H1649  H     0.30382   0.90013   0.94824   0.00000  Uiso   1.00
H1650  H     0.32933   0.95080   0.92827   0.00000  Uiso   1.00
H1651  H     0.03433   0.90521   0.99243   0.00000  Uiso   1.00
H1652  H     0.06148   0.91917   0.94613   0.00000  Uiso   1.00
H1653  H     0.04343   0.83083   0.91648   0.00000  Uiso   1.00
H1654  H     0.02276   0.82305   0.96663   0.00000  Uiso   1.00
H1655  H     0.31401   0.91143   0.60774   0.00000  Uiso   1.00
H1656  H     0.00633   0.85541   0.61161   0.00000  Uiso   1.00
H1657  H     0.12085   0.71090   0.69736   0.00000  Uiso   1.00
H1658  H     0.02555   0.90270   0.57843   0.00000  Uiso   1.00
H1659  H     0.32526   0.85695   0.52244   0.00000  Uiso   1.00
H1660  H     0.28796   0.89978   0.53311   0.00000  Uiso   1.00
H1661  H     0.27163   0.82542   0.59353   0.00000  Uiso   1.00
H1662  H     0.29223   0.79409   0.55036   0.00000  Uiso   1.00
H1663  H     0.04874   0.81988   0.56467   0.00000  Uiso   1.00
H1664  H     0.06198   0.76570   0.54816   0.00000  Uiso   1.00
H1665  H     0.28018   0.82708   0.93826   0.00000  Uiso   1.00
H1666  H     0.26826   0.77116   0.95185   0.00000  Uiso   1.00
H1667  H     0.05825   0.73847   0.77648   0.00000  Uiso   1.00
H1668  H     0.21233   0.95574   0.80278   0.00000  Uiso   1.00
H1669  H     0.06657   0.77555   0.82084   0.00000  Uiso   1.00
H1670  H     0.29485   0.91532   0.68058   0.00000  Uiso   1.00
H1671  H     0.29698   0.94126   0.73139   0.00000  Uiso   1.00
H1672  H     0.27515   0.77407   0.81977   0.00000  Uiso   1.00
H1673  H     0.27913   0.73807   0.77469   0.00000  Uiso   1.00
H1674  H     0.03415   0.94071   0.72615   0.00000  Uiso   1.00
H1675  H     0.03082   0.91079   0.67714   0.00000  Uiso   1.00
H1676  H     0.21207   0.70971   0.80303   0.00000  Uiso   1.00
H1677  H     0.12085   0.95691   0.69739   0.00000  Uiso   1.00
H1678  H     0.09444   0.95473   0.81165   0.00000  Uiso   1.00
H1679  H     0.06149   0.96829   0.85592   0.00000  Uiso   1.00
H1680  H     0.10682   0.66908   0.84927   0.00000  Uiso   1.00
N1681  N     0.16667   0.95069   0.75000   0.00000  Uiso   1.00
N1682  N     0.16667   0.71598   0.75000   0.00000  Uiso   1.00
N1683  N     0.05519   0.79993   0.53714   0.00000  Uiso   1.00
N1684  N     0.27326   0.80490   0.96452   0.00000  Uiso   1.00
N1685  N     0.04453   0.76060   0.79874   0.00000  Uiso   1.00
N1686  N     0.28831   0.91093   0.71389   0.00000  Uiso   1.00
N1687  N     0.29498   0.75977   0.79761   0.00000  Uiso   1.00
N1688  N     0.04086   0.90904   0.71080   0.00000  Uiso   1.00
O1689  O     0.10655   0.87291   0.75000   0.00000  Uiso   1.00
O1690  O     0.22679   0.79375   0.75001   0.00000  Uiso   1.00
O1691  O     0.22679   0.87291   0.75001   0.00000  Uiso   1.00
O1692  O     0.10655   0.79375   0.75000   0.00000  Uiso   1.00
O1693  O     0.16666   0.87293   0.68513   0.00000  Uiso   1.00
O1694  O     0.16668   0.79373   0.81487   0.00000  Uiso   1.00
O1695  O     0.16668   0.87293   0.81487   0.00000  Uiso   1.00
O1696  O     0.16666   0.79373   0.68513   0.00000  Uiso   1.00
C1697  C     0.42073   0.83337   0.75061   0.00000  Uiso   1.00
C1698  C     0.37624   0.83367   0.75204   0.00000  Uiso   1.00
C1699  C     0.47453   0.69183   0.72076   0.00000  Uiso   1.00
C1700  C     0.52537   0.97482   0.77933   0.00000  Uiso   1.00
C1701  C     0.52530   0.69117   0.77940   0.00000  Uiso   1.00
C1702  C     0.47450   0.97547   0.72079   0.00000  Uiso   1.00
C1703  C     0.49848   0.83361   0.66420   0.00000  Uiso   1.00
C1704  C     0.49996   0.83322   0.83565   0.00000  Uiso   1.00
C1705  C     0.53195   0.82033   0.90986   0.00000  Uiso   1.00
C1706  C     0.46291   0.81828   0.59092   0.00000  Uiso   1.00
C1707  C     0.49721   0.83314   0.88385   0.00000  Uiso   1.00
C1708  C     0.57941   0.83334   0.75085   0.00000  Uiso   1.00
C1709  C     0.49745   0.83430   0.61559   0.00000  Uiso   1.00
C1710  C     0.46156   0.84860   0.90347   0.00000  Uiso   1.00
C1711  C     0.53016   0.85254   0.59330   0.00000  Uiso   1.00
C1712  C     0.45870   0.83945   0.95031   0.00000  Uiso   1.00
C1713  C     0.53310   0.83982   0.54836   0.00000  Uiso   1.00
C1714  C     0.49599   0.83207   0.97622   0.00000  Uiso   1.00
C1715  C     0.49644   0.83208   0.52282   0.00000  Uiso   1.00
C1716  C     0.53301   0.82486   0.95610   0.00000  Uiso   1.00
C1717  C     0.46056   0.82314   0.54410   0.00000  Uiso   1.00
C1718  C     0.42162   0.83395   0.97270   0.00000  Uiso   1.00
C1719  C     0.42380   0.81900   0.51806   0.00000  Uiso   1.00
C1720  C     0.57047   0.83153   0.52893   0.00000  Uiso   1.00
C1721  C     0.43417   0.88285   0.87545   0.00000  Uiso   1.00
C1722  C     0.45136   0.93308   0.87814   0.00000  Uiso   1.00
C1723  C     0.42691   0.96662   0.84675   0.00000  Uiso   1.00
C1724  C     0.55418   0.89365   0.61308   0.00000  Uiso   1.00
C1725  C     0.52839   0.93885   0.61164   0.00000  Uiso   1.00
C1726  C     0.55031   0.97835   0.63736   0.00000  Uiso   1.00
C1727  C     0.37968   0.84403   0.95110   0.00000  Uiso   1.00
C1728  C     0.36974   0.89679   0.95666   0.00000  Uiso   1.00
C1729  C     0.66388   0.91185   0.93061   0.00000  Uiso   1.00
C1730  C     0.56987   0.82080   0.98296   0.00000  Uiso   1.00
C1731  C     0.61020   0.82781   0.55743   0.00000  Uiso   1.00
C1732  C     0.63846   0.86904   0.54774   0.00000  Uiso   1.00
C1733  C     0.66422   0.88531   0.58897   0.00000  Uiso   1.00
C1734  C     0.35608   0.79726   0.77417   0.00000  Uiso   1.00
C1735  C     0.64443   0.87173   0.73281   0.00000  Uiso   1.00
C1736  C     0.64709   0.79705   0.77389   0.00000  Uiso   1.00
C1737  C     0.35367   0.87136   0.73217   0.00000  Uiso   1.00
C1738  C     0.62417   0.83368   0.75215   0.00000  Uiso   1.00
Cu1739 Cu    0.50000   0.88022   0.75000   0.00000  Uiso   1.00
Cu1740 Cu    0.50000   0.78645   0.75000   0.00000  Uiso   1.00
H1741  H     0.55887   0.81067   0.89315   0.00000  Uiso   1.00
H1742  H     0.45083   0.94617   0.91284   0.00000  Uiso   1.00
H1743  H     0.48354   0.93370   0.86937   0.00000  Uiso   1.00
H1744  H     0.43107   0.87139   0.84025   0.00000  Uiso   1.00
H1745  H     0.40245   0.88443   0.88275   0.00000  Uiso   1.00
H1746  H     0.55544   0.96848   0.67316   0.00000  Uiso   1.00
H1747  H     0.58001   0.98576   0.62328   0.00000  Uiso   1.00
H1748  H     0.53144   0.67743   0.63489   0.00000  Uiso   1.00
H1749  H     0.52234   0.95019   0.57629   0.00000  Uiso   1.00
H1750  H     0.49850   0.93304   0.62574   0.00000  Uiso   1.00
H1751  H     0.56608   0.88482   0.64750   0.00000  Uiso   1.00
H1752  H     0.43723   0.80656   0.60878   0.00000  Uiso   1.00
H1753  H     0.58018   0.90193   0.59348   0.00000  Uiso   1.00
H1754  H     0.66236   0.89748   0.89625   0.00000  Uiso   1.00
H1755  H     0.63715   0.90013   0.94824   0.00000  Uiso   1.00
H1756  H     0.66266   0.95080   0.92827   0.00000  Uiso   1.00
H1757  H     0.36767   0.90521   0.99243   0.00000  Uiso   1.00
H1758  H     0.39481   0.91917   0.94613   0.00000  Uiso   1.00
H1759  H     0.37676   0.83083   0.91648   0.00000  Uiso   1.00
H1760  H     0.35609   0.82305   0.96663   0.00000  Uiso   1.00
H1761  H     0.64734   0.91143   0.60774   0.00000  Uiso   1.00
H1762  H     0.33966   0.85541   0.61161   0.00000  Uiso   1.00
H1763  H     0.45418   0.71090   0.69736   0.00000  Uiso   1.00
H1764  H     0.35889   0.90270   0.57843   0.00000  Uiso   1.00
H1765  H     0.65859   0.85695   0.52244   0.00000  Uiso   1.00
H1766  H     0.62129   0.89978   0.53311   0.00000  Uiso   1.00
H1767  H     0.60496   0.82542   0.59353   0.00000  Uiso   1.00
H1768  H     0.62556   0.79409   0.55036   0.00000  Uiso   1.00
H1769  H     0.38207   0.81988   0.56467   0.00000  Uiso   1.00
H1770  H     0.39532   0.76570   0.54816   0.00000  Uiso   1.00
H1771  H     0.61351   0.82708   0.93826   0.00000  Uiso   1.00
H1772  H     0.60159   0.77116   0.95185   0.00000  Uiso   1.00
H1773  H     0.39159   0.73847   0.77648   0.00000  Uiso   1.00
H1774  H     0.54566   0.95574   0.80278   0.00000  Uiso   1.00
H1775  H     0.39991   0.77555   0.82084   0.00000  Uiso   1.00
H1776  H     0.62818   0.91532   0.68058   0.00000  Uiso   1.00
H1777  H     0.63031   0.94126   0.73139   0.00000  Uiso   1.00
H1778  H     0.60848   0.77407   0.81977   0.00000  Uiso   1.00
H1779  H     0.61246   0.73807   0.77469   0.00000  Uiso   1.00
H1780  H     0.36749   0.94071   0.72615   0.00000  Uiso   1.00
H1781  H     0.36415   0.91079   0.67714   0.00000  Uiso   1.00
H1782  H     0.54540   0.70971   0.80303   0.00000  Uiso   1.00
H1783  H     0.45418   0.95691   0.69739   0.00000  Uiso   1.00
H1784  H     0.42777   0.95473   0.81165   0.00000  Uiso   1.00
H1785  H     0.39482   0.96829   0.85592   0.00000  Uiso   1.00
H1786  H     0.44016   0.66908   0.84927   0.00000  Uiso   1.00
N1787  N     0.50000   0.95069   0.75000   0.00000  Uiso   1.00
N1788  N     0.50000   0.71598   0.75000   0.00000  Uiso   1.00
N1789  N     0.38852   0.79993   0.53714   0.00000  Uiso   1.00
N1790  N     0.60659   0.80490   0.96452   0.00000  Uiso   1.00
N1791  N     0.37787   0.76060   0.79874   0.00000  Uiso   1.00
N1792  N     0.62164   0.91093   0.71389   0.00000  Uiso   1.00
N1793  N     0.62831   0.75977   0.79761   0.00000  Uiso   1.00
N1794  N     0.37419   0.90904   0.71080   0.00000  Uiso   1.00
O1795  O     0.43988   0.87291   0.75000   0.00000  Uiso   1.00
O1796  O     0.56012   0.79375   0.75001   0.00000  Uiso   1.00
O1797  O     0.56012   0.87291   0.75001   0.00000  Uiso   1.00
O1798  O     0.43988   0.79375   0.75000   0.00000  Uiso   1.00
O1799  O     0.49999   0.87293   0.68513   0.00000  Uiso   1.00
O1800  O     0.50001   0.79373   0.81487   0.00000  Uiso   1.00
O1801  O     0.50001   0.87293   0.81487   0.00000  Uiso   1.00
O1802  O     0.49999   0.79373   0.68513   0.00000  Uiso   1.00
C1803  C     0.75406   0.83337   0.75061   0.00000  Uiso   1.00
C1804  C     0.70957   0.83367   0.75204   0.00000  Uiso   1.00
C1805  C     0.80786   0.69183   0.72076   0.00000  Uiso   1.00
C1806  C     0.85871   0.97482   0.77933   0.00000  Uiso   1.00
C1807  C     0.85863   0.69117   0.77940   0.00000  Uiso   1.00
C1808  C     0.80784   0.97547   0.72079   0.00000  Uiso   1.00
C1809  C     0.83181   0.83361   0.66420   0.00000  Uiso   1.00
C1810  C     0.83329   0.83322   0.83565   0.00000  Uiso   1.00
C1811  C     0.86528   0.82033   0.90986   0.00000  Uiso   1.00
C1812  C     0.79625   0.81828   0.59092   0.00000  Uiso   1.00
C1813  C     0.83054   0.83314   0.88385   0.00000  Uiso   1.00
C1814  C     0.91274   0.83334   0.75085   0.00000  Uiso   1.00
C1815  C     0.83078   0.83430   0.61559   0.00000  Uiso   1.00
C1816  C     0.79489   0.84860   0.90347   0.00000  Uiso   1.00
C1817  C     0.86350   0.85254   0.59330   0.00000  Uiso   1.00
C1818  C     0.79203   0.83945   0.95031   0.00000  Uiso   1.00
C1819  C     0.86643   0.83982   0.54836   0.00000  Uiso   1.00
C1820  C     0.82933   0.83207   0.97622   0.00000  Uiso   1.00
C1821  C     0.82977   0.83208   0.52282   0.00000  Uiso   1.00
C1822  C     0.86635   0.82486   0.95610   0.00000  Uiso   1.00
C1823  C     0.79389   0.82314   0.54410   0.00000  Uiso   1.00
C1824  C     0.75495   0.83395   0.97270   0.00000  Uiso   1.00
C1825  C     0.75713   0.81900   0.51806   0.00000  Uiso   1.00
C1826  C     0.90380   0.83153   0.52893   0.00000  Uiso   1.00
C1827  C     0.76751   0.88285   0.87545   0.00000  Uiso   1.00
C1828  C     0.78469   0.93308   0.87814   0.00000  Uiso   1.00
C1829  C     0.76024   0.96662   0.84675   0.00000  Uiso   1.00
C1830  C     0.88751   0.89365   0.61308   0.00000  Uiso   1.00
C1831  C     0.86172   0.93885   0.61164   0.00000  Uiso   1.00
C1832  C     0.88364   0.97835   0.63736   0.00000  Uiso   1.00
C1833  C     0.71302   0.84403   0.95110   0.00000  Uiso   1.00
C1834  C     0.70308   0.89679   0.95666   0.00000  Uiso   1.00
C1835  C     0.99722   0.91185   0.93061   0.00000  Uiso   1.00
C1836  C     0.90321   0.82080   0.98296   0.00000  Uiso   1.00
C1837  C     0.94354   0.82781   0.55743   0.00000  Uiso   1.00
C1838  C     0.97179   0.86904   0.54774   0.00000  Uiso   1.00
C1839  C     0.99756   0.88531   0.58897   0.00000  Uiso   1.00
C1840  C     0.68941   0.79726   0.77417   0.00000  Uiso   1.00
C1841  C     0.97777   0.87173   0.73281   0.00000  Uiso   1.00
C1842  C     0.98042   0.79705   0.77389   0.00000  Uiso   1.00
C1843  C     0.68700   0.87136   0.73217   0.00000  Uiso   1.00
C1844  C     0.95751   0.83368   0.75215   0.00000  Uiso   1.00
Cu1845 Cu    0.83333   0.88022   0.75000   0.00000  Uiso   1.00
Cu1846 Cu    0.83333   0.78645   0.75000   0.00000  Uiso   1.00
H1847  H     0.89221   0.81067   0.89315   0.00000  Uiso   1.00
H1848  H     0.78416   0.94617   0.91284   0.00000  Uiso   1.00
H1849  H     0.81688   0.93370   0.86937   0.00000  Uiso   1.00
H1850  H     0.76440   0.87139   0.84025   0.00000  Uiso   1.00
H1851  H     0.73579   0.88443   0.88275   0.00000  Uiso   1.00
H1852  H     0.88877   0.96848   0.67316   0.00000  Uiso   1.00
H1853  H     0.91334   0.98576   0.62328   0.00000  Uiso   1.00
H1854  H     0.86478   0.67743   0.63489   0.00000  Uiso   1.00
H1855  H     0.85567   0.95019   0.57629   0.00000  Uiso   1.00
H1856  H     0.83183   0.93304   0.62574   0.00000  Uiso   1.00
H1857  H     0.89942   0.88482   0.64750   0.00000  Uiso   1.00
H1858  H     0.77056   0.80656   0.60878   0.00000  Uiso   1.00
H1859  H     0.91351   0.90193   0.59348   0.00000  Uiso   1.00
H1860  H     0.99570   0.89748   0.89625   0.00000  Uiso   1.00
H1861  H     0.97048   0.90013   0.94824   0.00000  Uiso   1.00
H1862  H     0.99600   0.95080   0.92827   0.00000  Uiso   1.00
H1863  H     0.70100   0.90521   0.99243   0.00000  Uiso   1.00
H1864  H     0.72814   0.91917   0.94613   0.00000  Uiso   1.00
H1865  H     0.71010   0.83083   0.91648   0.00000  Uiso   1.00
H1866  H     0.68943   0.82305   0.96663   0.00000  Uiso   1.00
H1867  H     0.98067   0.91143   0.60774   0.00000  Uiso   1.00
H1868  H     0.67300   0.85541   0.61161   0.00000  Uiso   1.00
H1869  H     0.78752   0.71090   0.69736   0.00000  Uiso   1.00
H1870  H     0.69222   0.90270   0.57843   0.00000  Uiso   1.00
H1871  H     0.99193   0.85695   0.52244   0.00000  Uiso   1.00
H1872  H     0.95462   0.89978   0.53311   0.00000  Uiso   1.00
H1873  H     0.93830   0.82542   0.59353   0.00000  Uiso   1.00
H1874  H     0.95890   0.79409   0.55036   0.00000  Uiso   1.00
H1875  H     0.71541   0.81988   0.56467   0.00000  Uiso   1.00
H1876  H     0.72865   0.76570   0.54816   0.00000  Uiso   1.00
H1877  H     0.94685   0.82708   0.93826   0.00000  Uiso   1.00
H1878  H     0.93492   0.77116   0.95185   0.00000  Uiso   1.00
H1879  H     0.72492   0.73847   0.77648   0.00000  Uiso   1.00
H1880  H     0.87899   0.95574   0.80278   0.00000  Uiso   1.00
H1881  H     0.73324   0.77555   0.82084   0.00000  Uiso   1.00
H1882  H     0.96151   0.91532   0.68058   0.00000  Uiso   1.00
H1883  H     0.96364   0.94126   0.73139   0.00000  Uiso   1.00
H1884  H     0.94181   0.77407   0.81977   0.00000  Uiso   1.00
H1885  H     0.94579   0.73807   0.77469   0.00000  Uiso   1.00
H1886  H     0.70082   0.94071   0.72615   0.00000  Uiso   1.00
H1887  H     0.69748   0.91079   0.67714   0.00000  Uiso   1.00
H1888  H     0.87874   0.70971   0.80303   0.00000  Uiso   1.00
H1889  H     0.78751   0.95691   0.69739   0.00000  Uiso   1.00
H1890  H     0.76110   0.95473   0.81165   0.00000  Uiso   1.00
H1891  H     0.72815   0.96829   0.85592   0.00000  Uiso   1.00
H1892  H     0.77349   0.66908   0.84927   0.00000  Uiso   1.00
N1893  N     0.83333   0.95069   0.75000   0.00000  Uiso   1.00
N1894  N     0.83333   0.71598   0.75000   0.00000  Uiso   1.00
N1895  N     0.72186   0.79993   0.53714   0.00000  Uiso   1.00
N1896  N     0.93992   0.80490   0.96452   0.00000  Uiso   1.00
N1897  N     0.71120   0.76060   0.79874   0.00000  Uiso   1.00
N1898  N     0.95497   0.91093   0.71389   0.00000  Uiso   1.00
N1899  N     0.96165   0.75977   0.79761   0.00000  Uiso   1.00
N1900  N     0.70752   0.90904   0.71080   0.00000  Uiso   1.00
O1901  O     0.77321   0.87291   0.75000   0.00000  Uiso   1.00
O1902  O     0.89345   0.79375   0.75001   0.00000  Uiso   1.00
O1903  O     0.89345   0.87291   0.75001   0.00000  Uiso   1.00
O1904  O     0.77321   0.79375   0.75000   0.00000  Uiso   1.00
O1905  O     0.83332   0.87293   0.68513   0.00000  Uiso   1.00
O1906  O     0.83334   0.79373   0.81487   0.00000  Uiso   1.00
O1907  O     0.83334   0.87293   0.81487   0.00000  Uiso   1.00
O1908  O     0.83332   0.79373   0.68513   0.00000  Uiso   1.00
loop_
_geom_bond_atom_site_label_1
_geom_bond_atom_site_label_2
_geom_bond_distance
_geom_bond_site_symmetry_2
_ccdc_geom_bond_type
C1     O99     1.292   .     A
C1     C2      1.470   .     S
C1     O102    1.292   .     A
C2     C41     1.410   .     A
C2     C38     1.416   .     A
C3     N92     1.366   .     A
C3     H67     1.082   .     S
C3     C642    1.414   1_545 S
C4     N91     1.366   .     A
C4     H78     1.082   .     S
C4     C323    1.414   .     S
C5     H86     1.081   .     S
C5     N92     1.366   .     A
C5     C640    1.414   1_545 S
C6     N91     1.366   .     A
C6     H87     1.082   .     S
C6     C321    1.414   .     S
C7     O103    1.287   .     A
C7     O106    1.292   .     A
C7     C13     1.457   .     S
C8     O105    1.286   .     A
C8     O104    1.290   .     A
C8     C11     1.455   .     S
C9     H45     1.083   .     S
C9     C11     1.390   .     A
C9     C20     1.393   .     A
C10    H56     1.082   .     S
C10    C21     1.408   .     A
C10    C13     1.398   .     A
C11    C14     1.418   .     A
C12    C42     1.474   .     S
C12    O101    1.291   .     A
C12    O100    1.295   .     A
C13    C15     1.403   .     A
C14    C16     1.436   .     A
C14    C25     1.536   .     S
C15    C17     1.408   .     A
C15    C28     1.518   .     S
C16    C22     1.440   .     A
C16    C18     1.427   .     A
C17    C24     1.416   .     A
C17    C19     1.408   .     A
C18    C20     1.411   .     A
C18    C973    1.398   .     S
C19    C21     1.402   .     A
C19    C972    1.398   1_554 S
C20    C34     1.419   .     A
C21    C23     1.405   .     A
C22    C31     1.515   .     S
C22    C977    1.420   .     S
C23    N93     1.434   .     S
C23    C976    1.420   1_554 S
C24    C35     1.521   .     S
C24    C988    1.414   1_554 S
C25    H49     1.083   .     S
C25    C26     1.540   .     S
C25    H48     1.107   .     S
C26    C27     1.527   .     S
C26    H47     1.109   .     S
C26    H46     1.110   .     S
C27    H89     1.111   .     S
C27    H88     1.111   .     S
C27    H408    1.111   .     S
C28    H57     1.095   .     S
C28    C29     1.539   .     S
C28    H55     1.108   .     S
C29    H54     1.109   .     S
C29    C30     1.526   .     S
C29    H53     1.112   .     S
C30    H51     1.111   .     S
C30    H50     1.111   .     S
C30    H370    1.111   .     S
C31    H63     1.106   .     S
C31    C32     1.549   .     S
C31    H64     1.105   .     S
C32    H61     1.108   .     S
C32    H62     1.105   .     S
C32    C245    1.526   1_455 S
C33    H58     1.111   .     S
C33    H59     1.107   .     S
C33    H60     1.110   .     S
C33    C138    1.526   .     S
C34    N94     1.436   .     S
C34    C978    1.414   .     S
C35    C36     1.537   .     S
C35    H71     1.109   .     S
C35    H72     1.112   .     S
C36    H70     1.113   .     S
C36    H69     1.097   .     S
C36    C37     1.531   .     S
C37    H65     1.107   .     S
C37    H172    1.111   .     S
C37    H174    1.111   .     S
C38    N95     1.437   .     S
C38    C252    1.395   1_455 S
C39    C42     1.414   .     A
C39    N96     1.436   .     S
C39    C147    1.405   .     S
C40    C42     1.416   .     A
C40    N97     1.436   .     S
C40    C144    1.395   .     S
C41    N98     1.437   .     S
C41    C251    1.405   1_455 S
Cu43   O99     1.993   .     S
Cu43   O105    1.956   .     S
Cu43   N91     2.006   .     S
Cu43   Cu44    2.669   .     S
Cu43   O101    1.992   .     S
Cu43   O103    1.959   .     S
Cu44   O104    1.959   .     S
Cu44   N92     2.006   .     S
Cu44   O102    1.992   .     S
Cu44   O106    1.956   .     S
Cu44   O100    1.993   .     S
H52    C666    1.111   1_545 S
H66    C249    1.111   1_455 S
H68    C249    1.111   1_455 S
H73    N93     1.039   .     S
H74    N93     1.045   .     S
H75    N94     1.043   .     S
H76    N94     1.045   .     S
H77    N95     1.045   .     S
H79    N95     1.046   .     S
H80    N96     1.042   .     S
H81    N96     1.045   .     S
H82    N97     1.046   .     S
H83    N97     1.044   .     S
H84    N98     1.045   .     S
H85    N98     1.044   .     S
H90    C663    1.111   1_545 S
C107   O205    1.292   .     A
C107   C108    1.470   .     S
C107   O208    1.292   .     A
C108   C147    1.410   .     A
C108   C144    1.416   .     A
C109   N198    1.366   .     A
C109   H173    1.082   .     S
C109   C748    1.414   1_545 S
C110   N197    1.366   .     A
C110   H184    1.082   .     S
C110   C429    1.414   .     S
C111   H192    1.081   .     S
C111   N198    1.366   .     A
C111   C746    1.414   1_545 S
C112   N197    1.366   .     A
C112   H193    1.082   .     S
C112   C427    1.414   .     S
C113   O209    1.287   .     A
C113   O212    1.292   .     A
C113   C119    1.457   .     S
C114   O211    1.286   .     A
C114   O210    1.290   .     A
C114   C117    1.455   .     S
C115   H151    1.083   .     S
C115   C117    1.390   .     A
C115   C126    1.393   .     A
C116   H162    1.082   .     S
C116   C127    1.408   .     A
C116   C119    1.398   .     A
C117   C120    1.418   .     A
C118   C148    1.474   .     S
C118   O207    1.291   .     A
C118   O206    1.295   .     A
C119   C121    1.403   .     A
C120   C122    1.436   .     A
C120   C131    1.536   .     S
C121   C123    1.408   .     A
C121   C134    1.518   .     S
C122   C128    1.440   .     A
C122   C124    1.427   .     A
C123   C130    1.416   .     A
C123   C125    1.408   .     A
C124   C126    1.411   .     A
C124   C1079   1.398   .     S
C125   C127    1.402   .     A
C125   C1078   1.398   1_554 S
C126   C140    1.419   .     A
C127   C129    1.405   .     A
C128   C137    1.515   .     S
C128   C1083   1.420   .     S
C129   N199    1.434   .     S
C129   C1082   1.420   1_554 S
C130   C141    1.521   .     S
C130   C1094   1.414   1_554 S
C131   H155    1.083   .     S
C131   C132    1.540   .     S
C131   H154    1.107   .     S
C132   C133    1.527   .     S
C132   H153    1.109   .     S
C132   H152    1.110   .     S
C133   H195    1.111   .     S
C133   H194    1.111   .     S
C133   H514    1.111   .     S
C134   H163    1.095   .     S
C134   C135    1.539   .     S
C134   H161    1.108   .     S
C135   H160    1.109   .     S
C135   C136    1.526   .     S
C135   H159    1.112   .     S
C136   H157    1.111   .     S
C136   H156    1.111   .     S
C136   H476    1.111   .     S
C137   H169    1.106   .     S
C137   C138    1.549   .     S
C137   H170    1.105   .     S
C138   H167    1.108   .     S
C138   H168    1.105   .     S
C139   H164    1.111   .     S
C139   H165    1.107   .     S
C139   H166    1.110   .     S
C139   C244    1.526   .     S
C140   N200    1.436   .     S
C140   C1084   1.414   .     S
C141   C142    1.537   .     S
C141   H177    1.109   .     S
C141   H178    1.112   .     S
C142   H176    1.113   .     S
C142   H175    1.097   .     S
C142   C143    1.531   .     S
C143   H171    1.107   .     S
C143   H278    1.111   .     S
C143   H280    1.111   .     S
C144   N201    1.437   .     S
C145   C148    1.414   .     A
C145   N202    1.436   .     S
C145   C253    1.405   .     S
C146   C148    1.416   .     A
C146   N203    1.436   .     S
C146   C250    1.395   .     S
C147   N204    1.437   .     S
Cu149  O205    1.993   .     S
Cu149  O211    1.956   .     S
Cu149  N197    2.006   .     S
Cu149  Cu150   2.669   .     S
Cu149  O207    1.992   .     S
Cu149  O209    1.959   .     S
Cu150  O210    1.959   .     S
Cu150  N198    2.006   .     S
Cu150  O208    1.992   .     S
Cu150  O212    1.956   .     S
Cu150  O206    1.993   .     S
H158   C772    1.111   1_545 S
H179   N199    1.039   .     S
H180   N199    1.045   .     S
H181   N200    1.043   .     S
H182   N200    1.045   .     S
H183   N201    1.045   .     S
H185   N201    1.046   .     S
H186   N202    1.042   .     S
H187   N202    1.045   .     S
H188   N203    1.046   .     S
H189   N203    1.044   .     S
H190   N204    1.045   .     S
H191   N204    1.044   .     S
H196   C769    1.111   1_545 S
C213   O311    1.292   .     A
C213   C214    1.470   .     S
C213   O314    1.292   .     A
C214   C253    1.410   .     A
C214   C250    1.416   .     A
C215   N304    1.366   .     A
C215   H279    1.082   .     S
C215   C854    1.414   1_545 S
C216   N303    1.366   .     A
C216   H290    1.082   .     S
C216   C535    1.414   .     S
C217   H298    1.081   .     S
C217   N304    1.366   .     A
C217   C852    1.414   1_545 S
C218   N303    1.366   .     A
C218   H299    1.082   .     S
C218   C533    1.414   .     S
C219   O315    1.287   .     A
C219   O318    1.292   .     A
C219   C225    1.457   .     S
C220   O317    1.286   .     A
C220   O316    1.290   .     A
C220   C223    1.455   .     S
C221   H257    1.083   .     S
C221   C223    1.390   .     A
C221   C232    1.393   .     A
C222   H268    1.082   .     S
C222   C233    1.408   .     A
C222   C225    1.398   .     A
C223   C226    1.418   .     A
C224   C254    1.474   .     S
C224   O313    1.291   .     A
C224   O312    1.295   .     A
C225   C227    1.403   .     A
C226   C228    1.436   .     A
C226   C237    1.536   .     S
C227   C229    1.408   .     A
C227   C240    1.518   .     S
C228   C234    1.440   .     A
C228   C230    1.427   .     A
C229   C236    1.416   .     A
C229   C231    1.408   .     A
C230   C232    1.411   .     A
C230   C1185   1.398   .     S
C231   C233    1.402   .     A
C231   C1184   1.398   1_554 S
C232   C246    1.419   .     A
C233   C235    1.405   .     A
C234   C243    1.515   .     S
C234   C1189   1.420   .     S
C235   N305    1.434   .     S
C235   C1188   1.420   1_554 S
C236   C247    1.521   .     S
C236   C1200   1.414   1_554 S
C237   H261    1.083   .     S
C237   C238    1.540   .     S
C237   H260    1.107   .     S
C238   C239    1.527   .     S
C238   H259    1.109   .     S
C238   H258    1.110   .     S
C239   H301    1.111   .     S
C239   H300    1.111   .     S
C239   H620    1.111   .     S
C240   H269    1.095   .     S
C240   C241    1.539   .     S
C240   H267    1.108   .     S
C241   H266    1.109   .     S
C241   C242    1.526   .     S
C241   H265    1.112   .     S
C242   H263    1.111   .     S
C242   H262    1.111   .     S
C242   H582    1.111   .     S
C243   H275    1.106   .     S
C243   C244    1.549   .     S
C243   H276    1.105   .     S
C244   H273    1.108   .     S
C244   H274    1.105   .     S
C245   H270    1.111   .     S
C245   H271    1.107   .     S
C245   H272    1.110   .     S
C245   C32     1.526   1_655 S
C246   N306    1.436   .     S
C246   C1190   1.414   .     S
C247   C248    1.537   .     S
C247   H283    1.109   .     S
C247   H284    1.112   .     S
C248   H282    1.113   .     S
C248   H281    1.097   .     S
C248   C249    1.531   .     S
C249   H277    1.107   .     S
C249   H66     1.111   1_655 S
C249   H68     1.111   1_655 S
C250   N307    1.437   .     S
C251   C254    1.414   .     A
C251   N308    1.436   .     S
C251   C41     1.405   1_655 S
C252   C254    1.416   .     A
C252   N309    1.436   .     S
C252   C38     1.395   1_655 S
C253   N310    1.437   .     S
Cu255  O311    1.993   .     S
Cu255  O317    1.956   .     S
Cu255  N303    2.006   .     S
Cu255  Cu256   2.669   .     S
Cu255  O313    1.992   .     S
Cu255  O315    1.959   .     S
Cu256  O316    1.959   .     S
Cu256  N304    2.006   .     S
Cu256  O314    1.992   .     S
Cu256  O318    1.956   .     S
Cu256  O312    1.993   .     S
H264   C878    1.111   1_545 S
H285   N305    1.039   .     S
H286   N305    1.045   .     S
H287   N306    1.043   .     S
H288   N306    1.045   .     S
H289   N307    1.045   .     S
H291   N307    1.046   .     S
H292   N308    1.042   .     S
H293   N308    1.045   .     S
H294   N309    1.046   .     S
H295   N309    1.044   .     S
H296   N310    1.045   .     S
H297   N310    1.044   .     S
H302   C875    1.111   1_545 S
C319   O417    1.292   .     A
C319   C320    1.470   .     S
C319   O420    1.292   .     A
C320   C359    1.410   .     A
C320   C356    1.416   .     A
C321   N410    1.366   .     A
C321   H385    1.082   .     S
C322   N409    1.366   .     A
C322   H396    1.082   .     S
C322   C641    1.414   .     S
C323   H404    1.081   .     S
C323   N410    1.366   .     A
C324   N409    1.366   .     A
C324   H405    1.082   .     S
C324   C639    1.414   .     S
C325   O421    1.287   .     A
C325   O424    1.292   .     A
C325   C331    1.457   .     S
C326   O423    1.286   .     A
C326   O422    1.290   .     A
C326   C329    1.455   .     S
C327   H363    1.083   .     S
C327   C329    1.390   .     A
C327   C338    1.393   .     A
C328   H374    1.082   .     S
C328   C339    1.408   .     A
C328   C331    1.398   .     A
C329   C332    1.418   .     A
C330   C360    1.474   .     S
C330   O419    1.291   .     A
C330   O418    1.295   .     A
C331   C333    1.403   .     A
C332   C334    1.436   .     A
C332   C343    1.536   .     S
C333   C335    1.408   .     A
C333   C346    1.518   .     S
C334   C340    1.440   .     A
C334   C336    1.427   .     A
C335   C342    1.416   .     A
C335   C337    1.408   .     A
C336   C338    1.411   .     A
C336   C1291   1.398   .     S
C337   C339    1.402   .     A
C337   C1290   1.398   1_554 S
C338   C352    1.419   .     A
C339   C341    1.405   .     A
C340   C349    1.515   .     S
C340   C1295   1.420   .     S
C341   N411    1.434   .     S
C341   C1294   1.420   1_554 S
C342   C353    1.521   .     S
C342   C1306   1.414   1_554 S
C343   H367    1.083   .     S
C343   C344    1.540   .     S
C343   H366    1.107   .     S
C344   C345    1.527   .     S
C344   H365    1.109   .     S
C344   H364    1.110   .     S
C345   H407    1.111   .     S
C345   H406    1.111   .     S
C345   H726    1.111   .     S
C346   H375    1.095   .     S
C346   C347    1.539   .     S
C346   H373    1.108   .     S
C347   H372    1.109   .     S
C347   C348    1.526   .     S
C347   H371    1.112   .     S
C348   H369    1.111   .     S
C348   H368    1.111   .     S
C348   H688    1.111   .     S
C349   H381    1.106   .     S
C349   C350    1.549   .     S
C349   H382    1.105   .     S
C350   H379    1.108   .     S
C350   H380    1.105   .     S
C350   C563    1.526   1_455 S
C351   H376    1.111   .     S
C351   H377    1.107   .     S
C351   H378    1.110   .     S
C351   C456    1.526   .     S
C352   N412    1.436   .     S
C352   C1296   1.414   .     S
C353   C354    1.537   .     S
C353   H389    1.109   .     S
C353   H390    1.112   .     S
C354   H388    1.113   .     S
C354   H387    1.097   .     S
C354   C355    1.531   .     S
C355   H383    1.107   .     S
C355   H490    1.111   .     S
C355   H492    1.111   .     S
C356   N413    1.437   .     S
C356   C570    1.395   1_455 S
C357   C360    1.414   .     A
C357   N414    1.436   .     S
C357   C465    1.405   .     S
C358   C360    1.416   .     A
C358   N415    1.436   .     S
C358   C462    1.395   .     S
C359   N416    1.437   .     S
C359   C569    1.405   1_455 S
Cu361  O417    1.993   .     S
Cu361  O423    1.956   .     S
Cu361  N409    2.006   .     S
Cu361  Cu362   2.669   .     S
Cu361  O419    1.992   .     S
Cu361  O421    1.959   .     S
Cu362  O422    1.959   .     S
Cu362  N410    2.006   .     S
Cu362  O420    1.992   .     S
Cu362  O424    1.956   .     S
Cu362  O418    1.993   .     S
H384   C567    1.111   1_455 S
H386   C567    1.111   1_455 S
H391   N411    1.039   .     S
H392   N411    1.045   .     S
H393   N412    1.043   .     S
H394   N412    1.045   .     S
H395   N413    1.045   .     S
H397   N413    1.046   .     S
H398   N414    1.042   .     S
H399   N414    1.045   .     S
H400   N415    1.046   .     S
H401   N415    1.044   .     S
H402   N416    1.045   .     S
H403   N416    1.044   .     S
C425   O523    1.292   .     A
C425   C426    1.470   .     S
C425   O526    1.292   .     A
C426   C465    1.410   .     A
C426   C462    1.416   .     A
C427   N516    1.366   .     A
C427   H491    1.082   .     S
C428   N515    1.366   .     A
C428   H502    1.082   .     S
C428   C747    1.414   .     S
C429   H510    1.081   .     S
C429   N516    1.366   .     A
C430   N515    1.366   .     A
C430   H511    1.082   .     S
C430   C745    1.414   .     S
C431   O527    1.287   .     A
C431   O530    1.292   .     A
C431   C437    1.457   .     S
C432   O529    1.286   .     A
C432   O528    1.290   .     A
C432   C435    1.455   .     S
C433   H469    1.083   .     S
C433   C435    1.390   .     A
C433   C444    1.393   .     A
C434   H480    1.082   .     S
C434   C445    1.408   .     A
C434   C437    1.398   .     A
C435   C438    1.418   .     A
C436   C466    1.474   .     S
C436   O525    1.291   .     A
C436   O524    1.295   .     A
C437   C439    1.403   .     A
C438   C440    1.436   .     A
C438   C449    1.536   .     S
C439   C441    1.408   .     A
C439   C452    1.518   .     S
C440   C446    1.440   .     A
C440   C442    1.427   .     A
C441   C448    1.416   .     A
C441   C443    1.408   .     A
C442   C444    1.411   .     A
C442   C1397   1.398   .     S
C443   C445    1.402   .     A
C443   C1396   1.398   1_554 S
C444   C458    1.419   .     A
C445   C447    1.405   .     A
C446   C455    1.515   .     S
C446   C1401   1.420   .     S
C447   N517    1.434   .     S
C447   C1400   1.420   1_554 S
C448   C459    1.521   .     S
C448   C1412   1.414   1_554 S
C449   H473    1.083   .     S
C449   C450    1.540   .     S
C449   H472    1.107   .     S
C450   C451    1.527   .     S
C450   H471    1.109   .     S
C450   H470    1.110   .     S
C451   H513    1.111   .     S
C451   H512    1.111   .     S
C451   H832    1.111   .     S
C452   H481    1.095   .     S
C452   C453    1.539   .     S
C452   H479    1.108   .     S
C453   H478    1.109   .     S
C453   C454    1.526   .     S
C453   H477    1.112   .     S
C454   H475    1.111   .     S
C454   H474    1.111   .     S
C454   H794    1.111   .     S
C455   H487    1.106   .     S
C455   C456    1.549   .     S
C455   H488    1.105   .     S
C456   H485    1.108   .     S
C456   H486    1.105   .     S
C457   H482    1.111   .     S
C457   H483    1.107   .     S
C457   H484    1.110   .     S
C457   C562    1.526   .     S
C458   N518    1.436   .     S
C458   C1402   1.414   .     S
C459   C460    1.537   .     S
C459   H495    1.109   .     S
C459   H496    1.112   .     S
C460   H494    1.113   .     S
C460   H493    1.097   .     S
C460   C461    1.531   .     S
C461   H489    1.107   .     S
C461   H596    1.111   .     S
C461   H598    1.111   .     S
C462   N519    1.437   .     S
C463   C466    1.414   .     A
C463   N520    1.436   .     S
C463   C571    1.405   .     S
C464   C466    1.416   .     A
C464   N521    1.436   .     S
C464   C568    1.395   .     S
C465   N522    1.437   .     S
Cu467  O523    1.993   .     S
Cu467  O529    1.956   .     S
Cu467  N515    2.006   .     S
Cu467  Cu468   2.669   .     S
Cu467  O525    1.992   .     S
Cu467  O527    1.959   .     S
Cu468  O528    1.959   .     S
Cu468  N516    2.006   .     S
Cu468  O526    1.992   .     S
Cu468  O530    1.956   .     S
Cu468  O524    1.993   .     S
H497   N517    1.039   .     S
H498   N517    1.045   .     S
H499   N518    1.043   .     S
H500   N518    1.045   .     S
H501   N519    1.045   .     S
H503   N519    1.046   .     S
H504   N520    1.042   .     S
H505   N520    1.045   .     S
H506   N521    1.046   .     S
H507   N521    1.044   .     S
H508   N522    1.045   .     S
H509   N522    1.044   .     S
C531   O629    1.292   .     A
C531   C532    1.470   .     S
C531   O632    1.292   .     A
C532   C571    1.410   .     A
C532   C568    1.416   .     A
C533   N622    1.366   .     A
C533   H597    1.082   .     S
C534   N621    1.366   .     A
C534   H608    1.082   .     S
C534   C853    1.414   .     S
C535   H616    1.081   .     S
C535   N622    1.366   .     A
C536   N621    1.366   .     A
C536   H617    1.082   .     S
C536   C851    1.414   .     S
C537   O633    1.287   .     A
C537   O636    1.292   .     A
C537   C543    1.457   .     S
C538   O635    1.286   .     A
C538   O634    1.290   .     A
C538   C541    1.455   .     S
C539   H575    1.083   .     S
C539   C541    1.390   .     A
C539   C550    1.393   .     A
C540   H586    1.082   .     S
C540   C551    1.408   .     A
C540   C543    1.398   .     A
C541   C544    1.418   .     A
C542   C572    1.474   .     S
C542   O631    1.291   .     A
C542   O630    1.295   .     A
C543   C545    1.403   .     A
C544   C546    1.436   .     A
C544   C555    1.536   .     S
C545   C547    1.408   .     A
C545   C558    1.518   .     S
C546   C552    1.440   .     A
C546   C548    1.427   .     A
C547   C554    1.416   .     A
C547   C549    1.408   .     A
C548   C550    1.411   .     A
C548   C1503   1.398   .     S
C549   C551    1.402   .     A
C549   C1502   1.398   1_554 S
C550   C564    1.419   .     A
C551   C553    1.405   .     A
C552   C561    1.515   .     S
C552   C1507   1.420   .     S
C553   N623    1.434   .     S
C553   C1506   1.420   1_554 S
C554   C565    1.521   .     S
C554   C1518   1.414   1_554 S
C555   H579    1.083   .     S
C555   C556    1.540   .     S
C555   H578    1.107   .     S
C556   C557    1.527   .     S
C556   H577    1.109   .     S
C556   H576    1.110   .     S
C557   H619    1.111   .     S
C557   H618    1.111   .     S
C557   H938    1.111   .     S
C558   H587    1.095   .     S
C558   C559    1.539   .     S
C558   H585    1.108   .     S
C559   H584    1.109   .     S
C559   C560    1.526   .     S
C559   H583    1.112   .     S
C560   H581    1.111   .     S
C560   H580    1.111   .     S
C560   H900    1.111   .     S
C561   H593    1.106   .     S
C561   C562    1.549   .     S
C561   H594    1.105   .     S
C562   H591    1.108   .     S
C562   H592    1.105   .     S
C563   H588    1.111   .     S
C563   H589    1.107   .     S
C563   H590    1.110   .     S
C563   C350    1.526   1_655 S
C564   N624    1.436   .     S
C564   C1508   1.414   .     S
C565   C566    1.537   .     S
C565   H601    1.109   .     S
C565   H602    1.112   .     S
C566   H600    1.113   .     S
C566   H599    1.097   .     S
C566   C567    1.531   .     S
C567   H595    1.107   .     S
C567   H384    1.111   1_655 S
C567   H386    1.111   1_655 S
C568   N625    1.437   .     S
C569   C572    1.414   .     A
C569   N626    1.436   .     S
C569   C359    1.405   1_655 S
C570   C572    1.416   .     A
C570   N627    1.436   .     S
C570   C356    1.395   1_655 S
C571   N628    1.437   .     S
Cu573  O629    1.993   .     S
Cu573  O635    1.956   .     S
Cu573  N621    2.006   .     S
Cu573  Cu574   2.669   .     S
Cu573  O631    1.992   .     S
Cu573  O633    1.959   .     S
Cu574  O634    1.959   .     S
Cu574  N622    2.006   .     S
Cu574  O632    1.992   .     S
Cu574  O636    1.956   .     S
Cu574  O630    1.993   .     S
H603   N623    1.039   .     S
H604   N623    1.045   .     S
H605   N624    1.043   .     S
H606   N624    1.045   .     S
H607   N625    1.045   .     S
H609   N625    1.046   .     S
H610   N626    1.042   .     S
H611   N626    1.045   .     S
H612   N627    1.046   .     S
H613   N627    1.044   .     S
H614   N628    1.045   .     S
H615   N628    1.044   .     S
C637   O735    1.292   .     A
C637   C638    1.470   .     S
C637   O738    1.292   .     A
C638   C677    1.410   .     A
C638   C674    1.416   .     A
C639   N728    1.366   .     A
C639   H703    1.082   .     S
C640   N727    1.366   .     A
C640   H714    1.082   .     S
C640   C5      1.414   1_565 S
C641   H722    1.081   .     S
C641   N728    1.366   .     A
C642   N727    1.366   .     A
C642   H723    1.082   .     S
C642   C3      1.414   1_565 S
C643   O739    1.287   .     A
C643   O742    1.292   .     A
C643   C649    1.457   .     S
C644   O741    1.286   .     A
C644   O740    1.290   .     A
C644   C647    1.455   .     S
C645   H681    1.083   .     S
C645   C647    1.390   .     A
C645   C656    1.393   .     A
C646   H692    1.082   .     S
C646   C657    1.408   .     A
C646   C649    1.398   .     A
C647   C650    1.418   .     A
C648   C678    1.474   .     S
C648   O737    1.291   .     A
C648   O736    1.295   .     A
C649   C651    1.403   .     A
C650   C652    1.436   .     A
C650   C661    1.536   .     S
C651   C653    1.408   .     A
C651   C664    1.518   .     S
C652   C658    1.440   .     A
C652   C654    1.427   .     A
C653   C660    1.416   .     A
C653   C655    1.408   .     A
C654   C656    1.411   .     A
C654   C1609   1.398   .     S
C655   C657    1.402   .     A
C655   C1608   1.398   1_554 S
C656   C670    1.419   .     A
C657   C659    1.405   .     A
C658   C667    1.515   .     S
C658   C1613   1.420   .     S
C659   N729    1.434   .     S
C659   C1612   1.420   1_554 S
C660   C671    1.521   .     S
C660   C1624   1.414   1_554 S
C661   H685    1.083   .     S
C661   C662    1.540   .     S
C661   H684    1.107   .     S
C662   C663    1.527   .     S
C662   H683    1.109   .     S
C662   H682    1.110   .     S
C663   H725    1.111   .     S
C663   H724    1.111   .     S
C663   H90     1.111   1_565 S
C664   H693    1.095   .     S
C664   C665    1.539   .     S
C664   H691    1.108   .     S
C665   H690    1.109   .     S
C665   C666    1.526   .     S
C665   H689    1.112   .     S
C666   H687    1.111   .     S
C666   H686    1.111   .     S
C666   H52     1.111   1_565 S
C667   H699    1.106   .     S
C667   C668    1.549   .     S
C667   H700    1.105   .     S
C668   H697    1.108   .     S
C668   H698    1.105   .     S
C668   C881    1.526   1_455 S
C669   H694    1.111   .     S
C669   H695    1.107   .     S
C669   H696    1.110   .     S
C669   C774    1.526   .     S
C670   N730    1.436   .     S
C670   C1614   1.414   .     S
C671   C672    1.537   .     S
C671   H707    1.109   .     S
C671   H708    1.112   .     S
C672   H706    1.113   .     S
C672   H705    1.097   .     S
C672   C673    1.531   .     S
C673   H701    1.107   .     S
C673   H808    1.111   .     S
C673   H810    1.111   .     S
C674   N731    1.437   .     S
C674   C888    1.395   1_455 S
C675   C678    1.414   .     A
C675   N732    1.436   .     S
C675   C783    1.405   .     S
C676   C678    1.416   .     A
C676   N733    1.436   .     S
C676   C780    1.395   .     S
C677   N734    1.437   .     S
C677   C887    1.405   1_455 S
Cu679  O735    1.993   .     S
Cu679  O741    1.956   .     S
Cu679  N727    2.006   .     S
Cu679  Cu680   2.669   .     S
Cu679  O737    1.992   .     S
Cu679  O739    1.959   .     S
Cu680  O740    1.959   .     S
Cu680  N728    2.006   .     S
Cu680  O738    1.992   .     S
Cu680  O742    1.956   .     S
Cu680  O736    1.993   .     S
H702   C885    1.111   1_455 S
H704   C885    1.111   1_455 S
H709   N729    1.039   .     S
H710   N729    1.045   .     S
H711   N730    1.043   .     S
H712   N730    1.045   .     S
H713   N731    1.045   .     S
H715   N731    1.046   .     S
H716   N732    1.042   .     S
H717   N732    1.045   .     S
H718   N733    1.046   .     S
H719   N733    1.044   .     S
H720   N734    1.045   .     S
H721   N734    1.044   .     S
C743   O841    1.292   .     A
C743   C744    1.470   .     S
C743   O844    1.292   .     A
C744   C783    1.410   .     A
C744   C780    1.416   .     A
C745   N834    1.366   .     A
C745   H809    1.082   .     S
C746   N833    1.366   .     A
C746   H820    1.082   .     S
C746   C111    1.414   1_565 S
C747   H828    1.081   .     S
C747   N834    1.366   .     A
C748   N833    1.366   .     A
C748   H829    1.082   .     S
C748   C109    1.414   1_565 S
C749   O845    1.287   .     A
C749   O848    1.292   .     A
C749   C755    1.457   .     S
C750   O847    1.286   .     A
C750   O846    1.290   .     A
C750   C753    1.455   .     S
C751   H787    1.083   .     S
C751   C753    1.390   .     A
C751   C762    1.393   .     A
C752   H798    1.082   .     S
C752   C763    1.408   .     A
C752   C755    1.398   .     A
C753   C756    1.418   .     A
C754   C784    1.474   .     S
C754   O843    1.291   .     A
C754   O842    1.295   .     A
C755   C757    1.403   .     A
C756   C758    1.436   .     A
C756   C767    1.536   .     S
C757   C759    1.408   .     A
C757   C770    1.518   .     S
C758   C764    1.440   .     A
C758   C760    1.427   .     A
C759   C766    1.416   .     A
C759   C761    1.408   .     A
C760   C762    1.411   .     A
C760   C1715   1.398   .     S
C761   C763    1.402   .     A
C761   C1714   1.398   1_554 S
C762   C776    1.419   .     A
C763   C765    1.405   .     A
C764   C773    1.515   .     S
C764   C1719   1.420   .     S
C765   N835    1.434   .     S
C765   C1718   1.420   1_554 S
C766   C777    1.521   .     S
C766   C1730   1.414   1_554 S
C767   H791    1.083   .     S
C767   C768    1.540   .     S
C767   H790    1.107   .     S
C768   C769    1.527   .     S
C768   H789    1.109   .     S
C768   H788    1.110   .     S
C769   H831    1.111   .     S
C769   H830    1.111   .     S
C769   H196    1.111   1_565 S
C770   H799    1.095   .     S
C770   C771    1.539   .     S
C770   H797    1.108   .     S
C771   H796    1.109   .     S
C771   C772    1.526   .     S
C771   H795    1.112   .     S
C772   H793    1.111   .     S
C772   H792    1.111   .     S
C772   H158    1.111   1_565 S
C773   H805    1.106   .     S
C773   C774    1.549   .     S
C773   H806    1.105   .     S
C774   H803    1.108   .     S
C774   H804    1.105   .     S
C775   H800    1.111   .     S
C775   H801    1.107   .     S
C775   H802    1.110   .     S
C775   C880    1.526   .     S
C776   N836    1.436   .     S
C776   C1720   1.414   .     S
C777   C778    1.537   .     S
C777   H813    1.109   .     S
C777   H814    1.112   .     S
C778   H812    1.113   .     S
C778   H811    1.097   .     S
C778   C779    1.531   .     S
C779   H807    1.107   .     S
C779   H914    1.111   .     S
C779   H916    1.111   .     S
C780   N837    1.437   .     S
C781   C784    1.414   .     A
C781   N838    1.436   .     S
C781   C889    1.405   .     S
C782   C784    1.416   .     A
C782   N839    1.436   .     S
C782   C886    1.395   .     S
C783   N840    1.437   .     S
Cu785  O841    1.993   .     S
Cu785  O847    1.956   .     S
Cu785  N833    2.006   .     S
Cu785  Cu786   2.669   .     S
Cu785  O843    1.992   .     S
Cu785  O845    1.959   .     S
Cu786  O846    1.959   .     S
Cu786  N834    2.006   .     S
Cu786  O844    1.992   .     S
Cu786  O848    1.956   .     S
Cu786  O842    1.993   .     S
H815   N835    1.039   .     S
H816   N835    1.045   .     S
H817   N836    1.043   .     S
H818   N836    1.045   .     S
H819   N837    1.045   .     S
H821   N837    1.046   .     S
H822   N838    1.042   .     S
H823   N838    1.045   .     S
H824   N839    1.046   .     S
H825   N839    1.044   .     S
H826   N840    1.045   .     S
H827   N840    1.044   .     S
C849   O947    1.292   .     A
C849   C850    1.470   .     S
C849   O950    1.292   .     A
C850   C889    1.410   .     A
C850   C886    1.416   .     A
C851   N940    1.366   .     A
C851   H915    1.082   .     S
C852   N939    1.366   .     A
C852   H926    1.082   .     S
C852   C217    1.414   1_565 S
C853   H934    1.081   .     S
C853   N940    1.366   .     A
C854   N939    1.366   .     A
C854   H935    1.082   .     S
C854   C215    1.414   1_565 S
C855   O951    1.287   .     A
C855   O954    1.292   .     A
C855   C861    1.457   .     S
C856   O953    1.286   .     A
C856   O952    1.290   .     A
C856   C859    1.455   .     S
C857   H893    1.083   .     S
C857   C859    1.390   .     A
C857   C868    1.393   .     A
C858   H904    1.082   .     S
C858   C869    1.408   .     A
C858   C861    1.398   .     A
C859   C862    1.418   .     A
C860   C890    1.474   .     S
C860   O949    1.291   .     A
C860   O948    1.295   .     A
C861   C863    1.403   .     A
C862   C864    1.436   .     A
C862   C873    1.536   .     S
C863   C865    1.408   .     A
C863   C876    1.518   .     S
C864   C870    1.440   .     A
C864   C866    1.427   .     A
C865   C872    1.416   .     A
C865   C867    1.408   .     A
C866   C868    1.411   .     A
C866   C1821   1.398   .     S
C867   C869    1.402   .     A
C867   C1820   1.398   1_554 S
C868   C882    1.419   .     A
C869   C871    1.405   .     A
C870   C879    1.515   .     S
C870   C1825   1.420   .     S
C871   N941    1.434   .     S
C871   C1824   1.420   1_554 S
C872   C883    1.521   .     S
C872   C1836   1.414   1_554 S
C873   H897    1.083   .     S
C873   C874    1.540   .     S
C873   H896    1.107   .     S
C874   C875    1.527   .     S
C874   H895    1.109   .     S
C874   H894    1.110   .     S
C875   H937    1.111   .     S
C875   H936    1.111   .     S
C875   H302    1.111   1_565 S
C876   H905    1.095   .     S
C876   C877    1.539   .     S
C876   H903    1.108   .     S
C877   H902    1.109   .     S
C877   C878    1.526   .     S
C877   H901    1.112   .     S
C878   H899    1.111   .     S
C878   H898    1.111   .     S
C878   H264    1.111   1_565 S
C879   H911    1.106   .     S
C879   C880    1.549   .     S
C879   H912    1.105   .     S
C880   H909    1.108   .     S
C880   H910    1.105   .     S
C881   H906    1.111   .     S
C881   H907    1.107   .     S
C881   H908    1.110   .     S
C881   C668    1.526   1_655 S
C882   N942    1.436   .     S
C882   C1826   1.414   .     S
C883   C884    1.537   .     S
C883   H919    1.109   .     S
C883   H920    1.112   .     S
C884   H918    1.113   .     S
C884   H917    1.097   .     S
C884   C885    1.531   .     S
C885   H913    1.107   .     S
C885   H702    1.111   1_655 S
C885   H704    1.111   1_655 S
C886   N943    1.437   .     S
C887   C890    1.414   .     A
C887   N944    1.436   .     S
C887   C677    1.405   1_655 S
C888   C890    1.416   .     A
C888   N945    1.436   .     S
C888   C674    1.395   1_655 S
C889   N946    1.437   .     S
Cu891  O947    1.993   .     S
Cu891  O953    1.956   .     S
Cu891  N939    2.006   .     S
Cu891  Cu892   2.669   .     S
Cu891  O949    1.992   .     S
Cu891  O951    1.959   .     S
Cu892  O952    1.959   .     S
Cu892  N940    2.006   .     S
Cu892  O950    1.992   .     S
Cu892  O954    1.956   .     S
Cu892  O948    1.993   .     S
H921   N941    1.039   .     S
H922   N941    1.045   .     S
H923   N942    1.043   .     S
H924   N942    1.045   .     S
H925   N943    1.045   .     S
H927   N943    1.046   .     S
H928   N944    1.042   .     S
H929   N944    1.045   .     S
H930   N945    1.046   .     S
H931   N945    1.044   .     S
H932   N946    1.045   .     S
H933   N946    1.044   .     S
C955   O1053   1.292   .     A
C955   C956    1.470   .     S
C955   O1056   1.292   .     A
C956   C995    1.410   .     A
C956   C992    1.416   .     A
C957   N1046   1.366   .     A
C957   H1021   1.082   .     S
C957   C1596   1.414   1_545 S
C958   N1045   1.366   .     A
C958   H1032   1.082   .     S
C958   C1277   1.414   .     S
C959   H1040   1.081   .     S
C959   N1046   1.366   .     A
C959   C1594   1.414   1_545 S
C960   N1045   1.366   .     A
C960   H1041   1.082   .     S
C960   C1275   1.414   .     S
C961   O1057   1.287   .     A
C961   O1060   1.292   .     A
C961   C967    1.457   .     S
C962   O1059   1.286   .     A
C962   O1058   1.290   .     A
C962   C965    1.455   .     S
C963   H999    1.083   .     S
C963   C965    1.390   .     A
C963   C974    1.393   .     A
C964   H1010   1.082   .     S
C964   C975    1.408   .     A
C964   C967    1.398   .     A
C965   C968    1.418   .     A
C966   C996    1.474   .     S
C966   O1055   1.291   .     A
C966   O1054   1.295   .     A
C967   C969    1.403   .     A
C968   C970    1.436   .     A
C968   C979    1.536   .     S
C969   C971    1.408   .     A
C969   C982    1.518   .     S
C970   C976    1.440   .     A
C970   C972    1.427   .     A
C971   C978    1.416   .     A
C971   C973    1.408   .     A
C972   C974    1.411   .     A
C972   C19     1.398   1_556 S
C973   C975    1.402   .     A
C974   C988    1.419   .     A
C975   C977    1.405   .     A
C976   C985    1.515   .     S
C976   C23     1.420   1_556 S
C977   N1047   1.434   .     S
C978   C989    1.521   .     S
C979   H1003   1.083   .     S
C979   C980    1.540   .     S
C979   H1002   1.107   .     S
C980   C981    1.527   .     S
C980   H1001   1.109   .     S
C980   H1000   1.110   .     S
C981   H1043   1.111   .     S
C981   H1042   1.111   .     S
C981   H1362   1.111   .     S
C982   H1011   1.095   .     S
C982   C983    1.539   .     S
C982   H1009   1.108   .     S
C983   H1008   1.109   .     S
C983   C984    1.526   .     S
C983   H1007   1.112   .     S
C984   H1005   1.111   .     S
C984   H1004   1.111   .     S
C984   H1324   1.111   .     S
C985   H1017   1.106   .     S
C985   C986    1.549   .     S
C985   H1018   1.105   .     S
C986   H1015   1.108   .     S
C986   H1016   1.105   .     S
C986   C1199   1.526   1_455 S
C987   H1012   1.111   .     S
C987   H1013   1.107   .     S
C987   H1014   1.110   .     S
C987   C1092   1.526   .     S
C988   N1048   1.436   .     S
C988   C24     1.414   1_556 S
C989   C990    1.537   .     S
C989   H1025   1.109   .     S
C989   H1026   1.112   .     S
C990   H1024   1.113   .     S
C990   H1023   1.097   .     S
C990   C991    1.531   .     S
C991   H1019   1.107   .     S
C991   H1126   1.111   .     S
C991   H1128   1.111   .     S
C992   N1049   1.437   .     S
C992   C1206   1.395   1_455 S
C993   C996    1.414   .     A
C993   N1050   1.436   .     S
C993   C1101   1.405   .     S
C994   C996    1.416   .     A
C994   N1051   1.436   .     S
C994   C1098   1.395   .     S
C995   N1052   1.437   .     S
C995   C1205   1.405   1_455 S
Cu997  O1053   1.993   .     S
Cu997  O1059   1.956   .     S
Cu997  N1045   2.006   .     S
Cu997  Cu998   2.669   .     S
Cu997  O1055   1.992   .     S
Cu997  O1057   1.959   .     S
Cu998  O1058   1.959   .     S
Cu998  N1046   2.006   .     S
Cu998  O1056   1.992   .     S
Cu998  O1060   1.956   .     S
Cu998  O1054   1.993   .     S
H1006  C1620   1.111   1_545 S
H1020  C1203   1.111   1_455 S
H1022  C1203   1.111   1_455 S
H1027  N1047   1.039   .     S
H1028  N1047   1.045   .     S
H1029  N1048   1.043   .     S
H1030  N1048   1.045   .     S
H1031  N1049   1.045   .     S
H1033  N1049   1.046   .     S
H1034  N1050   1.042   .     S
H1035  N1050   1.045   .     S
H1036  N1051   1.046   .     S
H1037  N1051   1.044   .     S
H1038  N1052   1.045   .     S
H1039  N1052   1.044   .     S
H1044  C1617   1.111   1_545 S
C1061  O1159   1.292   .     A
C1061  C1062   1.470   .     S
C1061  O1162   1.292   .     A
C1062  C1101   1.410   .     A
C1062  C1098   1.416   .     A
C1063  N1152   1.366   .     A
C1063  H1127   1.082   .     S
C1063  C1702   1.414   1_545 S
C1064  N1151   1.366   .     A
C1064  H1138   1.082   .     S
C1064  C1383   1.414   .     S
C1065  H1146   1.081   .     S
C1065  N1152   1.366   .     A
C1065  C1700   1.414   1_545 S
C1066  N1151   1.366   .     A
C1066  H1147   1.082   .     S
C1066  C1381   1.414   .     S
C1067  O1163   1.287   .     A
C1067  O1166   1.292   .     A
C1067  C1073   1.457   .     S
C1068  O1165   1.286   .     A
C1068  O1164   1.290   .     A
C1068  C1071   1.455   .     S
C1069  H1105   1.083   .     S
C1069  C1071   1.390   .     A
C1069  C1080   1.393   .     A
C1070  H1116   1.082   .     S
C1070  C1081   1.408   .     A
C1070  C1073   1.398   .     A
C1071  C1074   1.418   .     A
C1072  C1102   1.474   .     S
C1072  O1161   1.291   .     A
C1072  O1160   1.295   .     A
C1073  C1075   1.403   .     A
C1074  C1076   1.436   .     A
C1074  C1085   1.536   .     S
C1075  C1077   1.408   .     A
C1075  C1088   1.518   .     S
C1076  C1082   1.440   .     A
C1076  C1078   1.427   .     A
C1077  C1084   1.416   .     A
C1077  C1079   1.408   .     A
C1078  C1080   1.411   .     A
C1078  C125    1.398   1_556 S
C1079  C1081   1.402   .     A
C1080  C1094   1.419   .     A
C1081  C1083   1.405   .     A
C1082  C1091   1.515   .     S
C1082  C129    1.420   1_556 S
C1083  N1153   1.434   .     S
C1084  C1095   1.521   .     S
C1085  H1109   1.083   .     S
C1085  C1086   1.540   .     S
C1085  H1108   1.107   .     S
C1086  C1087   1.527   .     S
C1086  H1107   1.109   .     S
C1086  H1106   1.110   .     S
C1087  H1149   1.111   .     S
C1087  H1148   1.111   .     S
C1087  H1468   1.111   .     S
C1088  H1117   1.095   .     S
C1088  C1089   1.539   .     S
C1088  H1115   1.108   .     S
C1089  H1114   1.109   .     S
C1089  C1090   1.526   .     S
C1089  H1113   1.112   .     S
C1090  H1111   1.111   .     S
C1090  H1110   1.111   .     S
C1090  H1430   1.111   .     S
C1091  H1123   1.106   .     S
C1091  C1092   1.549   .     S
C1091  H1124   1.105   .     S
C1092  H1121   1.108   .     S
C1092  H1122   1.105   .     S
C1093  H1118   1.111   .     S
C1093  H1119   1.107   .     S
C1093  H1120   1.110   .     S
C1093  C1198   1.526   .     S
C1094  N1154   1.436   .     S
C1094  C130    1.414   1_556 S
C1095  C1096   1.537   .     S
C1095  H1131   1.109   .     S
C1095  H1132   1.112   .     S
C1096  H1130   1.113   .     S
C1096  H1129   1.097   .     S
C1096  C1097   1.531   .     S
C1097  H1125   1.107   .     S
C1097  H1232   1.111   .     S
C1097  H1234   1.111   .     S
C1098  N1155   1.437   .     S
C1099  C1102   1.414   .     A
C1099  N1156   1.436   .     S
C1099  C1207   1.405   .     S
C1100  C1102   1.416   .     A
C1100  N1157   1.436   .     S
C1100  C1204   1.395   .     S
C1101  N1158   1.437   .     S
Cu1103 O1159   1.993   .     S
Cu1103 O1165   1.956   .     S
Cu1103 N1151   2.006   .     S
Cu1103 Cu1104  2.669   .     S
Cu1103 O1161   1.992   .     S
Cu1103 O1163   1.959   .     S
Cu1104 O1164   1.959   .     S
Cu1104 N1152   2.006   .     S
Cu1104 O1162   1.992   .     S
Cu1104 O1166   1.956   .     S
Cu1104 O1160   1.993   .     S
H1112  C1726   1.111   1_545 S
H1133  N1153   1.039   .     S
H1134  N1153   1.045   .     S
H1135  N1154   1.043   .     S
H1136  N1154   1.045   .     S
H1137  N1155   1.045   .     S
H1139  N1155   1.046   .     S
H1140  N1156   1.042   .     S
H1141  N1156   1.045   .     S
H1142  N1157   1.046   .     S
H1143  N1157   1.044   .     S
H1144  N1158   1.045   .     S
H1145  N1158   1.044   .     S
H1150  C1723   1.111   1_545 S
C1167  O1265   1.292   .     A
C1167  C1168   1.470   .     S
C1167  O1268   1.292   .     A
C1168  C1207   1.410   .     A
C1168  C1204   1.416   .     A
C1169  N1258   1.366   .     A
C1169  H1233   1.082   .     S
C1169  C1808   1.414   1_545 S
C1170  N1257   1.366   .     A
C1170  H1244   1.082   .     S
C1170  C1489   1.414   .     S
C1171  H1252   1.081   .     S
C1171  N1258   1.366   .     A
C1171  C1806   1.414   1_545 S
C1172  N1257   1.366   .     A
C1172  H1253   1.082   .     S
C1172  C1487   1.414   .     S
C1173  O1269   1.287   .     A
C1173  O1272   1.292   .     A
C1173  C1179   1.457   .     S
C1174  O1271   1.286   .     A
C1174  O1270   1.290   .     A
C1174  C1177   1.455   .     S
C1175  H1211   1.083   .     S
C1175  C1177   1.390   .     A
C1175  C1186   1.393   .     A
C1176  H1222   1.082   .     S
C1176  C1187   1.408   .     A
C1176  C1179   1.398   .     A
C1177  C1180   1.418   .     A
C1178  C1208   1.474   .     S
C1178  O1267   1.291   .     A
C1178  O1266   1.295   .     A
C1179  C1181   1.403   .     A
C1180  C1182   1.436   .     A
C1180  C1191   1.536   .     S
C1181  C1183   1.408   .     A
C1181  C1194   1.518   .     S
C1182  C1188   1.440   .     A
C1182  C1184   1.427   .     A
C1183  C1190   1.416   .     A
C1183  C1185   1.408   .     A
C1184  C1186   1.411   .     A
C1184  C231    1.398   1_556 S
C1185  C1187   1.402   .     A
C1186  C1200   1.419   .     A
C1187  C1189   1.405   .     A
C1188  C1197   1.515   .     S
C1188  C235    1.420   1_556 S
C1189  N1259   1.434   .     S
C1190  C1201   1.521   .     S
C1191  H1215   1.083   .     S
C1191  C1192   1.540   .     S
C1191  H1214   1.107   .     S
C1192  C1193   1.527   .     S
C1192  H1213   1.109   .     S
C1192  H1212   1.110   .     S
C1193  H1255   1.111   .     S
C1193  H1254   1.111   .     S
C1193  H1574   1.111   .     S
C1194  H1223   1.095   .     S
C1194  C1195   1.539   .     S
C1194  H1221   1.108   .     S
C1195  H1220   1.109   .     S
C1195  C1196   1.526   .     S
C1195  H1219   1.112   .     S
C1196  H1217   1.111   .     S
C1196  H1216   1.111   .     S
C1196  H1536   1.111   .     S
C1197  H1229   1.106   .     S
C1197  C1198   1.549   .     S
C1197  H1230   1.105   .     S
C1198  H1227   1.108   .     S
C1198  H1228   1.105   .     S
C1199  H1224   1.111   .     S
C1199  H1225   1.107   .     S
C1199  H1226   1.110   .     S
C1199  C986    1.526   1_655 S
C1200  N1260   1.436   .     S
C1200  C236    1.414   1_556 S
C1201  C1202   1.537   .     S
C1201  H1237   1.109   .     S
C1201  H1238   1.112   .     S
C1202  H1236   1.113   .     S
C1202  H1235   1.097   .     S
C1202  C1203   1.531   .     S
C1203  H1231   1.107   .     S
C1203  H1020   1.111   1_655 S
C1203  H1022   1.111   1_655 S
C1204  N1261   1.437   .     S
C1205  C1208   1.414   .     A
C1205  N1262   1.436   .     S
C1205  C995    1.405   1_655 S
C1206  C1208   1.416   .     A
C1206  N1263   1.436   .     S
C1206  C992    1.395   1_655 S
C1207  N1264   1.437   .     S
Cu1209 O1265   1.993   .     S
Cu1209 O1271   1.956   .     S
Cu1209 N1257   2.006   .     S
Cu1209 Cu1210  2.669   .     S
Cu1209 O1267   1.992   .     S
Cu1209 O1269   1.959   .     S
Cu1210 O1270   1.959   .     S
Cu1210 N1258   2.006   .     S
Cu1210 O1268   1.992   .     S
Cu1210 O1272   1.956   .     S
Cu1210 O1266   1.993   .     S
H1218  C1832   1.111   1_545 S
H1239  N1259   1.039   .     S
H1240  N1259   1.045   .     S
H1241  N1260   1.043   .     S
H1242  N1260   1.045   .     S
H1243  N1261   1.045   .     S
H1245  N1261   1.046   .     S
H1246  N1262   1.042   .     S
H1247  N1262   1.045   .     S
H1248  N1263   1.046   .     S
H1249  N1263   1.044   .     S
H1250  N1264   1.045   .     S
H1251  N1264   1.044   .     S
H1256  C1829   1.111   1_545 S
C1273  O1371   1.292   .     A
C1273  C1274   1.470   .     S
C1273  O1374   1.292   .     A
C1274  C1313   1.410   .     A
C1274  C1310   1.416   .     A
C1275  N1364   1.366   .     A
C1275  H1339   1.082   .     S
C1276  N1363   1.366   .     A
C1276  H1350   1.082   .     S
C1276  C1595   1.414   .     S
C1277  H1358   1.081   .     S
C1277  N1364   1.366   .     A
C1278  N1363   1.366   .     A
C1278  H1359   1.082   .     S
C1278  C1593   1.414   .     S
C1279  O1375   1.287   .     A
C1279  O1378   1.292   .     A
C1279  C1285   1.457   .     S
C1280  O1377   1.286   .     A
C1280  O1376   1.290   .     A
C1280  C1283   1.455   .     S
C1281  H1317   1.083   .     S
C1281  C1283   1.390   .     A
C1281  C1292   1.393   .     A
C1282  H1328   1.082   .     S
C1282  C1293   1.408   .     A
C1282  C1285   1.398   .     A
C1283  C1286   1.418   .     A
C1284  C1314   1.474   .     S
C1284  O1373   1.291   .     A
C1284  O1372   1.295   .     A
C1285  C1287   1.403   .     A
C1286  C1288   1.436   .     A
C1286  C1297   1.536   .     S
C1287  C1289   1.408   .     A
C1287  C1300   1.518   .     S
C1288  C1294   1.440   .     A
C1288  C1290   1.427   .     A
C1289  C1296   1.416   .     A
C1289  C1291   1.408   .     A
C1290  C1292   1.411   .     A
C1290  C337    1.398   1_556 S
C1291  C1293   1.402   .     A
C1292  C1306   1.419   .     A
C1293  C1295   1.405   .     A
C1294  C1303   1.515   .     S
C1294  C341    1.420   1_556 S
C1295  N1365   1.434   .     S
C1296  C1307   1.521   .     S
C1297  H1321   1.083   .     S
C1297  C1298   1.540   .     S
C1297  H1320   1.107   .     S
C1298  C1299   1.527   .     S
C1298  H1319   1.109   .     S
C1298  H1318   1.110   .     S
C1299  H1361   1.111   .     S
C1299  H1360   1.111   .     S
C1299  H1680   1.111   .     S
C1300  H1329   1.095   .     S
C1300  C1301   1.539   .     S
C1300  H1327   1.108   .     S
C1301  H1326   1.109   .     S
C1301  C1302   1.526   .     S
C1301  H1325   1.112   .     S
C1302  H1323   1.111   .     S
C1302  H1322   1.111   .     S
C1302  H1642   1.111   .     S
C1303  H1335   1.106   .     S
C1303  C1304   1.549   .     S
C1303  H1336   1.105   .     S
C1304  H1333   1.108   .     S
C1304  H1334   1.105   .     S
C1304  C1517   1.526   1_455 S
C1305  H1330   1.111   .     S
C1305  H1331   1.107   .     S
C1305  H1332   1.110   .     S
C1305  C1410   1.526   .     S
C1306  N1366   1.436   .     S
C1306  C342    1.414   1_556 S
C1307  C1308   1.537   .     S
C1307  H1343   1.109   .     S
C1307  H1344   1.112   .     S
C1308  H1342   1.113   .     S
C1308  H1341   1.097   .     S
C1308  C1309   1.531   .     S
C1309  H1337   1.107   .     S
C1309  H1444   1.111   .     S
C1309  H1446   1.111   .     S
C1310  N1367   1.437   .     S
C1310  C1524   1.395   1_455 S
C1311  C1314   1.414   .     A
C1311  N1368   1.436   .     S
C1311  C1419   1.405   .     S
C1312  C1314   1.416   .     A
C1312  N1369   1.436   .     S
C1312  C1416   1.395   .     S
C1313  N1370   1.437   .     S
C1313  C1523   1.405   1_455 S
Cu1315 O1371   1.993   .     S
Cu1315 O1377   1.956   .     S
Cu1315 N1363   2.006   .     S
Cu1315 Cu1316  2.669   .     S
Cu1315 O1373   1.992   .     S
Cu1315 O1375   1.959   .     S
Cu1316 O1376   1.959   .     S
Cu1316 N1364   2.006   .     S
Cu1316 O1374   1.992   .     S
Cu1316 O1378   1.956   .     S
Cu1316 O1372   1.993   .     S
H1338  C1521   1.111   1_455 S
H1340  C1521   1.111   1_455 S
H1345  N1365   1.039   .     S
H1346  N1365   1.045   .     S
H1347  N1366   1.043   .     S
H1348  N1366   1.045   .     S
H1349  N1367   1.045   .     S
H1351  N1367   1.046   .     S
H1352  N1368   1.042   .     S
H1353  N1368   1.045   .     S
H1354  N1369   1.046   .     S
H1355  N1369   1.044   .     S
H1356  N1370   1.045   .     S
H1357  N1370   1.044   .     S
C1379  O1477   1.292   .     A
C1379  C1380   1.470   .     S
C1379  O1480   1.292   .     A
C1380  C1419   1.410   .     A
C1380  C1416   1.416   .     A
C1381  N1470   1.366   .     A
C1381  H1445   1.082   .     S
C1382  N1469   1.366   .     A
C1382  H1456   1.082   .     S
C1382  C1701   1.414   .     S
C1383  H1464   1.081   .     S
C1383  N1470   1.366   .     A
C1384  N1469   1.366   .     A
C1384  H1465   1.082   .     S
C1384  C1699   1.414   .     S
C1385  O1481   1.287   .     A
C1385  O1484   1.292   .     A
C1385  C1391   1.457   .     S
C1386  O1483   1.286   .     A
C1386  O1482   1.290   .     A
C1386  C1389   1.455   .     S
C1387  H1423   1.083   .     S
C1387  C1389   1.390   .     A
C1387  C1398   1.393   .     A
C1388  H1434   1.082   .     S
C1388  C1399   1.408   .     A
C1388  C1391   1.398   .     A
C1389  C1392   1.418   .     A
C1390  C1420   1.474   .     S
C1390  O1479   1.291   .     A
C1390  O1478   1.295   .     A
C1391  C1393   1.403   .     A
C1392  C1394   1.436   .     A
C1392  C1403   1.536   .     S
C1393  C1395   1.408   .     A
C1393  C1406   1.518   .     S
C1394  C1400   1.440   .     A
C1394  C1396   1.427   .     A
C1395  C1402   1.416   .     A
C1395  C1397   1.408   .     A
C1396  C1398   1.411   .     A
C1396  C443    1.398   1_556 S
C1397  C1399   1.402   .     A
C1398  C1412   1.419   .     A
C1399  C1401   1.405   .     A
C1400  C1409   1.515   .     S
C1400  C447    1.420   1_556 S
C1401  N1471   1.434   .     S
C1402  C1413   1.521   .     S
C1403  H1427   1.083   .     S
C1403  C1404   1.540   .     S
C1403  H1426   1.107   .     S
C1404  C1405   1.527   .     S
C1404  H1425   1.109   .     S
C1404  H1424   1.110   .     S
C1405  H1467   1.111   .     S
C1405  H1466   1.111   .     S
C1405  H1786   1.111   .     S
C1406  H1435   1.095   .     S
C1406  C1407   1.539   .     S
C1406  H1433   1.108   .     S
C1407  H1432   1.109   .     S
C1407  C1408   1.526   .     S
C1407  H1431   1.112   .     S
C1408  H1429   1.111   .     S
C1408  H1428   1.111   .     S
C1408  H1748   1.111   .     S
C1409  H1441   1.106   .     S
C1409  C1410   1.549   .     S
C1409  H1442   1.105   .     S
C1410  H1439   1.108   .     S
C1410  H1440   1.105   .     S
C1411  H1436   1.111   .     S
C1411  H1437   1.107   .     S
C1411  H1438   1.110   .     S
C1411  C1516   1.526   .     S
C1412  N1472   1.436   .     S
C1412  C448    1.414   1_556 S
C1413  C1414   1.537   .     S
C1413  H1449   1.109   .     S
C1413  H1450   1.112   .     S
C1414  H1448   1.113   .     S
C1414  H1447   1.097   .     S
C1414  C1415   1.531   .     S
C1415  H1443   1.107   .     S
C1415  H1550   1.111   .     S
C1415  H1552   1.111   .     S
C1416  N1473   1.437   .     S
C1417  C1420   1.414   .     A
C1417  N1474   1.436   .     S
C1417  C1525   1.405   .     S
C1418  C1420   1.416   .     A
C1418  N1475   1.436   .     S
C1418  C1522   1.395   .     S
C1419  N1476   1.437   .     S
Cu1421 O1477   1.993   .     S
Cu1421 O1483   1.956   .     S
Cu1421 N1469   2.006   .     S
Cu1421 Cu1422  2.669   .     S
Cu1421 O1479   1.992   .     S
Cu1421 O1481   1.959   .     S
Cu1422 O1482   1.959   .     S
Cu1422 N1470   2.006   .     S
Cu1422 O1480   1.992   .     S
Cu1422 O1484   1.956   .     S
Cu1422 O1478   1.993   .     S
H1451  N1471   1.039   .     S
H1452  N1471   1.045   .     S
H1453  N1472   1.043   .     S
H1454  N1472   1.045   .     S
H1455  N1473   1.045   .     S
H1457  N1473   1.046   .     S
H1458  N1474   1.042   .     S
H1459  N1474   1.045   .     S
H1460  N1475   1.046   .     S
H1461  N1475   1.044   .     S
H1462  N1476   1.045   .     S
H1463  N1476   1.044   .     S
C1485  O1583   1.292   .     A
C1485  C1486   1.470   .     S
C1485  O1586   1.292   .     A
C1486  C1525   1.410   .     A
C1486  C1522   1.416   .     A
C1487  N1576   1.366   .     A
C1487  H1551   1.082   .     S
C1488  N1575   1.366   .     A
C1488  H1562   1.082   .     S
C1488  C1807   1.414   .     S
C1489  H1570   1.081   .     S
C1489  N1576   1.366   .     A
C1490  N1575   1.366   .     A
C1490  H1571   1.082   .     S
C1490  C1805   1.414   .     S
C1491  O1587   1.287   .     A
C1491  O1590   1.292   .     A
C1491  C1497   1.457   .     S
C1492  O1589   1.286   .     A
C1492  O1588   1.290   .     A
C1492  C1495   1.455   .     S
C1493  H1529   1.083   .     S
C1493  C1495   1.390   .     A
C1493  C1504   1.393   .     A
C1494  H1540   1.082   .     S
C1494  C1505   1.408   .     A
C1494  C1497   1.398   .     A
C1495  C1498   1.418   .     A
C1496  C1526   1.474   .     S
C1496  O1585   1.291   .     A
C1496  O1584   1.295   .     A
C1497  C1499   1.403   .     A
C1498  C1500   1.436   .     A
C1498  C1509   1.536   .     S
C1499  C1501   1.408   .     A
C1499  C1512   1.518   .     S
C1500  C1506   1.440   .     A
C1500  C1502   1.427   .     A
C1501  C1508   1.416   .     A
C1501  C1503   1.408   .     A
C1502  C1504   1.411   .     A
C1502  C549    1.398   1_556 S
C1503  C1505   1.402   .     A
C1504  C1518   1.419   .     A
C1505  C1507   1.405   .     A
C1506  C1515   1.515   .     S
C1506  C553    1.420   1_556 S
C1507  N1577   1.434   .     S
C1508  C1519   1.521   .     S
C1509  H1533   1.083   .     S
C1509  C1510   1.540   .     S
C1509  H1532   1.107   .     S
C1510  C1511   1.527   .     S
C1510  H1531   1.109   .     S
C1510  H1530   1.110   .     S
C1511  H1573   1.111   .     S
C1511  H1572   1.111   .     S
C1511  H1892   1.111   .     S
C1512  H1541   1.095   .     S
C1512  C1513   1.539   .     S
C1512  H1539   1.108   .     S
C1513  H1538   1.109   .     S
C1513  C1514   1.526   .     S
C1513  H1537   1.112   .     S
C1514  H1535   1.111   .     S
C1514  H1534   1.111   .     S
C1514  H1854   1.111   .     S
C1515  H1547   1.106   .     S
C1515  C1516   1.549   .     S
C1515  H1548   1.105   .     S
C1516  H1545   1.108   .     S
C1516  H1546   1.105   .     S
C1517  H1542   1.111   .     S
C1517  H1543   1.107   .     S
C1517  H1544   1.110   .     S
C1517  C1304   1.526   1_655 S
C1518  N1578   1.436   .     S
C1518  C554    1.414   1_556 S
C1519  C1520   1.537   .     S
C1519  H1555   1.109   .     S
C1519  H1556   1.112   .     S
C1520  H1554   1.113   .     S
C1520  H1553   1.097   .     S
C1520  C1521   1.531   .     S
C1521  H1549   1.107   .     S
C1521  H1338   1.111   1_655 S
C1521  H1340   1.111   1_655 S
C1522  N1579   1.437   .     S
C1523  C1526   1.414   .     A
C1523  N1580   1.436   .     S
C1523  C1313   1.405   1_655 S
C1524  C1526   1.416   .     A
C1524  N1581   1.436   .     S
C1524  C1310   1.395   1_655 S
C1525  N1582   1.437   .     S
Cu1527 O1583   1.993   .     S
Cu1527 O1589   1.956   .     S
Cu1527 N1575   2.006   .     S
Cu1527 Cu1528  2.669   .     S
Cu1527 O1585   1.992   .     S
Cu1527 O1587   1.959   .     S
Cu1528 O1588   1.959   .     S
Cu1528 N1576   2.006   .     S
Cu1528 O1586   1.992   .     S
Cu1528 O1590   1.956   .     S
Cu1528 O1584   1.993   .     S
H1557  N1577   1.039   .     S
H1558  N1577   1.045   .     S
H1559  N1578   1.043   .     S
H1560  N1578   1.045   .     S
H1561  N1579   1.045   .     S
H1563  N1579   1.046   .     S
H1564  N1580   1.042   .     S
H1565  N1580   1.045   .     S
H1566  N1581   1.046   .     S
H1567  N1581   1.044   .     S
H1568  N1582   1.045   .     S
H1569  N1582   1.044   .     S
C1591  O1689   1.292   .     A
C1591  C1592   1.470   .     S
C1591  O1692   1.292   .     A
C1592  C1631   1.410   .     A
C1592  C1628   1.416   .     A
C1593  N1682   1.366   .     A
C1593  H1657   1.082   .     S
C1594  N1681   1.366   .     A
C1594  H1668   1.082   .     S
C1594  C959    1.414   1_565 S
C1595  H1676   1.081   .     S
C1595  N1682   1.366   .     A
C1596  N1681   1.366   .     A
C1596  H1677   1.082   .     S
C1596  C957    1.414   1_565 S
C1597  O1693   1.287   .     A
C1597  O1696   1.292   .     A
C1597  C1603   1.457   .     S
C1598  O1695   1.286   .     A
C1598  O1694   1.290   .     A
C1598  C1601   1.455   .     S
C1599  H1635   1.083   .     S
C1599  C1601   1.390   .     A
C1599  C1610   1.393   .     A
C1600  H1646   1.082   .     S
C1600  C1611   1.408   .     A
C1600  C1603   1.398   .     A
C1601  C1604   1.418   .     A
C1602  C1632   1.474   .     S
C1602  O1691   1.291   .     A
C1602  O1690   1.295   .     A
C1603  C1605   1.403   .     A
C1604  C1606   1.436   .     A
C1604  C1615   1.536   .     S
C1605  C1607   1.408   .     A
C1605  C1618   1.518   .     S
C1606  C1612   1.440   .     A
C1606  C1608   1.427   .     A
C1607  C1614   1.416   .     A
C1607  C1609   1.408   .     A
C1608  C1610   1.411   .     A
C1608  C655    1.398   1_556 S
C1609  C1611   1.402   .     A
C1610  C1624   1.419   .     A
C1611  C1613   1.405   .     A
C1612  C1621   1.515   .     S
C1612  C659    1.420   1_556 S
C1613  N1683   1.434   .     S
C1614  C1625   1.521   .     S
C1615  H1639   1.083   .     S
C1615  C1616   1.540   .     S
C1615  H1638   1.107   .     S
C1616  C1617   1.527   .     S
C1616  H1637   1.109   .     S
C1616  H1636   1.110   .     S
C1617  H1679   1.111   .     S
C1617  H1678   1.111   .     S
C1617  H1044   1.111   1_565 S
C1618  H1647   1.095   .     S
C1618  C1619   1.539   .     S
C1618  H1645   1.108   .     S
C1619  H1644   1.109   .     S
C1619  C1620   1.526   .     S
C1619  H1643   1.112   .     S
C1620  H1641   1.111   .     S
C1620  H1640   1.111   .     S
C1620  H1006   1.111   1_565 S
C1621  H1653   1.106   .     S
C1621  C1622   1.549   .     S
C1621  H1654   1.105   .     S
C1622  H1651   1.108   .     S
C1622  H1652   1.105   .     S
C1622  C1835   1.526   1_455 S
C1623  H1648   1.111   .     S
C1623  H1649   1.107   .     S
C1623  H1650   1.110   .     S
C1623  C1728   1.526   .     S
C1624  N1684   1.436   .     S
C1624  C660    1.414   1_556 S
C1625  C1626   1.537   .     S
C1625  H1661   1.109   .     S
C1625  H1662   1.112   .     S
C1626  H1660   1.113   .     S
C1626  H1659   1.097   .     S
C1626  C1627   1.531   .     S
C1627  H1655   1.107   .     S
C1627  H1762   1.111   .     S
C1627  H1764   1.111   .     S
C1628  N1685   1.437   .     S
C1628  C1842   1.395   1_455 S
C1629  C1632   1.414   .     A
C1629  N1686   1.436   .     S
C1629  C1737   1.405   .     S
C1630  C1632   1.416   .     A
C1630  N1687   1.436   .     S
C1630  C1734   1.395   .     S
C1631  N1688   1.437   .     S
C1631  C1841   1.405   1_455 S
Cu1633 O1689   1.993   .     S
Cu1633 O1695   1.956   .     S
Cu1633 N1681   2.006   .     S
Cu1633 Cu1634  2.669   .     S
Cu1633 O1691   1.992   .     S
Cu1633 O1693   1.959   .     S
Cu1634 O1694   1.959   .     S
Cu1634 N1682   2.006   .     S
Cu1634 O1692   1.992   .     S
Cu1634 O1696   1.956   .     S
Cu1634 O1690   1.993   .     S
H1656  C1839   1.111   1_455 S
H1658  C1839   1.111   1_455 S
H1663  N1683   1.039   .     S
H1664  N1683   1.045   .     S
H1665  N1684   1.043   .     S
H1666  N1684   1.045   .     S
H1667  N1685   1.045   .     S
H1669  N1685   1.046   .     S
H1670  N1686   1.042   .     S
H1671  N1686   1.045   .     S
H1672  N1687   1.046   .     S
H1673  N1687   1.044   .     S
H1674  N1688   1.045   .     S
H1675  N1688   1.044   .     S
C1697  O1795   1.292   .     A
C1697  C1698   1.470   .     S
C1697  O1798   1.292   .     A
C1698  C1737   1.410   .     A
C1698  C1734   1.416   .     A
C1699  N1788   1.366   .     A
C1699  H1763   1.082   .     S
C1700  N1787   1.366   .     A
C1700  H1774   1.082   .     S
C1700  C1065   1.414   1_565 S
C1701  H1782   1.081   .     S
C1701  N1788   1.366   .     A
C1702  N1787   1.366   .     A
C1702  H1783   1.082   .     S
C1702  C1063   1.414   1_565 S
C1703  O1799   1.287   .     A
C1703  O1802   1.292   .     A
C1703  C1709   1.457   .     S
C1704  O1801   1.286   .     A
C1704  O1800   1.290   .     A
C1704  C1707   1.455   .     S
C1705  H1741   1.083   .     S
C1705  C1707   1.390   .     A
C1705  C1716   1.393   .     A
C1706  H1752   1.082   .     S
C1706  C1717   1.408   .     A
C1706  C1709   1.398   .     A
C1707  C1710   1.418   .     A
C1708  C1738   1.474   .     S
C1708  O1797   1.291   .     A
C1708  O1796   1.295   .     A
C1709  C1711   1.403   .     A
C1710  C1712   1.436   .     A
C1710  C1721   1.536   .     S
C1711  C1713   1.408   .     A
C1711  C1724   1.518   .     S
C1712  C1718   1.440   .     A
C1712  C1714   1.427   .     A
C1713  C1720   1.416   .     A
C1713  C1715   1.408   .     A
C1714  C1716   1.411   .     A
C1714  C761    1.398   1_556 S
C1715  C1717   1.402   .     A
C1716  C1730   1.419   .     A
C1717  C1719   1.405   .     A
C1718  C1727   1.515   .     S
C1718  C765    1.420   1_556 S
C1719  N1789   1.434   .     S
C1720  C1731   1.521   .     S
C1721  H1745   1.083   .     S
C1721  C1722   1.540   .     S
C1721  H1744   1.107   .     S
C1722  C1723   1.527   .     S
C1722  H1743   1.109   .     S
C1722  H1742   1.110   .     S
C1723  H1785   1.111   .     S
C1723  H1784   1.111   .     S
C1723  H1150   1.111   1_565 S
C1724  H1753   1.095   .     S
C1724  C1725   1.539   .     S
C1724  H1751   1.108   .     S
C1725  H1750   1.109   .     S
C1725  C1726   1.526   .     S
C1725  H1749   1.112   .     S
C1726  H1747   1.111   .     S
C1726  H1746   1.111   .     S
C1726  H1112   1.111   1_565 S
C1727  H1759   1.106   .     S
C1727  C1728   1.549   .     S
C1727  H1760   1.105   .     S
C1728  H1757   1.108   .     S
C1728  H1758   1.105   .     S
C1729  H1754   1.111   .     S
C1729  H1755   1.107   .     S
C1729  H1756   1.110   .     S
C1729  C1834   1.526   .     S
C1730  N1790   1.436   .     S
C1730  C766    1.414   1_556 S
C1731  C1732   1.537   .     S
C1731  H1767   1.109   .     S
C1731  H1768   1.112   .     S
C1732  H1766   1.113   .     S
C1732  H1765   1.097   .     S
C1732  C1733   1.531   .     S
C1733  H1761   1.107   .     S
C1733  H1868   1.111   .     S
C1733  H1870   1.111   .     S
C1734  N1791   1.437   .     S
C1735  C1738   1.414   .     A
C1735  N1792   1.436   .     S
C1735  C1843   1.405   .     S
C1736  C1738   1.416   .     A
C1736  N1793   1.436   .     S
C1736  C1840   1.395   .     S
C1737  N1794   1.437   .     S
Cu1739 O1795   1.993   .     S
Cu1739 O1801   1.956   .     S
Cu1739 N1787   2.006   .     S
Cu1739 Cu1740  2.669   .     S
Cu1739 O1797   1.992   .     S
Cu1739 O1799   1.959   .     S
Cu1740 O1800   1.959   .     S
Cu1740 N1788   2.006   .     S
Cu1740 O1798   1.992   .     S
Cu1740 O1802   1.956   .     S
Cu1740 O1796   1.993   .     S
H1769  N1789   1.039   .     S
H1770  N1789   1.045   .     S
H1771  N1790   1.043   .     S
H1772  N1790   1.045   .     S
H1773  N1791   1.045   .     S
H1775  N1791   1.046   .     S
H1776  N1792   1.042   .     S
H1777  N1792   1.045   .     S
H1778  N1793   1.046   .     S
H1779  N1793   1.044   .     S
H1780  N1794   1.045   .     S
H1781  N1794   1.044   .     S
C1803  O1901   1.292   .     A
C1803  C1804   1.470   .     S
C1803  O1904   1.292   .     A
C1804  C1843   1.410   .     A
C1804  C1840   1.416   .     A
C1805  N1894   1.366   .     A
C1805  H1869   1.082   .     S
C1806  N1893   1.366   .     A
C1806  H1880   1.082   .     S
C1806  C1171   1.414   1_565 S
C1807  H1888   1.081   .     S
C1807  N1894   1.366   .     A
C1808  N1893   1.366   .     A
C1808  H1889   1.082   .     S
C1808  C1169   1.414   1_565 S
C1809  O1905   1.287   .     A
C1809  O1908   1.292   .     A
C1809  C1815   1.457   .     S
C1810  O1907   1.286   .     A
C1810  O1906   1.290   .     A
C1810  C1813   1.455   .     S
C1811  H1847   1.083   .     S
C1811  C1813   1.390   .     A
C1811  C1822   1.393   .     A
C1812  H1858   1.082   .     S
C1812  C1823   1.408   .     A
C1812  C1815   1.398   .     A
C1813  C1816   1.418   .     A
C1814  C1844   1.474   .     S
C1814  O1903   1.291   .     A
C1814  O1902   1.295   .     A
C1815  C1817   1.403   .     A
C1816  C1818   1.436   .     A
C1816  C1827   1.536   .     S
C1817  C1819   1.408   .     A
C1817  C1830   1.518   .     S
C1818  C1824   1.440   .     A
C1818  C1820   1.427   .     A
C1819  C1826   1.416   .     A
C1819  C1821   1.408   .     A
C1820  C1822   1.411   .     A
C1820  C867    1.398   1_556 S
C1821  C1823   1.402   .     A
C1822  C1836   1.419   .     A
C1823  C1825   1.405   .     A
C1824  C1833   1.515   .     S
C1824  C871    1.420   1_556 S
C1825  N1895   1.434   .     S
C1826  C1837   1.521   .     S
C1827  H1851   1.083   .     S
C1827  C1828   1.540   .     S
C1827  H1850   1.107   .     S
C1828  C1829   1.527   .     S
C1828  H1849   1.109   .     S
C1828  H1848   1.110   .     S
C1829  H1891   1.111   .     S
C1829  H1890   1.111   .     S
C1829  H1256   1.111   1_565 S
C1830  H1859   1.095   .     S
C1830  C1831   1.539   .     S
C1830  H1857   1.108   .     S
C1831  H1856   1.109   .     S
C1831  C1832   1.526   .     S
C1831  H1855   1.112   .     S
C1832  H1853   1.111   .     S
C1832  H1852   1.111   .     S
C1832  H1218   1.111   1_565 S
C1833  H1865   1.106   .     S
C1833  C1834   1.549   .     S
C1833  H1866   1.105   .     S
C1834  H1863   1.108   .     S
C1834  H1864   1.105   .     S
C1835  H1860   1.111   .     S
C1835  H1861   1.107   .     S
C1835  H1862   1.110   .     S
C1835  C1622   1.526   1_655 S
C1836  N1896   1.436   .     S
C1836  C872    1.414   1_556 S
C1837  C1838   1.537   .     S
C1837  H1873   1.109   .     S
C1837  H1874   1.112   .     S
C1838  H1872   1.113   .     S
C1838  H1871   1.097   .     S
C1838  C1839   1.531   .     S
C1839  H1867   1.107   .     S
C1839  H1656   1.111   1_655 S
C1839  H1658   1.111   1_655 S
C1840  N1897   1.437   .     S
C1841  C1844   1.414   .     A
C1841  N1898   1.436   .     S
C1841  C1631   1.405   1_655 S
C1842  C1844   1.416   .     A
C1842  N1899   1.436   .     S
C1842  C1628   1.395   1_655 S
C1843  N1900   1.437   .     S
Cu1845 O1901   1.993   .     S
Cu1845 O1907   1.956   .     S
Cu1845 N1893   2.006   .     S
Cu1845 Cu1846  2.669   .     S
Cu1845 O1903   1.992   .     S
Cu1845 O1905   1.959   .     S
Cu1846 O1906   1.959   .     S
Cu1846 N1894   2.006   .     S
Cu1846 O1904   1.992   .     S
Cu1846 O1908   1.956   .     S
Cu1846 O1902   1.993   .     S
H1875  N1895   1.039   .     S
H1876  N1895   1.045   .     S
H1877  N1896   1.043   .     S
H1878  N1896   1.045   .     S
H1879  N1897   1.045   .     S
H1881  N1897   1.046   .     S
H1882  N1898   1.042   .     S
H1883  N1898   1.045   .     S
H1884  N1899   1.046   .     S
H1885  N1899   1.044   .     S
H1886  N1900   1.045   .     S
H1887  N1900   1.044   .     S
