data_str_m2_o1_o5_pcu_sym.27
_audit_creation_date              2020-01-03
_audit_creation_method            'Materials Studio'
_symmetry_space_group_name_H-M    'P1'
_symmetry_Int_Tables_number       1
_symmetry_cell_setting            triclinic
loop_
_symmetry_equiv_pos_as_xyz
  x,y,z
_cell_length_a                    32.6691
_cell_length_b                    28.7285
_cell_length_c                    27.1843
_cell_angle_alpha                 90.0875
_cell_angle_beta                  93.8650
_cell_angle_gamma                 90.9668
loop_
_atom_site_label
_atom_site_type_symbol
_atom_site_fract_x
_atom_site_fract_y
_atom_site_fract_z
_atom_site_U_iso_or_equiv
_atom_site_adp_type
_atom_site_occupancy
C1     C     0.08788   0.16641   0.17149   0.00000  Uiso   1.00
C2     C     0.02336   0.20842   0.18628   0.00000  Uiso   1.00
C3     C     0.29106   0.16888   0.16608   0.00000  Uiso   1.00
C4     C     0.04356   0.16634   0.17772   0.00000  Uiso   1.00
C5     C     0.14424   0.02468   0.13037   0.00000  Uiso   1.00
C6     C     0.18829   0.30882   0.20347   0.00000  Uiso   1.00
C7     C     0.18961   0.02567   0.20227   0.00000  Uiso   1.00
C8     C     0.14471   0.30784   0.13001   0.00000  Uiso   1.00
C9     C     0.08464   0.04767   0.08546   0.00000  Uiso   1.00
C10    C     0.06918   0.05794   0.03245   0.00000  Uiso   1.00
C11    C     0.20115   0.29071   0.28625   0.00000  Uiso   1.00
C12    C     0.24601   0.16728   0.16533   0.00000  Uiso   1.00
C13    C     0.23346   0.26868   0.32159   0.00000  Uiso   1.00
C14    C     0.25372   0.04544   0.23853   0.00000  Uiso   1.00
C15    C     0.27577   0.08300   0.27035   0.00000  Uiso   1.00
C16    C     0.12910   0.28565   0.04849   0.00000  Uiso   1.00
C17    C     0.09617   0.26054   0.01554   0.00000  Uiso   1.00
C18    C     0.16656   0.16661   0.07359   0.00000  Uiso   1.00
C19    C     0.16680   0.16666   0.25975   0.00000  Uiso   1.00
C20    C     0.16664   0.16646   0.02186   0.00000  Uiso   1.00
C21    C     0.16666   0.16653   0.31147   0.00000  Uiso   1.00
C22    C     0.02019   0.12508   0.17039   0.00000  Uiso   1.00
C23    C     0.31390   0.20961   0.18117   0.00000  Uiso   1.00
C24    C     0.31209   0.12785   0.15646   0.00000  Uiso   1.00
Cl25   Cl    0.03896   0.07009   0.18948   0.00000  Uiso   1.00
Cl26   Cl    0.29103   0.26388   0.19176   0.00000  Uiso   1.00
Cl27   Cl    0.28959   0.08220   0.11947   0.00000  Uiso   1.00
Cl28   Cl    0.05046   0.25929   0.20863   0.00000  Uiso   1.00
Cu29   Cu    0.16667   0.21355   0.16667   0.00000  Uiso   1.00
Cu30   Cu    0.16667   0.11978   0.16667   0.00000  Uiso   1.00
H31    H     0.07336   0.07625   0.10724   0.00000  Uiso   1.00
H32    H     0.23507   0.23078   0.31422   0.00000  Uiso   1.00
H33    H     0.26411   0.04749   0.20079   0.00000  Uiso   1.00
H34    H     0.26318   0.01158   0.25436   0.00000  Uiso   1.00
H35    H     0.26749   0.07937   0.30914   0.00000  Uiso   1.00
H36    H     0.30948   0.07947   0.26919   0.00000  Uiso   1.00
H37    H     0.26696   0.11810   0.25693   0.00000  Uiso   1.00
H38    H     0.15899   0.26955   0.04403   0.00000  Uiso   1.00
H39    H     0.13219   0.32151   0.03484   0.00000  Uiso   1.00
H40    H     0.06599   0.27692   0.01925   0.00000  Uiso   1.00
H41    H     0.10357   0.26249   0.30971   0.00000  Uiso   1.00
H42    H     0.07075   0.01430   0.09739   0.00000  Uiso   1.00
H43    H     0.09382   0.22341   0.02640   0.00000  Uiso   1.00
H44    H     0.07733   0.02994   0.00703   0.00000  Uiso   1.00
H45    H     0.03523   0.06079   0.03021   0.00000  Uiso   1.00
H46    H     0.08265   0.09142   0.02024   0.00000  Uiso   1.00
H47    H     0.17100   0.27384   0.29083   0.00000  Uiso   1.00
H48    H     0.19876   0.32764   0.29715   0.00000  Uiso   1.00
H49    H     0.26406   0.28474   0.31666   0.00000  Uiso   1.00
H50    H     0.22616   0.27415   0.02705   0.00000  Uiso   1.00
N51    N     0.16667   0.28402   0.16667   0.00000  Uiso   1.00
N52    N     0.16667   0.04931   0.16667   0.00000  Uiso   1.00
O53    O     0.10655   0.20625   0.16666   0.00000  Uiso   1.00
O54    O     0.21285   0.28434   0.23755   0.00000  Uiso   1.00
O55    O     0.21093   0.05157   0.23905   0.00000  Uiso   1.00
O56    O     0.11803   0.28258   0.09786   0.00000  Uiso   1.00
O57    O     0.22679   0.12709   0.16667   0.00000  Uiso   1.00
O58    O     0.22679   0.20625   0.16667   0.00000  Uiso   1.00
O59    O     0.10655   0.12709   0.16666   0.00000  Uiso   1.00
O60    O     0.16667   0.20625   0.09613   0.00000  Uiso   1.00
O61    O     0.16667   0.12708   0.23720   0.00000  Uiso   1.00
O62    O     0.16667   0.20625   0.23720   0.00000  Uiso   1.00
O63    O     0.16667   0.12708   0.09613   0.00000  Uiso   1.00
O64    O     0.12800   0.04892   0.08960   0.00000  Uiso   1.00
C65    C     0.42121   0.16641   0.17149   0.00000  Uiso   1.00
C66    C     0.35669   0.20842   0.18628   0.00000  Uiso   1.00
C67    C     0.62440   0.16888   0.16608   0.00000  Uiso   1.00
C68    C     0.37689   0.16634   0.17772   0.00000  Uiso   1.00
C69    C     0.47757   0.02468   0.13037   0.00000  Uiso   1.00
C70    C     0.52162   0.30882   0.20347   0.00000  Uiso   1.00
C71    C     0.52294   0.02567   0.20227   0.00000  Uiso   1.00
C72    C     0.47804   0.30784   0.13001   0.00000  Uiso   1.00
C73    C     0.41797   0.04767   0.08546   0.00000  Uiso   1.00
C74    C     0.40251   0.05794   0.03245   0.00000  Uiso   1.00
C75    C     0.53448   0.29071   0.28625   0.00000  Uiso   1.00
C76    C     0.57934   0.16728   0.16533   0.00000  Uiso   1.00
C77    C     0.56680   0.26868   0.32159   0.00000  Uiso   1.00
C78    C     0.58706   0.04544   0.23853   0.00000  Uiso   1.00
C79    C     0.60910   0.08300   0.27035   0.00000  Uiso   1.00
C80    C     0.46243   0.28565   0.04849   0.00000  Uiso   1.00
C81    C     0.42951   0.26054   0.01554   0.00000  Uiso   1.00
C82    C     0.49989   0.16661   0.07359   0.00000  Uiso   1.00
C83    C     0.50013   0.16666   0.25975   0.00000  Uiso   1.00
C84    C     0.49997   0.16646   0.02186   0.00000  Uiso   1.00
C85    C     0.49999   0.16653   0.31147   0.00000  Uiso   1.00
C86    C     0.35353   0.12508   0.17039   0.00000  Uiso   1.00
C87    C     0.64723   0.20961   0.18117   0.00000  Uiso   1.00
C88    C     0.64542   0.12785   0.15646   0.00000  Uiso   1.00
Cl89   Cl    0.37229   0.07009   0.18948   0.00000  Uiso   1.00
Cl90   Cl    0.62436   0.26388   0.19176   0.00000  Uiso   1.00
Cl91   Cl    0.62292   0.08220   0.11947   0.00000  Uiso   1.00
Cl92   Cl    0.38379   0.25929   0.20863   0.00000  Uiso   1.00
Cu93   Cu    0.50000   0.21355   0.16667   0.00000  Uiso   1.00
Cu94   Cu    0.50000   0.11978   0.16667   0.00000  Uiso   1.00
H95    H     0.40670   0.07625   0.10724   0.00000  Uiso   1.00
H96    H     0.56840   0.23078   0.31422   0.00000  Uiso   1.00
H97    H     0.59745   0.04749   0.20079   0.00000  Uiso   1.00
H98    H     0.59651   0.01158   0.25436   0.00000  Uiso   1.00
H99    H     0.60082   0.07937   0.30914   0.00000  Uiso   1.00
H100   H     0.64281   0.07947   0.26919   0.00000  Uiso   1.00
H101   H     0.60029   0.11810   0.25693   0.00000  Uiso   1.00
H102   H     0.49233   0.26955   0.04403   0.00000  Uiso   1.00
H103   H     0.46553   0.32151   0.03484   0.00000  Uiso   1.00
H104   H     0.39932   0.27692   0.01925   0.00000  Uiso   1.00
H105   H     0.43691   0.26249   0.30971   0.00000  Uiso   1.00
H106   H     0.40409   0.01430   0.09739   0.00000  Uiso   1.00
H107   H     0.42716   0.22341   0.02640   0.00000  Uiso   1.00
H108   H     0.41067   0.02994   0.00703   0.00000  Uiso   1.00
H109   H     0.36857   0.06079   0.03021   0.00000  Uiso   1.00
H110   H     0.41598   0.09142   0.02024   0.00000  Uiso   1.00
H111   H     0.50433   0.27384   0.29083   0.00000  Uiso   1.00
H112   H     0.53210   0.32764   0.29715   0.00000  Uiso   1.00
H113   H     0.59739   0.28474   0.31666   0.00000  Uiso   1.00
H114   H     0.55950   0.27415   0.02705   0.00000  Uiso   1.00
N115   N     0.50000   0.28402   0.16667   0.00000  Uiso   1.00
N116   N     0.50000   0.04931   0.16667   0.00000  Uiso   1.00
O117   O     0.43988   0.20625   0.16666   0.00000  Uiso   1.00
O118   O     0.54618   0.28434   0.23755   0.00000  Uiso   1.00
O119   O     0.54427   0.05157   0.23905   0.00000  Uiso   1.00
O120   O     0.45137   0.28258   0.09786   0.00000  Uiso   1.00
O121   O     0.56012   0.12709   0.16667   0.00000  Uiso   1.00
O122   O     0.56012   0.20625   0.16667   0.00000  Uiso   1.00
O123   O     0.43988   0.12709   0.16666   0.00000  Uiso   1.00
O124   O     0.50000   0.20625   0.09613   0.00000  Uiso   1.00
O125   O     0.50000   0.12708   0.23720   0.00000  Uiso   1.00
O126   O     0.50000   0.20625   0.23720   0.00000  Uiso   1.00
O127   O     0.50000   0.12708   0.09613   0.00000  Uiso   1.00
O128   O     0.46134   0.04892   0.08960   0.00000  Uiso   1.00
C129   C     0.75454   0.16641   0.17149   0.00000  Uiso   1.00
C130   C     0.69003   0.20842   0.18628   0.00000  Uiso   1.00
C131   C     0.95773   0.16888   0.16608   0.00000  Uiso   1.00
C132   C     0.71022   0.16634   0.17772   0.00000  Uiso   1.00
C133   C     0.81091   0.02468   0.13037   0.00000  Uiso   1.00
C134   C     0.85495   0.30882   0.20347   0.00000  Uiso   1.00
C135   C     0.85627   0.02567   0.20227   0.00000  Uiso   1.00
C136   C     0.81137   0.30784   0.13001   0.00000  Uiso   1.00
C137   C     0.75130   0.04767   0.08546   0.00000  Uiso   1.00
C138   C     0.73585   0.05794   0.03245   0.00000  Uiso   1.00
C139   C     0.86781   0.29071   0.28625   0.00000  Uiso   1.00
C140   C     0.91268   0.16728   0.16533   0.00000  Uiso   1.00
C141   C     0.90013   0.26868   0.32159   0.00000  Uiso   1.00
C142   C     0.92039   0.04544   0.23853   0.00000  Uiso   1.00
C143   C     0.94244   0.08300   0.27035   0.00000  Uiso   1.00
C144   C     0.79577   0.28565   0.04849   0.00000  Uiso   1.00
C145   C     0.76284   0.26054   0.01554   0.00000  Uiso   1.00
C146   C     0.83322   0.16661   0.07359   0.00000  Uiso   1.00
C147   C     0.83347   0.16666   0.25975   0.00000  Uiso   1.00
C148   C     0.83331   0.16646   0.02186   0.00000  Uiso   1.00
C149   C     0.83333   0.16653   0.31147   0.00000  Uiso   1.00
C150   C     0.68686   0.12508   0.17039   0.00000  Uiso   1.00
C151   C     0.98057   0.20961   0.18117   0.00000  Uiso   1.00
C152   C     0.97876   0.12785   0.15646   0.00000  Uiso   1.00
Cl153  Cl    0.70563   0.07009   0.18948   0.00000  Uiso   1.00
Cl154  Cl    0.95769   0.26388   0.19176   0.00000  Uiso   1.00
Cl155  Cl    0.95625   0.08220   0.11947   0.00000  Uiso   1.00
Cl156  Cl    0.71712   0.25929   0.20863   0.00000  Uiso   1.00
Cu157  Cu    0.83333   0.21355   0.16667   0.00000  Uiso   1.00
Cu158  Cu    0.83333   0.11978   0.16667   0.00000  Uiso   1.00
H159   H     0.74003   0.07625   0.10724   0.00000  Uiso   1.00
H160   H     0.90173   0.23078   0.31422   0.00000  Uiso   1.00
H161   H     0.93078   0.04749   0.20079   0.00000  Uiso   1.00
H162   H     0.92984   0.01158   0.25436   0.00000  Uiso   1.00
H163   H     0.93416   0.07937   0.30914   0.00000  Uiso   1.00
H164   H     0.97615   0.07947   0.26919   0.00000  Uiso   1.00
H165   H     0.93362   0.11810   0.25693   0.00000  Uiso   1.00
H166   H     0.82566   0.26955   0.04403   0.00000  Uiso   1.00
H167   H     0.79886   0.32151   0.03484   0.00000  Uiso   1.00
H168   H     0.73265   0.27692   0.01925   0.00000  Uiso   1.00
H169   H     0.77024   0.26249   0.30971   0.00000  Uiso   1.00
H170   H     0.73742   0.01430   0.09739   0.00000  Uiso   1.00
H171   H     0.76049   0.22341   0.02640   0.00000  Uiso   1.00
H172   H     0.74400   0.02994   0.00703   0.00000  Uiso   1.00
H173   H     0.70190   0.06079   0.03021   0.00000  Uiso   1.00
H174   H     0.74932   0.09142   0.02024   0.00000  Uiso   1.00
H175   H     0.83766   0.27384   0.29083   0.00000  Uiso   1.00
H176   H     0.86543   0.32764   0.29715   0.00000  Uiso   1.00
H177   H     0.93072   0.28474   0.31666   0.00000  Uiso   1.00
H178   H     0.89283   0.27415   0.02705   0.00000  Uiso   1.00
N179   N     0.83333   0.28402   0.16667   0.00000  Uiso   1.00
N180   N     0.83333   0.04931   0.16667   0.00000  Uiso   1.00
O181   O     0.77321   0.20625   0.16666   0.00000  Uiso   1.00
O182   O     0.87952   0.28434   0.23755   0.00000  Uiso   1.00
O183   O     0.87760   0.05157   0.23905   0.00000  Uiso   1.00
O184   O     0.78470   0.28258   0.09786   0.00000  Uiso   1.00
O185   O     0.89345   0.12709   0.16667   0.00000  Uiso   1.00
O186   O     0.89345   0.20625   0.16667   0.00000  Uiso   1.00
O187   O     0.77321   0.12709   0.16666   0.00000  Uiso   1.00
O188   O     0.83333   0.20625   0.09613   0.00000  Uiso   1.00
O189   O     0.83333   0.12708   0.23720   0.00000  Uiso   1.00
O190   O     0.83333   0.20625   0.23720   0.00000  Uiso   1.00
O191   O     0.83333   0.12708   0.09613   0.00000  Uiso   1.00
O192   O     0.79467   0.04892   0.08960   0.00000  Uiso   1.00
C193   C     0.08788   0.49974   0.17149   0.00000  Uiso   1.00
C194   C     0.02336   0.54176   0.18628   0.00000  Uiso   1.00
C195   C     0.29106   0.50221   0.16608   0.00000  Uiso   1.00
C196   C     0.04356   0.49967   0.17772   0.00000  Uiso   1.00
C197   C     0.14424   0.35801   0.13037   0.00000  Uiso   1.00
C198   C     0.18829   0.64216   0.20347   0.00000  Uiso   1.00
C199   C     0.18961   0.35900   0.20227   0.00000  Uiso   1.00
C200   C     0.14471   0.64117   0.13001   0.00000  Uiso   1.00
C201   C     0.08464   0.38100   0.08546   0.00000  Uiso   1.00
C202   C     0.06918   0.39128   0.03245   0.00000  Uiso   1.00
C203   C     0.20115   0.62405   0.28625   0.00000  Uiso   1.00
C204   C     0.24601   0.50062   0.16533   0.00000  Uiso   1.00
C205   C     0.23346   0.60201   0.32159   0.00000  Uiso   1.00
C206   C     0.25372   0.37878   0.23853   0.00000  Uiso   1.00
C207   C     0.27577   0.41633   0.27035   0.00000  Uiso   1.00
C208   C     0.12910   0.61898   0.04849   0.00000  Uiso   1.00
C209   C     0.09617   0.59387   0.01554   0.00000  Uiso   1.00
C210   C     0.16656   0.49994   0.07359   0.00000  Uiso   1.00
C211   C     0.16680   0.49999   0.25975   0.00000  Uiso   1.00
C212   C     0.16664   0.49979   0.02186   0.00000  Uiso   1.00
C213   C     0.16666   0.49986   0.31147   0.00000  Uiso   1.00
C214   C     0.02019   0.45842   0.17039   0.00000  Uiso   1.00
C215   C     0.31390   0.54294   0.18117   0.00000  Uiso   1.00
C216   C     0.31209   0.46119   0.15646   0.00000  Uiso   1.00
Cl217  Cl    0.03896   0.40343   0.18948   0.00000  Uiso   1.00
Cl218  Cl    0.29103   0.59721   0.19176   0.00000  Uiso   1.00
Cl219  Cl    0.28959   0.41554   0.11947   0.00000  Uiso   1.00
Cl220  Cl    0.05046   0.59263   0.20863   0.00000  Uiso   1.00
Cu221  Cu    0.16667   0.54689   0.16667   0.00000  Uiso   1.00
Cu222  Cu    0.16667   0.45311   0.16667   0.00000  Uiso   1.00
H223   H     0.07336   0.40958   0.10724   0.00000  Uiso   1.00
H224   H     0.23507   0.56411   0.31422   0.00000  Uiso   1.00
H225   H     0.26411   0.38082   0.20079   0.00000  Uiso   1.00
H226   H     0.26318   0.34491   0.25436   0.00000  Uiso   1.00
H227   H     0.26749   0.41270   0.30914   0.00000  Uiso   1.00
H228   H     0.30948   0.41281   0.26919   0.00000  Uiso   1.00
H229   H     0.26696   0.45143   0.25693   0.00000  Uiso   1.00
H230   H     0.15899   0.60288   0.04403   0.00000  Uiso   1.00
H231   H     0.13219   0.65485   0.03484   0.00000  Uiso   1.00
H232   H     0.06599   0.61026   0.01925   0.00000  Uiso   1.00
H233   H     0.10357   0.59582   0.30971   0.00000  Uiso   1.00
H234   H     0.07075   0.34764   0.09739   0.00000  Uiso   1.00
H235   H     0.09382   0.55674   0.02640   0.00000  Uiso   1.00
H236   H     0.07733   0.36328   0.00703   0.00000  Uiso   1.00
H237   H     0.03523   0.39412   0.03021   0.00000  Uiso   1.00
H238   H     0.08265   0.42475   0.02024   0.00000  Uiso   1.00
H239   H     0.17100   0.60717   0.29083   0.00000  Uiso   1.00
H240   H     0.19876   0.66098   0.29715   0.00000  Uiso   1.00
H241   H     0.26406   0.61808   0.31666   0.00000  Uiso   1.00
H242   H     0.22616   0.60748   0.02705   0.00000  Uiso   1.00
N243   N     0.16667   0.61736   0.16667   0.00000  Uiso   1.00
N244   N     0.16667   0.38264   0.16667   0.00000  Uiso   1.00
O245   O     0.10655   0.53958   0.16666   0.00000  Uiso   1.00
O246   O     0.21285   0.61767   0.23755   0.00000  Uiso   1.00
O247   O     0.21093   0.38490   0.23905   0.00000  Uiso   1.00
O248   O     0.11803   0.61591   0.09786   0.00000  Uiso   1.00
O249   O     0.22679   0.46042   0.16667   0.00000  Uiso   1.00
O250   O     0.22679   0.53958   0.16667   0.00000  Uiso   1.00
O251   O     0.10655   0.46042   0.16666   0.00000  Uiso   1.00
O252   O     0.16667   0.53959   0.09613   0.00000  Uiso   1.00
O253   O     0.16667   0.46041   0.23720   0.00000  Uiso   1.00
O254   O     0.16667   0.53959   0.23720   0.00000  Uiso   1.00
O255   O     0.16667   0.46041   0.09613   0.00000  Uiso   1.00
O256   O     0.12800   0.38225   0.08960   0.00000  Uiso   1.00
C257   C     0.42121   0.49974   0.17149   0.00000  Uiso   1.00
C258   C     0.35669   0.54176   0.18628   0.00000  Uiso   1.00
C259   C     0.62440   0.50221   0.16608   0.00000  Uiso   1.00
C260   C     0.37689   0.49967   0.17772   0.00000  Uiso   1.00
C261   C     0.47757   0.35801   0.13037   0.00000  Uiso   1.00
C262   C     0.52162   0.64216   0.20347   0.00000  Uiso   1.00
C263   C     0.52294   0.35900   0.20227   0.00000  Uiso   1.00
C264   C     0.47804   0.64117   0.13001   0.00000  Uiso   1.00
C265   C     0.41797   0.38100   0.08546   0.00000  Uiso   1.00
C266   C     0.40251   0.39128   0.03245   0.00000  Uiso   1.00
C267   C     0.53448   0.62405   0.28625   0.00000  Uiso   1.00
C268   C     0.57934   0.50062   0.16533   0.00000  Uiso   1.00
C269   C     0.56680   0.60201   0.32159   0.00000  Uiso   1.00
C270   C     0.58706   0.37878   0.23853   0.00000  Uiso   1.00
C271   C     0.60910   0.41633   0.27035   0.00000  Uiso   1.00
C272   C     0.46243   0.61898   0.04849   0.00000  Uiso   1.00
C273   C     0.42951   0.59387   0.01554   0.00000  Uiso   1.00
C274   C     0.49989   0.49994   0.07359   0.00000  Uiso   1.00
C275   C     0.50013   0.49999   0.25975   0.00000  Uiso   1.00
C276   C     0.49997   0.49979   0.02186   0.00000  Uiso   1.00
C277   C     0.49999   0.49986   0.31147   0.00000  Uiso   1.00
C278   C     0.35353   0.45842   0.17039   0.00000  Uiso   1.00
C279   C     0.64723   0.54294   0.18117   0.00000  Uiso   1.00
C280   C     0.64542   0.46119   0.15646   0.00000  Uiso   1.00
Cl281  Cl    0.37229   0.40343   0.18948   0.00000  Uiso   1.00
Cl282  Cl    0.62436   0.59721   0.19176   0.00000  Uiso   1.00
Cl283  Cl    0.62292   0.41554   0.11947   0.00000  Uiso   1.00
Cl284  Cl    0.38379   0.59263   0.20863   0.00000  Uiso   1.00
Cu285  Cu    0.50000   0.54689   0.16667   0.00000  Uiso   1.00
Cu286  Cu    0.50000   0.45311   0.16667   0.00000  Uiso   1.00
H287   H     0.40670   0.40958   0.10724   0.00000  Uiso   1.00
H288   H     0.56840   0.56411   0.31422   0.00000  Uiso   1.00
H289   H     0.59745   0.38082   0.20079   0.00000  Uiso   1.00
H290   H     0.59651   0.34491   0.25436   0.00000  Uiso   1.00
H291   H     0.60082   0.41270   0.30914   0.00000  Uiso   1.00
H292   H     0.64281   0.41281   0.26919   0.00000  Uiso   1.00
H293   H     0.60029   0.45143   0.25693   0.00000  Uiso   1.00
H294   H     0.49233   0.60288   0.04403   0.00000  Uiso   1.00
H295   H     0.46553   0.65485   0.03484   0.00000  Uiso   1.00
H296   H     0.39932   0.61026   0.01925   0.00000  Uiso   1.00
H297   H     0.43691   0.59582   0.30971   0.00000  Uiso   1.00
H298   H     0.40409   0.34764   0.09739   0.00000  Uiso   1.00
H299   H     0.42716   0.55674   0.02640   0.00000  Uiso   1.00
H300   H     0.41067   0.36328   0.00703   0.00000  Uiso   1.00
H301   H     0.36857   0.39412   0.03021   0.00000  Uiso   1.00
H302   H     0.41598   0.42475   0.02024   0.00000  Uiso   1.00
H303   H     0.50433   0.60717   0.29083   0.00000  Uiso   1.00
H304   H     0.53210   0.66098   0.29715   0.00000  Uiso   1.00
H305   H     0.59739   0.61808   0.31666   0.00000  Uiso   1.00
H306   H     0.55950   0.60748   0.02705   0.00000  Uiso   1.00
N307   N     0.50000   0.61736   0.16667   0.00000  Uiso   1.00
N308   N     0.50000   0.38264   0.16667   0.00000  Uiso   1.00
O309   O     0.43988   0.53958   0.16666   0.00000  Uiso   1.00
O310   O     0.54618   0.61767   0.23755   0.00000  Uiso   1.00
O311   O     0.54427   0.38490   0.23905   0.00000  Uiso   1.00
O312   O     0.45137   0.61591   0.09786   0.00000  Uiso   1.00
O313   O     0.56012   0.46042   0.16667   0.00000  Uiso   1.00
O314   O     0.56012   0.53958   0.16667   0.00000  Uiso   1.00
O315   O     0.43988   0.46042   0.16666   0.00000  Uiso   1.00
O316   O     0.50000   0.53959   0.09613   0.00000  Uiso   1.00
O317   O     0.50000   0.46041   0.23720   0.00000  Uiso   1.00
O318   O     0.50000   0.53959   0.23720   0.00000  Uiso   1.00
O319   O     0.50000   0.46041   0.09613   0.00000  Uiso   1.00
O320   O     0.46134   0.38225   0.08960   0.00000  Uiso   1.00
C321   C     0.75454   0.49974   0.17149   0.00000  Uiso   1.00
C322   C     0.69003   0.54176   0.18628   0.00000  Uiso   1.00
C323   C     0.95773   0.50221   0.16608   0.00000  Uiso   1.00
C324   C     0.71022   0.49967   0.17772   0.00000  Uiso   1.00
C325   C     0.81091   0.35801   0.13037   0.00000  Uiso   1.00
C326   C     0.85495   0.64216   0.20347   0.00000  Uiso   1.00
C327   C     0.85627   0.35900   0.20227   0.00000  Uiso   1.00
C328   C     0.81137   0.64117   0.13001   0.00000  Uiso   1.00
C329   C     0.75130   0.38100   0.08546   0.00000  Uiso   1.00
C330   C     0.73585   0.39128   0.03245   0.00000  Uiso   1.00
C331   C     0.86781   0.62405   0.28625   0.00000  Uiso   1.00
C332   C     0.91268   0.50062   0.16533   0.00000  Uiso   1.00
C333   C     0.90013   0.60201   0.32159   0.00000  Uiso   1.00
C334   C     0.92039   0.37878   0.23853   0.00000  Uiso   1.00
C335   C     0.94244   0.41633   0.27035   0.00000  Uiso   1.00
C336   C     0.79577   0.61898   0.04849   0.00000  Uiso   1.00
C337   C     0.76284   0.59387   0.01554   0.00000  Uiso   1.00
C338   C     0.83322   0.49994   0.07359   0.00000  Uiso   1.00
C339   C     0.83347   0.49999   0.25975   0.00000  Uiso   1.00
C340   C     0.83331   0.49979   0.02186   0.00000  Uiso   1.00
C341   C     0.83333   0.49986   0.31147   0.00000  Uiso   1.00
C342   C     0.68686   0.45842   0.17039   0.00000  Uiso   1.00
C343   C     0.98057   0.54294   0.18117   0.00000  Uiso   1.00
C344   C     0.97876   0.46119   0.15646   0.00000  Uiso   1.00
Cl345  Cl    0.70563   0.40343   0.18948   0.00000  Uiso   1.00
Cl346  Cl    0.95769   0.59721   0.19176   0.00000  Uiso   1.00
Cl347  Cl    0.95625   0.41554   0.11947   0.00000  Uiso   1.00
Cl348  Cl    0.71712   0.59263   0.20863   0.00000  Uiso   1.00
Cu349  Cu    0.83333   0.54689   0.16667   0.00000  Uiso   1.00
Cu350  Cu    0.83333   0.45311   0.16667   0.00000  Uiso   1.00
H351   H     0.74003   0.40958   0.10724   0.00000  Uiso   1.00
H352   H     0.90173   0.56411   0.31422   0.00000  Uiso   1.00
H353   H     0.93078   0.38082   0.20079   0.00000  Uiso   1.00
H354   H     0.92984   0.34491   0.25436   0.00000  Uiso   1.00
H355   H     0.93416   0.41270   0.30914   0.00000  Uiso   1.00
H356   H     0.97615   0.41281   0.26919   0.00000  Uiso   1.00
H357   H     0.93362   0.45143   0.25693   0.00000  Uiso   1.00
H358   H     0.82566   0.60288   0.04403   0.00000  Uiso   1.00
H359   H     0.79886   0.65485   0.03484   0.00000  Uiso   1.00
H360   H     0.73265   0.61026   0.01925   0.00000  Uiso   1.00
H361   H     0.77024   0.59582   0.30971   0.00000  Uiso   1.00
H362   H     0.73742   0.34764   0.09739   0.00000  Uiso   1.00
H363   H     0.76049   0.55674   0.02640   0.00000  Uiso   1.00
H364   H     0.74400   0.36328   0.00703   0.00000  Uiso   1.00
H365   H     0.70190   0.39412   0.03021   0.00000  Uiso   1.00
H366   H     0.74932   0.42475   0.02024   0.00000  Uiso   1.00
H367   H     0.83766   0.60717   0.29083   0.00000  Uiso   1.00
H368   H     0.86543   0.66098   0.29715   0.00000  Uiso   1.00
H369   H     0.93072   0.61808   0.31666   0.00000  Uiso   1.00
H370   H     0.89283   0.60748   0.02705   0.00000  Uiso   1.00
N371   N     0.83333   0.61736   0.16667   0.00000  Uiso   1.00
N372   N     0.83333   0.38264   0.16667   0.00000  Uiso   1.00
O373   O     0.77321   0.53958   0.16666   0.00000  Uiso   1.00
O374   O     0.87952   0.61767   0.23755   0.00000  Uiso   1.00
O375   O     0.87760   0.38490   0.23905   0.00000  Uiso   1.00
O376   O     0.78470   0.61591   0.09786   0.00000  Uiso   1.00
O377   O     0.89345   0.46042   0.16667   0.00000  Uiso   1.00
O378   O     0.89345   0.53958   0.16667   0.00000  Uiso   1.00
O379   O     0.77321   0.46042   0.16666   0.00000  Uiso   1.00
O380   O     0.83333   0.53959   0.09613   0.00000  Uiso   1.00
O381   O     0.83333   0.46041   0.23720   0.00000  Uiso   1.00
O382   O     0.83333   0.53959   0.23720   0.00000  Uiso   1.00
O383   O     0.83333   0.46041   0.09613   0.00000  Uiso   1.00
O384   O     0.79467   0.38225   0.08960   0.00000  Uiso   1.00
C385   C     0.08788   0.83307   0.17149   0.00000  Uiso   1.00
C386   C     0.02336   0.87509   0.18628   0.00000  Uiso   1.00
C387   C     0.29106   0.83555   0.16608   0.00000  Uiso   1.00
C388   C     0.04356   0.83301   0.17772   0.00000  Uiso   1.00
C389   C     0.14424   0.69134   0.13037   0.00000  Uiso   1.00
C390   C     0.18829   0.97549   0.20347   0.00000  Uiso   1.00
C391   C     0.18961   0.69233   0.20227   0.00000  Uiso   1.00
C392   C     0.14471   0.97450   0.13001   0.00000  Uiso   1.00
C393   C     0.08464   0.71434   0.08546   0.00000  Uiso   1.00
C394   C     0.06918   0.72461   0.03245   0.00000  Uiso   1.00
C395   C     0.20115   0.95738   0.28625   0.00000  Uiso   1.00
C396   C     0.24601   0.83395   0.16533   0.00000  Uiso   1.00
C397   C     0.23346   0.93534   0.32159   0.00000  Uiso   1.00
C398   C     0.25372   0.71211   0.23853   0.00000  Uiso   1.00
C399   C     0.27577   0.74966   0.27035   0.00000  Uiso   1.00
C400   C     0.12910   0.95232   0.04849   0.00000  Uiso   1.00
C401   C     0.09617   0.92720   0.01554   0.00000  Uiso   1.00
C402   C     0.16656   0.83327   0.07359   0.00000  Uiso   1.00
C403   C     0.16680   0.83333   0.25975   0.00000  Uiso   1.00
C404   C     0.16664   0.83313   0.02186   0.00000  Uiso   1.00
C405   C     0.16666   0.83319   0.31147   0.00000  Uiso   1.00
C406   C     0.02019   0.79175   0.17039   0.00000  Uiso   1.00
C407   C     0.31390   0.87627   0.18117   0.00000  Uiso   1.00
C408   C     0.31209   0.79452   0.15646   0.00000  Uiso   1.00
Cl409  Cl    0.03896   0.73676   0.18948   0.00000  Uiso   1.00
Cl410  Cl    0.29103   0.93054   0.19176   0.00000  Uiso   1.00
Cl411  Cl    0.28959   0.74887   0.11947   0.00000  Uiso   1.00
Cl412  Cl    0.05046   0.92596   0.20863   0.00000  Uiso   1.00
Cu413  Cu    0.16667   0.88022   0.16667   0.00000  Uiso   1.00
Cu414  Cu    0.16667   0.78645   0.16667   0.00000  Uiso   1.00
H415   H     0.07336   0.74291   0.10724   0.00000  Uiso   1.00
H416   H     0.23507   0.89744   0.31422   0.00000  Uiso   1.00
H417   H     0.26411   0.71416   0.20079   0.00000  Uiso   1.00
H418   H     0.26318   0.67825   0.25436   0.00000  Uiso   1.00
H419   H     0.26749   0.74604   0.30914   0.00000  Uiso   1.00
H420   H     0.30948   0.74614   0.26919   0.00000  Uiso   1.00
H421   H     0.26696   0.78477   0.25693   0.00000  Uiso   1.00
H422   H     0.15899   0.93622   0.04403   0.00000  Uiso   1.00
H423   H     0.13219   0.98818   0.03484   0.00000  Uiso   1.00
H424   H     0.06599   0.94359   0.01925   0.00000  Uiso   1.00
H425   H     0.10357   0.92915   0.30971   0.00000  Uiso   1.00
H426   H     0.07075   0.68097   0.09739   0.00000  Uiso   1.00
H427   H     0.09382   0.89008   0.02640   0.00000  Uiso   1.00
H428   H     0.07733   0.69661   0.00703   0.00000  Uiso   1.00
H429   H     0.03523   0.72746   0.03021   0.00000  Uiso   1.00
H430   H     0.08265   0.75808   0.02024   0.00000  Uiso   1.00
H431   H     0.17100   0.94050   0.29083   0.00000  Uiso   1.00
H432   H     0.19876   0.99431   0.29715   0.00000  Uiso   1.00
H433   H     0.26406   0.95141   0.31666   0.00000  Uiso   1.00
H434   H     0.22616   0.94081   0.02705   0.00000  Uiso   1.00
N435   N     0.16667   0.95069   0.16667   0.00000  Uiso   1.00
N436   N     0.16667   0.71598   0.16667   0.00000  Uiso   1.00
O437   O     0.10655   0.87291   0.16666   0.00000  Uiso   1.00
O438   O     0.21285   0.95100   0.23755   0.00000  Uiso   1.00
O439   O     0.21093   0.71824   0.23905   0.00000  Uiso   1.00
O440   O     0.11803   0.94925   0.09786   0.00000  Uiso   1.00
O441   O     0.22679   0.79375   0.16667   0.00000  Uiso   1.00
O442   O     0.22679   0.87291   0.16667   0.00000  Uiso   1.00
O443   O     0.10655   0.79375   0.16666   0.00000  Uiso   1.00
O444   O     0.16667   0.87292   0.09613   0.00000  Uiso   1.00
O445   O     0.16667   0.79375   0.23720   0.00000  Uiso   1.00
O446   O     0.16667   0.87292   0.23720   0.00000  Uiso   1.00
O447   O     0.16667   0.79375   0.09613   0.00000  Uiso   1.00
O448   O     0.12800   0.71558   0.08960   0.00000  Uiso   1.00
C449   C     0.42121   0.83307   0.17149   0.00000  Uiso   1.00
C450   C     0.35669   0.87509   0.18628   0.00000  Uiso   1.00
C451   C     0.62440   0.83555   0.16608   0.00000  Uiso   1.00
C452   C     0.37689   0.83301   0.17772   0.00000  Uiso   1.00
C453   C     0.47757   0.69134   0.13037   0.00000  Uiso   1.00
C454   C     0.52162   0.97549   0.20347   0.00000  Uiso   1.00
C455   C     0.52294   0.69233   0.20227   0.00000  Uiso   1.00
C456   C     0.47804   0.97450   0.13001   0.00000  Uiso   1.00
C457   C     0.41797   0.71434   0.08546   0.00000  Uiso   1.00
C458   C     0.40251   0.72461   0.03245   0.00000  Uiso   1.00
C459   C     0.53448   0.95738   0.28625   0.00000  Uiso   1.00
C460   C     0.57934   0.83395   0.16533   0.00000  Uiso   1.00
C461   C     0.56680   0.93534   0.32159   0.00000  Uiso   1.00
C462   C     0.58706   0.71211   0.23853   0.00000  Uiso   1.00
C463   C     0.60910   0.74966   0.27035   0.00000  Uiso   1.00
C464   C     0.46243   0.95232   0.04849   0.00000  Uiso   1.00
C465   C     0.42951   0.92720   0.01554   0.00000  Uiso   1.00
C466   C     0.49989   0.83327   0.07359   0.00000  Uiso   1.00
C467   C     0.50013   0.83333   0.25975   0.00000  Uiso   1.00
C468   C     0.49997   0.83313   0.02186   0.00000  Uiso   1.00
C469   C     0.49999   0.83319   0.31147   0.00000  Uiso   1.00
C470   C     0.35353   0.79175   0.17039   0.00000  Uiso   1.00
C471   C     0.64723   0.87627   0.18117   0.00000  Uiso   1.00
C472   C     0.64542   0.79452   0.15646   0.00000  Uiso   1.00
Cl473  Cl    0.37229   0.73676   0.18948   0.00000  Uiso   1.00
Cl474  Cl    0.62436   0.93054   0.19176   0.00000  Uiso   1.00
Cl475  Cl    0.62292   0.74887   0.11947   0.00000  Uiso   1.00
Cl476  Cl    0.38379   0.92596   0.20863   0.00000  Uiso   1.00
Cu477  Cu    0.50000   0.88022   0.16667   0.00000  Uiso   1.00
Cu478  Cu    0.50000   0.78645   0.16667   0.00000  Uiso   1.00
H479   H     0.40670   0.74291   0.10724   0.00000  Uiso   1.00
H480   H     0.56840   0.89744   0.31422   0.00000  Uiso   1.00
H481   H     0.59745   0.71416   0.20079   0.00000  Uiso   1.00
H482   H     0.59651   0.67825   0.25436   0.00000  Uiso   1.00
H483   H     0.60082   0.74604   0.30914   0.00000  Uiso   1.00
H484   H     0.64281   0.74614   0.26919   0.00000  Uiso   1.00
H485   H     0.60029   0.78477   0.25693   0.00000  Uiso   1.00
H486   H     0.49233   0.93622   0.04403   0.00000  Uiso   1.00
H487   H     0.46553   0.98818   0.03484   0.00000  Uiso   1.00
H488   H     0.39932   0.94359   0.01925   0.00000  Uiso   1.00
H489   H     0.43691   0.92915   0.30971   0.00000  Uiso   1.00
H490   H     0.40409   0.68097   0.09739   0.00000  Uiso   1.00
H491   H     0.42716   0.89008   0.02640   0.00000  Uiso   1.00
H492   H     0.41067   0.69661   0.00703   0.00000  Uiso   1.00
H493   H     0.36857   0.72746   0.03021   0.00000  Uiso   1.00
H494   H     0.41598   0.75808   0.02024   0.00000  Uiso   1.00
H495   H     0.50433   0.94050   0.29083   0.00000  Uiso   1.00
H496   H     0.53210   0.99431   0.29715   0.00000  Uiso   1.00
H497   H     0.59739   0.95141   0.31666   0.00000  Uiso   1.00
H498   H     0.55950   0.94081   0.02705   0.00000  Uiso   1.00
N499   N     0.50000   0.95069   0.16667   0.00000  Uiso   1.00
N500   N     0.50000   0.71598   0.16667   0.00000  Uiso   1.00
O501   O     0.43988   0.87291   0.16666   0.00000  Uiso   1.00
O502   O     0.54618   0.95100   0.23755   0.00000  Uiso   1.00
O503   O     0.54427   0.71824   0.23905   0.00000  Uiso   1.00
O504   O     0.45137   0.94925   0.09786   0.00000  Uiso   1.00
O505   O     0.56012   0.79375   0.16667   0.00000  Uiso   1.00
O506   O     0.56012   0.87291   0.16667   0.00000  Uiso   1.00
O507   O     0.43988   0.79375   0.16666   0.00000  Uiso   1.00
O508   O     0.50000   0.87292   0.09613   0.00000  Uiso   1.00
O509   O     0.50000   0.79375   0.23720   0.00000  Uiso   1.00
O510   O     0.50000   0.87292   0.23720   0.00000  Uiso   1.00
O511   O     0.50000   0.79375   0.09613   0.00000  Uiso   1.00
O512   O     0.46134   0.71558   0.08960   0.00000  Uiso   1.00
C513   C     0.75454   0.83307   0.17149   0.00000  Uiso   1.00
C514   C     0.69003   0.87509   0.18628   0.00000  Uiso   1.00
C515   C     0.95773   0.83555   0.16608   0.00000  Uiso   1.00
C516   C     0.71022   0.83301   0.17772   0.00000  Uiso   1.00
C517   C     0.81091   0.69134   0.13037   0.00000  Uiso   1.00
C518   C     0.85495   0.97549   0.20347   0.00000  Uiso   1.00
C519   C     0.85627   0.69233   0.20227   0.00000  Uiso   1.00
C520   C     0.81137   0.97450   0.13001   0.00000  Uiso   1.00
C521   C     0.75130   0.71434   0.08546   0.00000  Uiso   1.00
C522   C     0.73585   0.72461   0.03245   0.00000  Uiso   1.00
C523   C     0.86781   0.95738   0.28625   0.00000  Uiso   1.00
C524   C     0.91268   0.83395   0.16533   0.00000  Uiso   1.00
C525   C     0.90013   0.93534   0.32159   0.00000  Uiso   1.00
C526   C     0.92039   0.71211   0.23853   0.00000  Uiso   1.00
C527   C     0.94244   0.74966   0.27035   0.00000  Uiso   1.00
C528   C     0.79577   0.95232   0.04849   0.00000  Uiso   1.00
C529   C     0.76284   0.92720   0.01554   0.00000  Uiso   1.00
C530   C     0.83322   0.83327   0.07359   0.00000  Uiso   1.00
C531   C     0.83347   0.83333   0.25975   0.00000  Uiso   1.00
C532   C     0.83331   0.83313   0.02186   0.00000  Uiso   1.00
C533   C     0.83333   0.83319   0.31147   0.00000  Uiso   1.00
C534   C     0.68686   0.79175   0.17039   0.00000  Uiso   1.00
C535   C     0.98057   0.87627   0.18117   0.00000  Uiso   1.00
C536   C     0.97876   0.79452   0.15646   0.00000  Uiso   1.00
Cl537  Cl    0.70563   0.73676   0.18948   0.00000  Uiso   1.00
Cl538  Cl    0.95769   0.93054   0.19176   0.00000  Uiso   1.00
Cl539  Cl    0.95625   0.74887   0.11947   0.00000  Uiso   1.00
Cl540  Cl    0.71712   0.92596   0.20863   0.00000  Uiso   1.00
Cu541  Cu    0.83333   0.88022   0.16667   0.00000  Uiso   1.00
Cu542  Cu    0.83333   0.78645   0.16667   0.00000  Uiso   1.00
H543   H     0.74003   0.74291   0.10724   0.00000  Uiso   1.00
H544   H     0.90173   0.89744   0.31422   0.00000  Uiso   1.00
H545   H     0.93078   0.71416   0.20079   0.00000  Uiso   1.00
H546   H     0.92984   0.67825   0.25436   0.00000  Uiso   1.00
H547   H     0.93416   0.74604   0.30914   0.00000  Uiso   1.00
H548   H     0.97615   0.74614   0.26919   0.00000  Uiso   1.00
H549   H     0.93362   0.78477   0.25693   0.00000  Uiso   1.00
H550   H     0.82566   0.93622   0.04403   0.00000  Uiso   1.00
H551   H     0.79886   0.98818   0.03484   0.00000  Uiso   1.00
H552   H     0.73265   0.94359   0.01925   0.00000  Uiso   1.00
H553   H     0.77024   0.92915   0.30971   0.00000  Uiso   1.00
H554   H     0.73742   0.68097   0.09739   0.00000  Uiso   1.00
H555   H     0.76049   0.89008   0.02640   0.00000  Uiso   1.00
H556   H     0.74400   0.69661   0.00703   0.00000  Uiso   1.00
H557   H     0.70190   0.72746   0.03021   0.00000  Uiso   1.00
H558   H     0.74932   0.75808   0.02024   0.00000  Uiso   1.00
H559   H     0.83766   0.94050   0.29083   0.00000  Uiso   1.00
H560   H     0.86543   0.99431   0.29715   0.00000  Uiso   1.00
H561   H     0.93072   0.95141   0.31666   0.00000  Uiso   1.00
H562   H     0.89283   0.94081   0.02705   0.00000  Uiso   1.00
N563   N     0.83333   0.95069   0.16667   0.00000  Uiso   1.00
N564   N     0.83333   0.71598   0.16667   0.00000  Uiso   1.00
O565   O     0.77321   0.87291   0.16666   0.00000  Uiso   1.00
O566   O     0.87952   0.95100   0.23755   0.00000  Uiso   1.00
O567   O     0.87760   0.71824   0.23905   0.00000  Uiso   1.00
O568   O     0.78470   0.94925   0.09786   0.00000  Uiso   1.00
O569   O     0.89345   0.79375   0.16667   0.00000  Uiso   1.00
O570   O     0.89345   0.87291   0.16667   0.00000  Uiso   1.00
O571   O     0.77321   0.79375   0.16666   0.00000  Uiso   1.00
O572   O     0.83333   0.87292   0.09613   0.00000  Uiso   1.00
O573   O     0.83333   0.79375   0.23720   0.00000  Uiso   1.00
O574   O     0.83333   0.87292   0.23720   0.00000  Uiso   1.00
O575   O     0.83333   0.79375   0.09613   0.00000  Uiso   1.00
O576   O     0.79467   0.71558   0.08960   0.00000  Uiso   1.00
C577   C     0.08788   0.16641   0.50482   0.00000  Uiso   1.00
C578   C     0.02336   0.20842   0.51961   0.00000  Uiso   1.00
C579   C     0.29106   0.16888   0.49941   0.00000  Uiso   1.00
C580   C     0.04356   0.16634   0.51105   0.00000  Uiso   1.00
C581   C     0.14424   0.02468   0.46370   0.00000  Uiso   1.00
C582   C     0.18829   0.30882   0.53680   0.00000  Uiso   1.00
C583   C     0.18961   0.02567   0.53560   0.00000  Uiso   1.00
C584   C     0.14471   0.30784   0.46334   0.00000  Uiso   1.00
C585   C     0.08464   0.04767   0.41880   0.00000  Uiso   1.00
C586   C     0.06918   0.05794   0.36578   0.00000  Uiso   1.00
C587   C     0.20115   0.29071   0.61959   0.00000  Uiso   1.00
C588   C     0.24601   0.16728   0.49866   0.00000  Uiso   1.00
C589   C     0.23346   0.26868   0.65492   0.00000  Uiso   1.00
C590   C     0.25372   0.04544   0.57186   0.00000  Uiso   1.00
C591   C     0.27577   0.08300   0.60368   0.00000  Uiso   1.00
C592   C     0.12910   0.28565   0.38182   0.00000  Uiso   1.00
C593   C     0.09617   0.26054   0.34887   0.00000  Uiso   1.00
C594   C     0.16656   0.16661   0.40692   0.00000  Uiso   1.00
C595   C     0.16680   0.16666   0.59309   0.00000  Uiso   1.00
C596   C     0.16664   0.16646   0.35520   0.00000  Uiso   1.00
C597   C     0.16666   0.16653   0.64480   0.00000  Uiso   1.00
C598   C     0.02019   0.12508   0.50373   0.00000  Uiso   1.00
C599   C     0.31390   0.20961   0.51451   0.00000  Uiso   1.00
C600   C     0.31209   0.12785   0.48980   0.00000  Uiso   1.00
Cl601  Cl    0.03896   0.07009   0.52281   0.00000  Uiso   1.00
Cl602  Cl    0.29103   0.26388   0.52509   0.00000  Uiso   1.00
Cl603  Cl    0.28959   0.08220   0.45281   0.00000  Uiso   1.00
Cl604  Cl    0.05046   0.25929   0.54196   0.00000  Uiso   1.00
Cu605  Cu    0.16667   0.21355   0.50000   0.00000  Uiso   1.00
Cu606  Cu    0.16667   0.11978   0.50000   0.00000  Uiso   1.00
H607   H     0.07336   0.07625   0.44058   0.00000  Uiso   1.00
H608   H     0.23507   0.23078   0.64755   0.00000  Uiso   1.00
H609   H     0.26411   0.04749   0.53412   0.00000  Uiso   1.00
H610   H     0.26318   0.01158   0.58769   0.00000  Uiso   1.00
H611   H     0.26749   0.07937   0.64247   0.00000  Uiso   1.00
H612   H     0.30948   0.07947   0.60253   0.00000  Uiso   1.00
H613   H     0.26696   0.11810   0.59026   0.00000  Uiso   1.00
H614   H     0.15899   0.26955   0.37736   0.00000  Uiso   1.00
H615   H     0.13219   0.32151   0.36818   0.00000  Uiso   1.00
H616   H     0.06599   0.27692   0.35258   0.00000  Uiso   1.00
H617   H     0.10357   0.26249   0.64305   0.00000  Uiso   1.00
H618   H     0.07075   0.01430   0.43073   0.00000  Uiso   1.00
H619   H     0.09382   0.22341   0.35974   0.00000  Uiso   1.00
H620   H     0.07733   0.02994   0.34036   0.00000  Uiso   1.00
H621   H     0.03523   0.06079   0.36354   0.00000  Uiso   1.00
H622   H     0.08265   0.09142   0.35358   0.00000  Uiso   1.00
H623   H     0.17100   0.27384   0.62416   0.00000  Uiso   1.00
H624   H     0.19876   0.32764   0.63048   0.00000  Uiso   1.00
H625   H     0.26406   0.28474   0.65000   0.00000  Uiso   1.00
H626   H     0.22616   0.27415   0.36039   0.00000  Uiso   1.00
N627   N     0.16667   0.28402   0.50000   0.00000  Uiso   1.00
N628   N     0.16667   0.04931   0.50000   0.00000  Uiso   1.00
O629   O     0.10655   0.20625   0.50000   0.00000  Uiso   1.00
O630   O     0.21285   0.28434   0.57088   0.00000  Uiso   1.00
O631   O     0.21093   0.05157   0.57239   0.00000  Uiso   1.00
O632   O     0.11803   0.28258   0.43119   0.00000  Uiso   1.00
O633   O     0.22679   0.12709   0.50000   0.00000  Uiso   1.00
O634   O     0.22679   0.20625   0.50000   0.00000  Uiso   1.00
O635   O     0.10655   0.12709   0.50000   0.00000  Uiso   1.00
O636   O     0.16667   0.20625   0.42946   0.00000  Uiso   1.00
O637   O     0.16667   0.12708   0.57054   0.00000  Uiso   1.00
O638   O     0.16667   0.20625   0.57054   0.00000  Uiso   1.00
O639   O     0.16667   0.12708   0.42946   0.00000  Uiso   1.00
O640   O     0.12800   0.04892   0.42293   0.00000  Uiso   1.00
C641   C     0.42121   0.16641   0.50482   0.00000  Uiso   1.00
C642   C     0.35669   0.20842   0.51961   0.00000  Uiso   1.00
C643   C     0.62440   0.16888   0.49941   0.00000  Uiso   1.00
C644   C     0.37689   0.16634   0.51105   0.00000  Uiso   1.00
C645   C     0.47757   0.02468   0.46370   0.00000  Uiso   1.00
C646   C     0.52162   0.30882   0.53680   0.00000  Uiso   1.00
C647   C     0.52294   0.02567   0.53560   0.00000  Uiso   1.00
C648   C     0.47804   0.30784   0.46334   0.00000  Uiso   1.00
C649   C     0.41797   0.04767   0.41880   0.00000  Uiso   1.00
C650   C     0.40251   0.05794   0.36578   0.00000  Uiso   1.00
C651   C     0.53448   0.29071   0.61959   0.00000  Uiso   1.00
C652   C     0.57934   0.16728   0.49866   0.00000  Uiso   1.00
C653   C     0.56680   0.26868   0.65492   0.00000  Uiso   1.00
C654   C     0.58706   0.04544   0.57186   0.00000  Uiso   1.00
C655   C     0.60910   0.08300   0.60368   0.00000  Uiso   1.00
C656   C     0.46243   0.28565   0.38182   0.00000  Uiso   1.00
C657   C     0.42951   0.26054   0.34887   0.00000  Uiso   1.00
C658   C     0.49989   0.16661   0.40692   0.00000  Uiso   1.00
C659   C     0.50013   0.16666   0.59309   0.00000  Uiso   1.00
C660   C     0.49997   0.16646   0.35520   0.00000  Uiso   1.00
C661   C     0.49999   0.16653   0.64480   0.00000  Uiso   1.00
C662   C     0.35353   0.12508   0.50373   0.00000  Uiso   1.00
C663   C     0.64723   0.20961   0.51451   0.00000  Uiso   1.00
C664   C     0.64542   0.12785   0.48980   0.00000  Uiso   1.00
Cl665  Cl    0.37229   0.07009   0.52281   0.00000  Uiso   1.00
Cl666  Cl    0.62436   0.26388   0.52509   0.00000  Uiso   1.00
Cl667  Cl    0.62292   0.08220   0.45281   0.00000  Uiso   1.00
Cl668  Cl    0.38379   0.25929   0.54196   0.00000  Uiso   1.00
Cu669  Cu    0.50000   0.21355   0.50000   0.00000  Uiso   1.00
Cu670  Cu    0.50000   0.11978   0.50000   0.00000  Uiso   1.00
H671   H     0.40670   0.07625   0.44058   0.00000  Uiso   1.00
H672   H     0.56840   0.23078   0.64755   0.00000  Uiso   1.00
H673   H     0.59745   0.04749   0.53412   0.00000  Uiso   1.00
H674   H     0.59651   0.01158   0.58769   0.00000  Uiso   1.00
H675   H     0.60082   0.07937   0.64247   0.00000  Uiso   1.00
H676   H     0.64281   0.07947   0.60253   0.00000  Uiso   1.00
H677   H     0.60029   0.11810   0.59026   0.00000  Uiso   1.00
H678   H     0.49233   0.26955   0.37736   0.00000  Uiso   1.00
H679   H     0.46553   0.32151   0.36818   0.00000  Uiso   1.00
H680   H     0.39932   0.27692   0.35258   0.00000  Uiso   1.00
H681   H     0.43691   0.26249   0.64305   0.00000  Uiso   1.00
H682   H     0.40409   0.01430   0.43073   0.00000  Uiso   1.00
H683   H     0.42716   0.22341   0.35974   0.00000  Uiso   1.00
H684   H     0.41067   0.02994   0.34036   0.00000  Uiso   1.00
H685   H     0.36857   0.06079   0.36354   0.00000  Uiso   1.00
H686   H     0.41598   0.09142   0.35358   0.00000  Uiso   1.00
H687   H     0.50433   0.27384   0.62416   0.00000  Uiso   1.00
H688   H     0.53210   0.32764   0.63048   0.00000  Uiso   1.00
H689   H     0.59739   0.28474   0.65000   0.00000  Uiso   1.00
H690   H     0.55950   0.27415   0.36039   0.00000  Uiso   1.00
N691   N     0.50000   0.28402   0.50000   0.00000  Uiso   1.00
N692   N     0.50000   0.04931   0.50000   0.00000  Uiso   1.00
O693   O     0.43988   0.20625   0.50000   0.00000  Uiso   1.00
O694   O     0.54618   0.28434   0.57088   0.00000  Uiso   1.00
O695   O     0.54427   0.05157   0.57239   0.00000  Uiso   1.00
O696   O     0.45137   0.28258   0.43119   0.00000  Uiso   1.00
O697   O     0.56012   0.12709   0.50000   0.00000  Uiso   1.00
O698   O     0.56012   0.20625   0.50000   0.00000  Uiso   1.00
O699   O     0.43988   0.12709   0.50000   0.00000  Uiso   1.00
O700   O     0.50000   0.20625   0.42946   0.00000  Uiso   1.00
O701   O     0.50000   0.12708   0.57054   0.00000  Uiso   1.00
O702   O     0.50000   0.20625   0.57054   0.00000  Uiso   1.00
O703   O     0.50000   0.12708   0.42946   0.00000  Uiso   1.00
O704   O     0.46134   0.04892   0.42293   0.00000  Uiso   1.00
C705   C     0.75454   0.16641   0.50482   0.00000  Uiso   1.00
C706   C     0.69003   0.20842   0.51961   0.00000  Uiso   1.00
C707   C     0.95773   0.16888   0.49941   0.00000  Uiso   1.00
C708   C     0.71022   0.16634   0.51105   0.00000  Uiso   1.00
C709   C     0.81091   0.02468   0.46370   0.00000  Uiso   1.00
C710   C     0.85495   0.30882   0.53680   0.00000  Uiso   1.00
C711   C     0.85627   0.02567   0.53560   0.00000  Uiso   1.00
C712   C     0.81137   0.30784   0.46334   0.00000  Uiso   1.00
C713   C     0.75130   0.04767   0.41880   0.00000  Uiso   1.00
C714   C     0.73585   0.05794   0.36578   0.00000  Uiso   1.00
C715   C     0.86781   0.29071   0.61959   0.00000  Uiso   1.00
C716   C     0.91268   0.16728   0.49866   0.00000  Uiso   1.00
C717   C     0.90013   0.26868   0.65492   0.00000  Uiso   1.00
C718   C     0.92039   0.04544   0.57186   0.00000  Uiso   1.00
C719   C     0.94244   0.08300   0.60368   0.00000  Uiso   1.00
C720   C     0.79577   0.28565   0.38182   0.00000  Uiso   1.00
C721   C     0.76284   0.26054   0.34887   0.00000  Uiso   1.00
C722   C     0.83322   0.16661   0.40692   0.00000  Uiso   1.00
C723   C     0.83347   0.16666   0.59309   0.00000  Uiso   1.00
C724   C     0.83331   0.16646   0.35520   0.00000  Uiso   1.00
C725   C     0.83333   0.16653   0.64480   0.00000  Uiso   1.00
C726   C     0.68686   0.12508   0.50373   0.00000  Uiso   1.00
C727   C     0.98057   0.20961   0.51451   0.00000  Uiso   1.00
C728   C     0.97876   0.12785   0.48980   0.00000  Uiso   1.00
Cl729  Cl    0.70563   0.07009   0.52281   0.00000  Uiso   1.00
Cl730  Cl    0.95769   0.26388   0.52509   0.00000  Uiso   1.00
Cl731  Cl    0.95625   0.08220   0.45281   0.00000  Uiso   1.00
Cl732  Cl    0.71712   0.25929   0.54196   0.00000  Uiso   1.00
Cu733  Cu    0.83333   0.21355   0.50000   0.00000  Uiso   1.00
Cu734  Cu    0.83333   0.11978   0.50000   0.00000  Uiso   1.00
H735   H     0.74003   0.07625   0.44058   0.00000  Uiso   1.00
H736   H     0.90173   0.23078   0.64755   0.00000  Uiso   1.00
H737   H     0.93078   0.04749   0.53412   0.00000  Uiso   1.00
H738   H     0.92984   0.01158   0.58769   0.00000  Uiso   1.00
H739   H     0.93416   0.07937   0.64247   0.00000  Uiso   1.00
H740   H     0.97615   0.07947   0.60253   0.00000  Uiso   1.00
H741   H     0.93362   0.11810   0.59026   0.00000  Uiso   1.00
H742   H     0.82566   0.26955   0.37736   0.00000  Uiso   1.00
H743   H     0.79886   0.32151   0.36818   0.00000  Uiso   1.00
H744   H     0.73265   0.27692   0.35258   0.00000  Uiso   1.00
H745   H     0.77024   0.26249   0.64305   0.00000  Uiso   1.00
H746   H     0.73742   0.01430   0.43073   0.00000  Uiso   1.00
H747   H     0.76049   0.22341   0.35974   0.00000  Uiso   1.00
H748   H     0.74400   0.02994   0.34036   0.00000  Uiso   1.00
H749   H     0.70190   0.06079   0.36354   0.00000  Uiso   1.00
H750   H     0.74932   0.09142   0.35358   0.00000  Uiso   1.00
H751   H     0.83766   0.27384   0.62416   0.00000  Uiso   1.00
H752   H     0.86543   0.32764   0.63048   0.00000  Uiso   1.00
H753   H     0.93072   0.28474   0.65000   0.00000  Uiso   1.00
H754   H     0.89283   0.27415   0.36039   0.00000  Uiso   1.00
N755   N     0.83333   0.28402   0.50000   0.00000  Uiso   1.00
N756   N     0.83333   0.04931   0.50000   0.00000  Uiso   1.00
O757   O     0.77321   0.20625   0.50000   0.00000  Uiso   1.00
O758   O     0.87952   0.28434   0.57088   0.00000  Uiso   1.00
O759   O     0.87760   0.05157   0.57239   0.00000  Uiso   1.00
O760   O     0.78470   0.28258   0.43119   0.00000  Uiso   1.00
O761   O     0.89345   0.12709   0.50000   0.00000  Uiso   1.00
O762   O     0.89345   0.20625   0.50000   0.00000  Uiso   1.00
O763   O     0.77321   0.12709   0.50000   0.00000  Uiso   1.00
O764   O     0.83333   0.20625   0.42946   0.00000  Uiso   1.00
O765   O     0.83333   0.12708   0.57054   0.00000  Uiso   1.00
O766   O     0.83333   0.20625   0.57054   0.00000  Uiso   1.00
O767   O     0.83333   0.12708   0.42946   0.00000  Uiso   1.00
O768   O     0.79467   0.04892   0.42293   0.00000  Uiso   1.00
C769   C     0.08788   0.49974   0.50482   0.00000  Uiso   1.00
C770   C     0.02336   0.54176   0.51961   0.00000  Uiso   1.00
C771   C     0.29106   0.50221   0.49941   0.00000  Uiso   1.00
C772   C     0.04356   0.49967   0.51105   0.00000  Uiso   1.00
C773   C     0.14424   0.35801   0.46370   0.00000  Uiso   1.00
C774   C     0.18829   0.64216   0.53680   0.00000  Uiso   1.00
C775   C     0.18961   0.35900   0.53560   0.00000  Uiso   1.00
C776   C     0.14471   0.64117   0.46334   0.00000  Uiso   1.00
C777   C     0.08464   0.38100   0.41880   0.00000  Uiso   1.00
C778   C     0.06918   0.39128   0.36578   0.00000  Uiso   1.00
C779   C     0.20115   0.62405   0.61959   0.00000  Uiso   1.00
C780   C     0.24601   0.50062   0.49866   0.00000  Uiso   1.00
C781   C     0.23346   0.60201   0.65492   0.00000  Uiso   1.00
C782   C     0.25372   0.37878   0.57186   0.00000  Uiso   1.00
C783   C     0.27577   0.41633   0.60368   0.00000  Uiso   1.00
C784   C     0.12910   0.61898   0.38182   0.00000  Uiso   1.00
C785   C     0.09617   0.59387   0.34887   0.00000  Uiso   1.00
C786   C     0.16656   0.49994   0.40692   0.00000  Uiso   1.00
C787   C     0.16680   0.49999   0.59309   0.00000  Uiso   1.00
C788   C     0.16664   0.49979   0.35520   0.00000  Uiso   1.00
C789   C     0.16666   0.49986   0.64480   0.00000  Uiso   1.00
C790   C     0.02019   0.45842   0.50373   0.00000  Uiso   1.00
C791   C     0.31390   0.54294   0.51451   0.00000  Uiso   1.00
C792   C     0.31209   0.46119   0.48980   0.00000  Uiso   1.00
Cl793  Cl    0.03896   0.40343   0.52281   0.00000  Uiso   1.00
Cl794  Cl    0.29103   0.59721   0.52509   0.00000  Uiso   1.00
Cl795  Cl    0.28959   0.41554   0.45281   0.00000  Uiso   1.00
Cl796  Cl    0.05046   0.59263   0.54196   0.00000  Uiso   1.00
Cu797  Cu    0.16667   0.54689   0.50000   0.00000  Uiso   1.00
Cu798  Cu    0.16667   0.45311   0.50000   0.00000  Uiso   1.00
H799   H     0.07336   0.40958   0.44058   0.00000  Uiso   1.00
H800   H     0.23507   0.56411   0.64755   0.00000  Uiso   1.00
H801   H     0.26411   0.38082   0.53412   0.00000  Uiso   1.00
H802   H     0.26318   0.34491   0.58769   0.00000  Uiso   1.00
H803   H     0.26749   0.41270   0.64247   0.00000  Uiso   1.00
H804   H     0.30948   0.41281   0.60253   0.00000  Uiso   1.00
H805   H     0.26696   0.45143   0.59026   0.00000  Uiso   1.00
H806   H     0.15899   0.60288   0.37736   0.00000  Uiso   1.00
H807   H     0.13219   0.65485   0.36818   0.00000  Uiso   1.00
H808   H     0.06599   0.61026   0.35258   0.00000  Uiso   1.00
H809   H     0.10357   0.59582   0.64305   0.00000  Uiso   1.00
H810   H     0.07075   0.34764   0.43073   0.00000  Uiso   1.00
H811   H     0.09382   0.55674   0.35974   0.00000  Uiso   1.00
H812   H     0.07733   0.36328   0.34036   0.00000  Uiso   1.00
H813   H     0.03523   0.39412   0.36354   0.00000  Uiso   1.00
H814   H     0.08265   0.42475   0.35358   0.00000  Uiso   1.00
H815   H     0.17100   0.60717   0.62416   0.00000  Uiso   1.00
H816   H     0.19876   0.66098   0.63048   0.00000  Uiso   1.00
H817   H     0.26406   0.61808   0.65000   0.00000  Uiso   1.00
H818   H     0.22616   0.60748   0.36039   0.00000  Uiso   1.00
N819   N     0.16667   0.61736   0.50000   0.00000  Uiso   1.00
N820   N     0.16667   0.38264   0.50000   0.00000  Uiso   1.00
O821   O     0.10655   0.53958   0.50000   0.00000  Uiso   1.00
O822   O     0.21285   0.61767   0.57088   0.00000  Uiso   1.00
O823   O     0.21093   0.38490   0.57239   0.00000  Uiso   1.00
O824   O     0.11803   0.61591   0.43119   0.00000  Uiso   1.00
O825   O     0.22679   0.46042   0.50000   0.00000  Uiso   1.00
O826   O     0.22679   0.53958   0.50000   0.00000  Uiso   1.00
O827   O     0.10655   0.46042   0.50000   0.00000  Uiso   1.00
O828   O     0.16667   0.53959   0.42946   0.00000  Uiso   1.00
O829   O     0.16667   0.46041   0.57054   0.00000  Uiso   1.00
O830   O     0.16667   0.53959   0.57054   0.00000  Uiso   1.00
O831   O     0.16667   0.46041   0.42946   0.00000  Uiso   1.00
O832   O     0.12800   0.38225   0.42293   0.00000  Uiso   1.00
C833   C     0.42121   0.49974   0.50482   0.00000  Uiso   1.00
C834   C     0.35669   0.54176   0.51961   0.00000  Uiso   1.00
C835   C     0.62440   0.50221   0.49941   0.00000  Uiso   1.00
C836   C     0.37689   0.49967   0.51105   0.00000  Uiso   1.00
C837   C     0.47757   0.35801   0.46370   0.00000  Uiso   1.00
C838   C     0.52162   0.64216   0.53680   0.00000  Uiso   1.00
C839   C     0.52294   0.35900   0.53560   0.00000  Uiso   1.00
C840   C     0.47804   0.64117   0.46334   0.00000  Uiso   1.00
C841   C     0.41797   0.38100   0.41880   0.00000  Uiso   1.00
C842   C     0.40251   0.39128   0.36578   0.00000  Uiso   1.00
C843   C     0.53448   0.62405   0.61959   0.00000  Uiso   1.00
C844   C     0.57934   0.50062   0.49866   0.00000  Uiso   1.00
C845   C     0.56680   0.60201   0.65492   0.00000  Uiso   1.00
C846   C     0.58706   0.37878   0.57186   0.00000  Uiso   1.00
C847   C     0.60910   0.41633   0.60368   0.00000  Uiso   1.00
C848   C     0.46243   0.61898   0.38182   0.00000  Uiso   1.00
C849   C     0.42951   0.59387   0.34887   0.00000  Uiso   1.00
C850   C     0.49989   0.49994   0.40692   0.00000  Uiso   1.00
C851   C     0.50013   0.49999   0.59309   0.00000  Uiso   1.00
C852   C     0.49997   0.49979   0.35520   0.00000  Uiso   1.00
C853   C     0.49999   0.49986   0.64480   0.00000  Uiso   1.00
C854   C     0.35353   0.45842   0.50373   0.00000  Uiso   1.00
C855   C     0.64723   0.54294   0.51451   0.00000  Uiso   1.00
C856   C     0.64542   0.46119   0.48980   0.00000  Uiso   1.00
Cl857  Cl    0.37229   0.40343   0.52281   0.00000  Uiso   1.00
Cl858  Cl    0.62436   0.59721   0.52509   0.00000  Uiso   1.00
Cl859  Cl    0.62292   0.41554   0.45281   0.00000  Uiso   1.00
Cl860  Cl    0.38379   0.59263   0.54196   0.00000  Uiso   1.00
Cu861  Cu    0.50000   0.54689   0.50000   0.00000  Uiso   1.00
Cu862  Cu    0.50000   0.45311   0.50000   0.00000  Uiso   1.00
H863   H     0.40670   0.40958   0.44058   0.00000  Uiso   1.00
H864   H     0.56840   0.56411   0.64755   0.00000  Uiso   1.00
H865   H     0.59745   0.38082   0.53412   0.00000  Uiso   1.00
H866   H     0.59651   0.34491   0.58769   0.00000  Uiso   1.00
H867   H     0.60082   0.41270   0.64247   0.00000  Uiso   1.00
H868   H     0.64281   0.41281   0.60253   0.00000  Uiso   1.00
H869   H     0.60029   0.45143   0.59026   0.00000  Uiso   1.00
H870   H     0.49233   0.60288   0.37736   0.00000  Uiso   1.00
H871   H     0.46553   0.65485   0.36818   0.00000  Uiso   1.00
H872   H     0.39932   0.61026   0.35258   0.00000  Uiso   1.00
H873   H     0.43691   0.59582   0.64305   0.00000  Uiso   1.00
H874   H     0.40409   0.34764   0.43073   0.00000  Uiso   1.00
H875   H     0.42716   0.55674   0.35974   0.00000  Uiso   1.00
H876   H     0.41067   0.36328   0.34036   0.00000  Uiso   1.00
H877   H     0.36857   0.39412   0.36354   0.00000  Uiso   1.00
H878   H     0.41598   0.42475   0.35358   0.00000  Uiso   1.00
H879   H     0.50433   0.60717   0.62416   0.00000  Uiso   1.00
H880   H     0.53210   0.66098   0.63048   0.00000  Uiso   1.00
H881   H     0.59739   0.61808   0.65000   0.00000  Uiso   1.00
H882   H     0.55950   0.60748   0.36039   0.00000  Uiso   1.00
N883   N     0.50000   0.61736   0.50000   0.00000  Uiso   1.00
N884   N     0.50000   0.38264   0.50000   0.00000  Uiso   1.00
O885   O     0.43988   0.53958   0.50000   0.00000  Uiso   1.00
O886   O     0.54618   0.61767   0.57088   0.00000  Uiso   1.00
O887   O     0.54427   0.38490   0.57239   0.00000  Uiso   1.00
O888   O     0.45137   0.61591   0.43119   0.00000  Uiso   1.00
O889   O     0.56012   0.46042   0.50000   0.00000  Uiso   1.00
O890   O     0.56012   0.53958   0.50000   0.00000  Uiso   1.00
O891   O     0.43988   0.46042   0.50000   0.00000  Uiso   1.00
O892   O     0.50000   0.53959   0.42946   0.00000  Uiso   1.00
O893   O     0.50000   0.46041   0.57054   0.00000  Uiso   1.00
O894   O     0.50000   0.53959   0.57054   0.00000  Uiso   1.00
O895   O     0.50000   0.46041   0.42946   0.00000  Uiso   1.00
O896   O     0.46134   0.38225   0.42293   0.00000  Uiso   1.00
C897   C     0.75454   0.49974   0.50482   0.00000  Uiso   1.00
C898   C     0.69003   0.54176   0.51961   0.00000  Uiso   1.00
C899   C     0.95773   0.50221   0.49941   0.00000  Uiso   1.00
C900   C     0.71022   0.49967   0.51105   0.00000  Uiso   1.00
C901   C     0.81091   0.35801   0.46370   0.00000  Uiso   1.00
C902   C     0.85495   0.64216   0.53680   0.00000  Uiso   1.00
C903   C     0.85627   0.35900   0.53560   0.00000  Uiso   1.00
C904   C     0.81137   0.64117   0.46334   0.00000  Uiso   1.00
C905   C     0.75130   0.38100   0.41880   0.00000  Uiso   1.00
C906   C     0.73585   0.39128   0.36578   0.00000  Uiso   1.00
C907   C     0.86781   0.62405   0.61959   0.00000  Uiso   1.00
C908   C     0.91268   0.50062   0.49866   0.00000  Uiso   1.00
C909   C     0.90013   0.60201   0.65492   0.00000  Uiso   1.00
C910   C     0.92039   0.37878   0.57186   0.00000  Uiso   1.00
C911   C     0.94244   0.41633   0.60368   0.00000  Uiso   1.00
C912   C     0.79577   0.61898   0.38182   0.00000  Uiso   1.00
C913   C     0.76284   0.59387   0.34887   0.00000  Uiso   1.00
C914   C     0.83322   0.49994   0.40692   0.00000  Uiso   1.00
C915   C     0.83347   0.49999   0.59309   0.00000  Uiso   1.00
C916   C     0.83331   0.49979   0.35520   0.00000  Uiso   1.00
C917   C     0.83333   0.49986   0.64480   0.00000  Uiso   1.00
C918   C     0.68686   0.45842   0.50373   0.00000  Uiso   1.00
C919   C     0.98057   0.54294   0.51451   0.00000  Uiso   1.00
C920   C     0.97876   0.46119   0.48980   0.00000  Uiso   1.00
Cl921  Cl    0.70563   0.40343   0.52281   0.00000  Uiso   1.00
Cl922  Cl    0.95769   0.59721   0.52509   0.00000  Uiso   1.00
Cl923  Cl    0.95625   0.41554   0.45281   0.00000  Uiso   1.00
Cl924  Cl    0.71712   0.59263   0.54196   0.00000  Uiso   1.00
Cu925  Cu    0.83333   0.54689   0.50000   0.00000  Uiso   1.00
Cu926  Cu    0.83333   0.45311   0.50000   0.00000  Uiso   1.00
H927   H     0.74003   0.40958   0.44058   0.00000  Uiso   1.00
H928   H     0.90173   0.56411   0.64755   0.00000  Uiso   1.00
H929   H     0.93078   0.38082   0.53412   0.00000  Uiso   1.00
H930   H     0.92984   0.34491   0.58769   0.00000  Uiso   1.00
H931   H     0.93416   0.41270   0.64247   0.00000  Uiso   1.00
H932   H     0.97615   0.41281   0.60253   0.00000  Uiso   1.00
H933   H     0.93362   0.45143   0.59026   0.00000  Uiso   1.00
H934   H     0.82566   0.60288   0.37736   0.00000  Uiso   1.00
H935   H     0.79886   0.65485   0.36818   0.00000  Uiso   1.00
H936   H     0.73265   0.61026   0.35258   0.00000  Uiso   1.00
H937   H     0.77024   0.59582   0.64305   0.00000  Uiso   1.00
H938   H     0.73742   0.34764   0.43073   0.00000  Uiso   1.00
H939   H     0.76049   0.55674   0.35974   0.00000  Uiso   1.00
H940   H     0.74400   0.36328   0.34036   0.00000  Uiso   1.00
H941   H     0.70190   0.39412   0.36354   0.00000  Uiso   1.00
H942   H     0.74932   0.42475   0.35358   0.00000  Uiso   1.00
H943   H     0.83766   0.60717   0.62416   0.00000  Uiso   1.00
H944   H     0.86543   0.66098   0.63048   0.00000  Uiso   1.00
H945   H     0.93072   0.61808   0.65000   0.00000  Uiso   1.00
H946   H     0.89283   0.60748   0.36039   0.00000  Uiso   1.00
N947   N     0.83333   0.61736   0.50000   0.00000  Uiso   1.00
N948   N     0.83333   0.38264   0.50000   0.00000  Uiso   1.00
O949   O     0.77321   0.53958   0.50000   0.00000  Uiso   1.00
O950   O     0.87952   0.61767   0.57088   0.00000  Uiso   1.00
O951   O     0.87760   0.38490   0.57239   0.00000  Uiso   1.00
O952   O     0.78470   0.61591   0.43119   0.00000  Uiso   1.00
O953   O     0.89345   0.46042   0.50000   0.00000  Uiso   1.00
O954   O     0.89345   0.53958   0.50000   0.00000  Uiso   1.00
O955   O     0.77321   0.46042   0.50000   0.00000  Uiso   1.00
O956   O     0.83333   0.53959   0.42946   0.00000  Uiso   1.00
O957   O     0.83333   0.46041   0.57054   0.00000  Uiso   1.00
O958   O     0.83333   0.53959   0.57054   0.00000  Uiso   1.00
O959   O     0.83333   0.46041   0.42946   0.00000  Uiso   1.00
O960   O     0.79467   0.38225   0.42293   0.00000  Uiso   1.00
C961   C     0.08788   0.83307   0.50482   0.00000  Uiso   1.00
C962   C     0.02336   0.87509   0.51961   0.00000  Uiso   1.00
C963   C     0.29106   0.83555   0.49941   0.00000  Uiso   1.00
C964   C     0.04356   0.83301   0.51105   0.00000  Uiso   1.00
C965   C     0.14424   0.69134   0.46370   0.00000  Uiso   1.00
C966   C     0.18829   0.97549   0.53680   0.00000  Uiso   1.00
C967   C     0.18961   0.69233   0.53560   0.00000  Uiso   1.00
C968   C     0.14471   0.97450   0.46334   0.00000  Uiso   1.00
C969   C     0.08464   0.71434   0.41880   0.00000  Uiso   1.00
C970   C     0.06918   0.72461   0.36578   0.00000  Uiso   1.00
C971   C     0.20115   0.95738   0.61959   0.00000  Uiso   1.00
C972   C     0.24601   0.83395   0.49866   0.00000  Uiso   1.00
C973   C     0.23346   0.93534   0.65492   0.00000  Uiso   1.00
C974   C     0.25372   0.71211   0.57186   0.00000  Uiso   1.00
C975   C     0.27577   0.74966   0.60368   0.00000  Uiso   1.00
C976   C     0.12910   0.95232   0.38182   0.00000  Uiso   1.00
C977   C     0.09617   0.92720   0.34887   0.00000  Uiso   1.00
C978   C     0.16656   0.83327   0.40692   0.00000  Uiso   1.00
C979   C     0.16680   0.83333   0.59309   0.00000  Uiso   1.00
C980   C     0.16664   0.83313   0.35520   0.00000  Uiso   1.00
C981   C     0.16666   0.83319   0.64480   0.00000  Uiso   1.00
C982   C     0.02019   0.79175   0.50373   0.00000  Uiso   1.00
C983   C     0.31390   0.87627   0.51451   0.00000  Uiso   1.00
C984   C     0.31209   0.79452   0.48980   0.00000  Uiso   1.00
Cl985  Cl    0.03896   0.73676   0.52281   0.00000  Uiso   1.00
Cl986  Cl    0.29103   0.93054   0.52509   0.00000  Uiso   1.00
Cl987  Cl    0.28959   0.74887   0.45281   0.00000  Uiso   1.00
Cl988  Cl    0.05046   0.92596   0.54196   0.00000  Uiso   1.00
Cu989  Cu    0.16667   0.88022   0.50000   0.00000  Uiso   1.00
Cu990  Cu    0.16667   0.78645   0.50000   0.00000  Uiso   1.00
H991   H     0.07336   0.74291   0.44058   0.00000  Uiso   1.00
H992   H     0.23507   0.89744   0.64755   0.00000  Uiso   1.00
H993   H     0.26411   0.71416   0.53412   0.00000  Uiso   1.00
H994   H     0.26318   0.67825   0.58769   0.00000  Uiso   1.00
H995   H     0.26749   0.74604   0.64247   0.00000  Uiso   1.00
H996   H     0.30948   0.74614   0.60253   0.00000  Uiso   1.00
H997   H     0.26696   0.78477   0.59026   0.00000  Uiso   1.00
H998   H     0.15899   0.93622   0.37736   0.00000  Uiso   1.00
H999   H     0.13219   0.98818   0.36818   0.00000  Uiso   1.00
H1000  H     0.06599   0.94359   0.35258   0.00000  Uiso   1.00
H1001  H     0.10357   0.92915   0.64305   0.00000  Uiso   1.00
H1002  H     0.07075   0.68097   0.43073   0.00000  Uiso   1.00
H1003  H     0.09382   0.89008   0.35974   0.00000  Uiso   1.00
H1004  H     0.07733   0.69661   0.34036   0.00000  Uiso   1.00
H1005  H     0.03523   0.72746   0.36354   0.00000  Uiso   1.00
H1006  H     0.08265   0.75808   0.35358   0.00000  Uiso   1.00
H1007  H     0.17100   0.94050   0.62416   0.00000  Uiso   1.00
H1008  H     0.19876   0.99431   0.63048   0.00000  Uiso   1.00
H1009  H     0.26406   0.95141   0.65000   0.00000  Uiso   1.00
H1010  H     0.22616   0.94081   0.36039   0.00000  Uiso   1.00
N1011  N     0.16667   0.95069   0.50000   0.00000  Uiso   1.00
N1012  N     0.16667   0.71598   0.50000   0.00000  Uiso   1.00
O1013  O     0.10655   0.87291   0.50000   0.00000  Uiso   1.00
O1014  O     0.21285   0.95100   0.57088   0.00000  Uiso   1.00
O1015  O     0.21093   0.71824   0.57239   0.00000  Uiso   1.00
O1016  O     0.11803   0.94925   0.43119   0.00000  Uiso   1.00
O1017  O     0.22679   0.79375   0.50000   0.00000  Uiso   1.00
O1018  O     0.22679   0.87291   0.50000   0.00000  Uiso   1.00
O1019  O     0.10655   0.79375   0.50000   0.00000  Uiso   1.00
O1020  O     0.16667   0.87292   0.42946   0.00000  Uiso   1.00
O1021  O     0.16667   0.79375   0.57054   0.00000  Uiso   1.00
O1022  O     0.16667   0.87292   0.57054   0.00000  Uiso   1.00
O1023  O     0.16667   0.79375   0.42946   0.00000  Uiso   1.00
O1024  O     0.12800   0.71558   0.42293   0.00000  Uiso   1.00
C1025  C     0.42121   0.83307   0.50482   0.00000  Uiso   1.00
C1026  C     0.35669   0.87509   0.51961   0.00000  Uiso   1.00
C1027  C     0.62440   0.83555   0.49941   0.00000  Uiso   1.00
C1028  C     0.37689   0.83301   0.51105   0.00000  Uiso   1.00
C1029  C     0.47757   0.69134   0.46370   0.00000  Uiso   1.00
C1030  C     0.52162   0.97549   0.53680   0.00000  Uiso   1.00
C1031  C     0.52294   0.69233   0.53560   0.00000  Uiso   1.00
C1032  C     0.47804   0.97450   0.46334   0.00000  Uiso   1.00
C1033  C     0.41797   0.71434   0.41880   0.00000  Uiso   1.00
C1034  C     0.40251   0.72461   0.36578   0.00000  Uiso   1.00
C1035  C     0.53448   0.95738   0.61959   0.00000  Uiso   1.00
C1036  C     0.57934   0.83395   0.49866   0.00000  Uiso   1.00
C1037  C     0.56680   0.93534   0.65492   0.00000  Uiso   1.00
C1038  C     0.58706   0.71211   0.57186   0.00000  Uiso   1.00
C1039  C     0.60910   0.74966   0.60368   0.00000  Uiso   1.00
C1040  C     0.46243   0.95232   0.38182   0.00000  Uiso   1.00
C1041  C     0.42951   0.92720   0.34887   0.00000  Uiso   1.00
C1042  C     0.49989   0.83327   0.40692   0.00000  Uiso   1.00
C1043  C     0.50013   0.83333   0.59309   0.00000  Uiso   1.00
C1044  C     0.49997   0.83313   0.35520   0.00000  Uiso   1.00
C1045  C     0.49999   0.83319   0.64480   0.00000  Uiso   1.00
C1046  C     0.35353   0.79175   0.50373   0.00000  Uiso   1.00
C1047  C     0.64723   0.87627   0.51451   0.00000  Uiso   1.00
C1048  C     0.64542   0.79452   0.48980   0.00000  Uiso   1.00
Cl1049 Cl    0.37229   0.73676   0.52281   0.00000  Uiso   1.00
Cl1050 Cl    0.62436   0.93054   0.52509   0.00000  Uiso   1.00
Cl1051 Cl    0.62292   0.74887   0.45281   0.00000  Uiso   1.00
Cl1052 Cl    0.38379   0.92596   0.54196   0.00000  Uiso   1.00
Cu1053 Cu    0.50000   0.88022   0.50000   0.00000  Uiso   1.00
Cu1054 Cu    0.50000   0.78645   0.50000   0.00000  Uiso   1.00
H1055  H     0.40670   0.74291   0.44058   0.00000  Uiso   1.00
H1056  H     0.56840   0.89744   0.64755   0.00000  Uiso   1.00
H1057  H     0.59745   0.71416   0.53412   0.00000  Uiso   1.00
H1058  H     0.59651   0.67825   0.58769   0.00000  Uiso   1.00
H1059  H     0.60082   0.74604   0.64247   0.00000  Uiso   1.00
H1060  H     0.64281   0.74614   0.60253   0.00000  Uiso   1.00
H1061  H     0.60029   0.78477   0.59026   0.00000  Uiso   1.00
H1062  H     0.49233   0.93622   0.37736   0.00000  Uiso   1.00
H1063  H     0.46553   0.98818   0.36818   0.00000  Uiso   1.00
H1064  H     0.39932   0.94359   0.35258   0.00000  Uiso   1.00
H1065  H     0.43691   0.92915   0.64305   0.00000  Uiso   1.00
H1066  H     0.40409   0.68097   0.43073   0.00000  Uiso   1.00
H1067  H     0.42716   0.89008   0.35974   0.00000  Uiso   1.00
H1068  H     0.41067   0.69661   0.34036   0.00000  Uiso   1.00
H1069  H     0.36857   0.72746   0.36354   0.00000  Uiso   1.00
H1070  H     0.41598   0.75808   0.35358   0.00000  Uiso   1.00
H1071  H     0.50433   0.94050   0.62416   0.00000  Uiso   1.00
H1072  H     0.53210   0.99431   0.63048   0.00000  Uiso   1.00
H1073  H     0.59739   0.95141   0.65000   0.00000  Uiso   1.00
H1074  H     0.55950   0.94081   0.36039   0.00000  Uiso   1.00
N1075  N     0.50000   0.95069   0.50000   0.00000  Uiso   1.00
N1076  N     0.50000   0.71598   0.50000   0.00000  Uiso   1.00
O1077  O     0.43988   0.87291   0.50000   0.00000  Uiso   1.00
O1078  O     0.54618   0.95100   0.57088   0.00000  Uiso   1.00
O1079  O     0.54427   0.71824   0.57239   0.00000  Uiso   1.00
O1080  O     0.45137   0.94925   0.43119   0.00000  Uiso   1.00
O1081  O     0.56012   0.79375   0.50000   0.00000  Uiso   1.00
O1082  O     0.56012   0.87291   0.50000   0.00000  Uiso   1.00
O1083  O     0.43988   0.79375   0.50000   0.00000  Uiso   1.00
O1084  O     0.50000   0.87292   0.42946   0.00000  Uiso   1.00
O1085  O     0.50000   0.79375   0.57054   0.00000  Uiso   1.00
O1086  O     0.50000   0.87292   0.57054   0.00000  Uiso   1.00
O1087  O     0.50000   0.79375   0.42946   0.00000  Uiso   1.00
O1088  O     0.46134   0.71558   0.42293   0.00000  Uiso   1.00
C1089  C     0.75454   0.83307   0.50482   0.00000  Uiso   1.00
C1090  C     0.69003   0.87509   0.51961   0.00000  Uiso   1.00
C1091  C     0.95773   0.83555   0.49941   0.00000  Uiso   1.00
C1092  C     0.71022   0.83301   0.51105   0.00000  Uiso   1.00
C1093  C     0.81091   0.69134   0.46370   0.00000  Uiso   1.00
C1094  C     0.85495   0.97549   0.53680   0.00000  Uiso   1.00
C1095  C     0.85627   0.69233   0.53560   0.00000  Uiso   1.00
C1096  C     0.81137   0.97450   0.46334   0.00000  Uiso   1.00
C1097  C     0.75130   0.71434   0.41880   0.00000  Uiso   1.00
C1098  C     0.73585   0.72461   0.36578   0.00000  Uiso   1.00
C1099  C     0.86781   0.95738   0.61959   0.00000  Uiso   1.00
C1100  C     0.91268   0.83395   0.49866   0.00000  Uiso   1.00
C1101  C     0.90013   0.93534   0.65492   0.00000  Uiso   1.00
C1102  C     0.92039   0.71211   0.57186   0.00000  Uiso   1.00
C1103  C     0.94244   0.74966   0.60368   0.00000  Uiso   1.00
C1104  C     0.79577   0.95232   0.38182   0.00000  Uiso   1.00
C1105  C     0.76284   0.92720   0.34887   0.00000  Uiso   1.00
C1106  C     0.83322   0.83327   0.40692   0.00000  Uiso   1.00
C1107  C     0.83347   0.83333   0.59309   0.00000  Uiso   1.00
C1108  C     0.83331   0.83313   0.35520   0.00000  Uiso   1.00
C1109  C     0.83333   0.83319   0.64480   0.00000  Uiso   1.00
C1110  C     0.68686   0.79175   0.50373   0.00000  Uiso   1.00
C1111  C     0.98057   0.87627   0.51451   0.00000  Uiso   1.00
C1112  C     0.97876   0.79452   0.48980   0.00000  Uiso   1.00
Cl1113 Cl    0.70563   0.73676   0.52281   0.00000  Uiso   1.00
Cl1114 Cl    0.95769   0.93054   0.52509   0.00000  Uiso   1.00
Cl1115 Cl    0.95625   0.74887   0.45281   0.00000  Uiso   1.00
Cl1116 Cl    0.71712   0.92596   0.54196   0.00000  Uiso   1.00
Cu1117 Cu    0.83333   0.88022   0.50000   0.00000  Uiso   1.00
Cu1118 Cu    0.83333   0.78645   0.50000   0.00000  Uiso   1.00
H1119  H     0.74003   0.74291   0.44058   0.00000  Uiso   1.00
H1120  H     0.90173   0.89744   0.64755   0.00000  Uiso   1.00
H1121  H     0.93078   0.71416   0.53412   0.00000  Uiso   1.00
H1122  H     0.92984   0.67825   0.58769   0.00000  Uiso   1.00
H1123  H     0.93416   0.74604   0.64247   0.00000  Uiso   1.00
H1124  H     0.97615   0.74614   0.60253   0.00000  Uiso   1.00
H1125  H     0.93362   0.78477   0.59026   0.00000  Uiso   1.00
H1126  H     0.82566   0.93622   0.37736   0.00000  Uiso   1.00
H1127  H     0.79886   0.98818   0.36818   0.00000  Uiso   1.00
H1128  H     0.73265   0.94359   0.35258   0.00000  Uiso   1.00
H1129  H     0.77024   0.92915   0.64305   0.00000  Uiso   1.00
H1130  H     0.73742   0.68097   0.43073   0.00000  Uiso   1.00
H1131  H     0.76049   0.89008   0.35974   0.00000  Uiso   1.00
H1132  H     0.74400   0.69661   0.34036   0.00000  Uiso   1.00
H1133  H     0.70190   0.72746   0.36354   0.00000  Uiso   1.00
H1134  H     0.74932   0.75808   0.35358   0.00000  Uiso   1.00
H1135  H     0.83766   0.94050   0.62416   0.00000  Uiso   1.00
H1136  H     0.86543   0.99431   0.63048   0.00000  Uiso   1.00
H1137  H     0.93072   0.95141   0.65000   0.00000  Uiso   1.00
H1138  H     0.89283   0.94081   0.36039   0.00000  Uiso   1.00
N1139  N     0.83333   0.95069   0.50000   0.00000  Uiso   1.00
N1140  N     0.83333   0.71598   0.50000   0.00000  Uiso   1.00
O1141  O     0.77321   0.87291   0.50000   0.00000  Uiso   1.00
O1142  O     0.87952   0.95100   0.57088   0.00000  Uiso   1.00
O1143  O     0.87760   0.71824   0.57239   0.00000  Uiso   1.00
O1144  O     0.78470   0.94925   0.43119   0.00000  Uiso   1.00
O1145  O     0.89345   0.79375   0.50000   0.00000  Uiso   1.00
O1146  O     0.89345   0.87291   0.50000   0.00000  Uiso   1.00
O1147  O     0.77321   0.79375   0.50000   0.00000  Uiso   1.00
O1148  O     0.83333   0.87292   0.42946   0.00000  Uiso   1.00
O1149  O     0.83333   0.79375   0.57054   0.00000  Uiso   1.00
O1150  O     0.83333   0.87292   0.57054   0.00000  Uiso   1.00
O1151  O     0.83333   0.79375   0.42946   0.00000  Uiso   1.00
O1152  O     0.79467   0.71558   0.42293   0.00000  Uiso   1.00
C1153  C     0.08788   0.16641   0.83816   0.00000  Uiso   1.00
C1154  C     0.02336   0.20842   0.85295   0.00000  Uiso   1.00
C1155  C     0.29106   0.16888   0.83275   0.00000  Uiso   1.00
C1156  C     0.04356   0.16634   0.84438   0.00000  Uiso   1.00
C1157  C     0.14424   0.02468   0.79703   0.00000  Uiso   1.00
C1158  C     0.18829   0.30882   0.87013   0.00000  Uiso   1.00
C1159  C     0.18961   0.02567   0.86894   0.00000  Uiso   1.00
C1160  C     0.14471   0.30784   0.79667   0.00000  Uiso   1.00
C1161  C     0.08464   0.04767   0.75213   0.00000  Uiso   1.00
C1162  C     0.06918   0.05794   0.69912   0.00000  Uiso   1.00
C1163  C     0.20115   0.29071   0.95292   0.00000  Uiso   1.00
C1164  C     0.24601   0.16728   0.83199   0.00000  Uiso   1.00
C1165  C     0.23346   0.26868   0.98825   0.00000  Uiso   1.00
C1166  C     0.25372   0.04544   0.90519   0.00000  Uiso   1.00
C1167  C     0.27577   0.08300   0.93701   0.00000  Uiso   1.00
C1168  C     0.12910   0.28565   0.71515   0.00000  Uiso   1.00
C1169  C     0.09617   0.26054   0.68220   0.00000  Uiso   1.00
C1170  C     0.16656   0.16661   0.74025   0.00000  Uiso   1.00
C1171  C     0.16680   0.16666   0.92642   0.00000  Uiso   1.00
C1172  C     0.16664   0.16646   0.68853   0.00000  Uiso   1.00
C1173  C     0.16666   0.16653   0.97813   0.00000  Uiso   1.00
C1174  C     0.02019   0.12508   0.83706   0.00000  Uiso   1.00
C1175  C     0.31390   0.20961   0.84784   0.00000  Uiso   1.00
C1176  C     0.31209   0.12785   0.82313   0.00000  Uiso   1.00
Cl1177 Cl    0.03896   0.07009   0.85614   0.00000  Uiso   1.00
Cl1178 Cl    0.29103   0.26388   0.85843   0.00000  Uiso   1.00
Cl1179 Cl    0.28959   0.08220   0.78614   0.00000  Uiso   1.00
Cl1180 Cl    0.05046   0.25929   0.87529   0.00000  Uiso   1.00
Cu1181 Cu    0.16667   0.21355   0.83333   0.00000  Uiso   1.00
Cu1182 Cu    0.16667   0.11978   0.83333   0.00000  Uiso   1.00
H1183  H     0.07336   0.07625   0.77391   0.00000  Uiso   1.00
H1184  H     0.23507   0.23078   0.98088   0.00000  Uiso   1.00
H1185  H     0.26411   0.04749   0.86746   0.00000  Uiso   1.00
H1186  H     0.26318   0.01158   0.92103   0.00000  Uiso   1.00
H1187  H     0.26749   0.07937   0.97581   0.00000  Uiso   1.00
H1188  H     0.30948   0.07947   0.93586   0.00000  Uiso   1.00
H1189  H     0.26696   0.11810   0.92359   0.00000  Uiso   1.00
H1190  H     0.15899   0.26955   0.71070   0.00000  Uiso   1.00
H1191  H     0.13219   0.32151   0.70151   0.00000  Uiso   1.00
H1192  H     0.06599   0.27692   0.68592   0.00000  Uiso   1.00
H1193  H     0.10357   0.26249   0.97638   0.00000  Uiso   1.00
H1194  H     0.07075   0.01430   0.76406   0.00000  Uiso   1.00
H1195  H     0.09382   0.22341   0.69307   0.00000  Uiso   1.00
H1196  H     0.07733   0.02994   0.67369   0.00000  Uiso   1.00
H1197  H     0.03523   0.06079   0.69687   0.00000  Uiso   1.00
H1198  H     0.08265   0.09142   0.68691   0.00000  Uiso   1.00
H1199  H     0.17100   0.27384   0.95749   0.00000  Uiso   1.00
H1200  H     0.19876   0.32764   0.96381   0.00000  Uiso   1.00
H1201  H     0.26406   0.28474   0.98333   0.00000  Uiso   1.00
H1202  H     0.22616   0.27415   0.69372   0.00000  Uiso   1.00
N1203  N     0.16667   0.28402   0.83333   0.00000  Uiso   1.00
N1204  N     0.16667   0.04931   0.83333   0.00000  Uiso   1.00
O1205  O     0.10655   0.20625   0.83333   0.00000  Uiso   1.00
O1206  O     0.21285   0.28434   0.90421   0.00000  Uiso   1.00
O1207  O     0.21093   0.05157   0.90572   0.00000  Uiso   1.00
O1208  O     0.11803   0.28258   0.76453   0.00000  Uiso   1.00
O1209  O     0.22679   0.12709   0.83334   0.00000  Uiso   1.00
O1210  O     0.22679   0.20625   0.83334   0.00000  Uiso   1.00
O1211  O     0.10655   0.12709   0.83333   0.00000  Uiso   1.00
O1212  O     0.16667   0.20625   0.76280   0.00000  Uiso   1.00
O1213  O     0.16667   0.12708   0.90387   0.00000  Uiso   1.00
O1214  O     0.16667   0.20625   0.90387   0.00000  Uiso   1.00
O1215  O     0.16667   0.12708   0.76280   0.00000  Uiso   1.00
O1216  O     0.12800   0.04892   0.75627   0.00000  Uiso   1.00
C1217  C     0.42121   0.16641   0.83816   0.00000  Uiso   1.00
C1218  C     0.35669   0.20842   0.85295   0.00000  Uiso   1.00
C1219  C     0.62440   0.16888   0.83275   0.00000  Uiso   1.00
C1220  C     0.37689   0.16634   0.84438   0.00000  Uiso   1.00
C1221  C     0.47757   0.02468   0.79703   0.00000  Uiso   1.00
C1222  C     0.52162   0.30882   0.87013   0.00000  Uiso   1.00
C1223  C     0.52294   0.02567   0.86894   0.00000  Uiso   1.00
C1224  C     0.47804   0.30784   0.79667   0.00000  Uiso   1.00
C1225  C     0.41797   0.04767   0.75213   0.00000  Uiso   1.00
C1226  C     0.40251   0.05794   0.69912   0.00000  Uiso   1.00
C1227  C     0.53448   0.29071   0.95292   0.00000  Uiso   1.00
C1228  C     0.57934   0.16728   0.83199   0.00000  Uiso   1.00
C1229  C     0.56680   0.26868   0.98825   0.00000  Uiso   1.00
C1230  C     0.58706   0.04544   0.90519   0.00000  Uiso   1.00
C1231  C     0.60910   0.08300   0.93701   0.00000  Uiso   1.00
C1232  C     0.46243   0.28565   0.71515   0.00000  Uiso   1.00
C1233  C     0.42951   0.26054   0.68220   0.00000  Uiso   1.00
C1234  C     0.49989   0.16661   0.74025   0.00000  Uiso   1.00
C1235  C     0.50013   0.16666   0.92642   0.00000  Uiso   1.00
C1236  C     0.49997   0.16646   0.68853   0.00000  Uiso   1.00
C1237  C     0.49999   0.16653   0.97813   0.00000  Uiso   1.00
C1238  C     0.35353   0.12508   0.83706   0.00000  Uiso   1.00
C1239  C     0.64723   0.20961   0.84784   0.00000  Uiso   1.00
C1240  C     0.64542   0.12785   0.82313   0.00000  Uiso   1.00
Cl1241 Cl    0.37229   0.07009   0.85614   0.00000  Uiso   1.00
Cl1242 Cl    0.62436   0.26388   0.85843   0.00000  Uiso   1.00
Cl1243 Cl    0.62292   0.08220   0.78614   0.00000  Uiso   1.00
Cl1244 Cl    0.38379   0.25929   0.87529   0.00000  Uiso   1.00
Cu1245 Cu    0.50000   0.21355   0.83333   0.00000  Uiso   1.00
Cu1246 Cu    0.50000   0.11978   0.83333   0.00000  Uiso   1.00
H1247  H     0.40670   0.07625   0.77391   0.00000  Uiso   1.00
H1248  H     0.56840   0.23078   0.98088   0.00000  Uiso   1.00
H1249  H     0.59745   0.04749   0.86746   0.00000  Uiso   1.00
H1250  H     0.59651   0.01158   0.92103   0.00000  Uiso   1.00
H1251  H     0.60082   0.07937   0.97581   0.00000  Uiso   1.00
H1252  H     0.64281   0.07947   0.93586   0.00000  Uiso   1.00
H1253  H     0.60029   0.11810   0.92359   0.00000  Uiso   1.00
H1254  H     0.49233   0.26955   0.71070   0.00000  Uiso   1.00
H1255  H     0.46553   0.32151   0.70151   0.00000  Uiso   1.00
H1256  H     0.39932   0.27692   0.68592   0.00000  Uiso   1.00
H1257  H     0.43691   0.26249   0.97638   0.00000  Uiso   1.00
H1258  H     0.40409   0.01430   0.76406   0.00000  Uiso   1.00
H1259  H     0.42716   0.22341   0.69307   0.00000  Uiso   1.00
H1260  H     0.41067   0.02994   0.67369   0.00000  Uiso   1.00
H1261  H     0.36857   0.06079   0.69687   0.00000  Uiso   1.00
H1262  H     0.41598   0.09142   0.68691   0.00000  Uiso   1.00
H1263  H     0.50433   0.27384   0.95749   0.00000  Uiso   1.00
H1264  H     0.53210   0.32764   0.96381   0.00000  Uiso   1.00
H1265  H     0.59739   0.28474   0.98333   0.00000  Uiso   1.00
H1266  H     0.55950   0.27415   0.69372   0.00000  Uiso   1.00
N1267  N     0.50000   0.28402   0.83333   0.00000  Uiso   1.00
N1268  N     0.50000   0.04931   0.83333   0.00000  Uiso   1.00
O1269  O     0.43988   0.20625   0.83333   0.00000  Uiso   1.00
O1270  O     0.54618   0.28434   0.90421   0.00000  Uiso   1.00
O1271  O     0.54427   0.05157   0.90572   0.00000  Uiso   1.00
O1272  O     0.45137   0.28258   0.76453   0.00000  Uiso   1.00
O1273  O     0.56012   0.12709   0.83334   0.00000  Uiso   1.00
O1274  O     0.56012   0.20625   0.83334   0.00000  Uiso   1.00
O1275  O     0.43988   0.12709   0.83333   0.00000  Uiso   1.00
O1276  O     0.50000   0.20625   0.76280   0.00000  Uiso   1.00
O1277  O     0.50000   0.12708   0.90387   0.00000  Uiso   1.00
O1278  O     0.50000   0.20625   0.90387   0.00000  Uiso   1.00
O1279  O     0.50000   0.12708   0.76280   0.00000  Uiso   1.00
O1280  O     0.46134   0.04892   0.75627   0.00000  Uiso   1.00
C1281  C     0.75454   0.16641   0.83816   0.00000  Uiso   1.00
C1282  C     0.69003   0.20842   0.85295   0.00000  Uiso   1.00
C1283  C     0.95773   0.16888   0.83275   0.00000  Uiso   1.00
C1284  C     0.71022   0.16634   0.84438   0.00000  Uiso   1.00
C1285  C     0.81091   0.02468   0.79703   0.00000  Uiso   1.00
C1286  C     0.85495   0.30882   0.87013   0.00000  Uiso   1.00
C1287  C     0.85627   0.02567   0.86894   0.00000  Uiso   1.00
C1288  C     0.81137   0.30784   0.79667   0.00000  Uiso   1.00
C1289  C     0.75130   0.04767   0.75213   0.00000  Uiso   1.00
C1290  C     0.73585   0.05794   0.69912   0.00000  Uiso   1.00
C1291  C     0.86781   0.29071   0.95292   0.00000  Uiso   1.00
C1292  C     0.91268   0.16728   0.83199   0.00000  Uiso   1.00
C1293  C     0.90013   0.26868   0.98825   0.00000  Uiso   1.00
C1294  C     0.92039   0.04544   0.90519   0.00000  Uiso   1.00
C1295  C     0.94244   0.08300   0.93701   0.00000  Uiso   1.00
C1296  C     0.79577   0.28565   0.71515   0.00000  Uiso   1.00
C1297  C     0.76284   0.26054   0.68220   0.00000  Uiso   1.00
C1298  C     0.83322   0.16661   0.74025   0.00000  Uiso   1.00
C1299  C     0.83347   0.16666   0.92642   0.00000  Uiso   1.00
C1300  C     0.83331   0.16646   0.68853   0.00000  Uiso   1.00
C1301  C     0.83333   0.16653   0.97813   0.00000  Uiso   1.00
C1302  C     0.68686   0.12508   0.83706   0.00000  Uiso   1.00
C1303  C     0.98057   0.20961   0.84784   0.00000  Uiso   1.00
C1304  C     0.97876   0.12785   0.82313   0.00000  Uiso   1.00
Cl1305 Cl    0.70563   0.07009   0.85614   0.00000  Uiso   1.00
Cl1306 Cl    0.95769   0.26388   0.85843   0.00000  Uiso   1.00
Cl1307 Cl    0.95625   0.08220   0.78614   0.00000  Uiso   1.00
Cl1308 Cl    0.71712   0.25929   0.87529   0.00000  Uiso   1.00
Cu1309 Cu    0.83333   0.21355   0.83333   0.00000  Uiso   1.00
Cu1310 Cu    0.83333   0.11978   0.83333   0.00000  Uiso   1.00
H1311  H     0.74003   0.07625   0.77391   0.00000  Uiso   1.00
H1312  H     0.90173   0.23078   0.98088   0.00000  Uiso   1.00
H1313  H     0.93078   0.04749   0.86746   0.00000  Uiso   1.00
H1314  H     0.92984   0.01158   0.92103   0.00000  Uiso   1.00
H1315  H     0.93416   0.07937   0.97581   0.00000  Uiso   1.00
H1316  H     0.97615   0.07947   0.93586   0.00000  Uiso   1.00
H1317  H     0.93362   0.11810   0.92359   0.00000  Uiso   1.00
H1318  H     0.82566   0.26955   0.71070   0.00000  Uiso   1.00
H1319  H     0.79886   0.32151   0.70151   0.00000  Uiso   1.00
H1320  H     0.73265   0.27692   0.68592   0.00000  Uiso   1.00
H1321  H     0.77024   0.26249   0.97638   0.00000  Uiso   1.00
H1322  H     0.73742   0.01430   0.76406   0.00000  Uiso   1.00
H1323  H     0.76049   0.22341   0.69307   0.00000  Uiso   1.00
H1324  H     0.74400   0.02994   0.67369   0.00000  Uiso   1.00
H1325  H     0.70190   0.06079   0.69687   0.00000  Uiso   1.00
H1326  H     0.74932   0.09142   0.68691   0.00000  Uiso   1.00
H1327  H     0.83766   0.27384   0.95749   0.00000  Uiso   1.00
H1328  H     0.86543   0.32764   0.96381   0.00000  Uiso   1.00
H1329  H     0.93072   0.28474   0.98333   0.00000  Uiso   1.00
H1330  H     0.89283   0.27415   0.69372   0.00000  Uiso   1.00
N1331  N     0.83333   0.28402   0.83333   0.00000  Uiso   1.00
N1332  N     0.83333   0.04931   0.83333   0.00000  Uiso   1.00
O1333  O     0.77321   0.20625   0.83333   0.00000  Uiso   1.00
O1334  O     0.87952   0.28434   0.90421   0.00000  Uiso   1.00
O1335  O     0.87760   0.05157   0.90572   0.00000  Uiso   1.00
O1336  O     0.78470   0.28258   0.76453   0.00000  Uiso   1.00
O1337  O     0.89345   0.12709   0.83334   0.00000  Uiso   1.00
O1338  O     0.89345   0.20625   0.83334   0.00000  Uiso   1.00
O1339  O     0.77321   0.12709   0.83333   0.00000  Uiso   1.00
O1340  O     0.83333   0.20625   0.76280   0.00000  Uiso   1.00
O1341  O     0.83333   0.12708   0.90387   0.00000  Uiso   1.00
O1342  O     0.83333   0.20625   0.90387   0.00000  Uiso   1.00
O1343  O     0.83333   0.12708   0.76280   0.00000  Uiso   1.00
O1344  O     0.79467   0.04892   0.75627   0.00000  Uiso   1.00
C1345  C     0.08788   0.49974   0.83816   0.00000  Uiso   1.00
C1346  C     0.02336   0.54176   0.85295   0.00000  Uiso   1.00
C1347  C     0.29106   0.50221   0.83275   0.00000  Uiso   1.00
C1348  C     0.04356   0.49967   0.84438   0.00000  Uiso   1.00
C1349  C     0.14424   0.35801   0.79703   0.00000  Uiso   1.00
C1350  C     0.18829   0.64216   0.87013   0.00000  Uiso   1.00
C1351  C     0.18961   0.35900   0.86894   0.00000  Uiso   1.00
C1352  C     0.14471   0.64117   0.79667   0.00000  Uiso   1.00
C1353  C     0.08464   0.38100   0.75213   0.00000  Uiso   1.00
C1354  C     0.06918   0.39128   0.69912   0.00000  Uiso   1.00
C1355  C     0.20115   0.62405   0.95292   0.00000  Uiso   1.00
C1356  C     0.24601   0.50062   0.83199   0.00000  Uiso   1.00
C1357  C     0.23346   0.60201   0.98825   0.00000  Uiso   1.00
C1358  C     0.25372   0.37878   0.90519   0.00000  Uiso   1.00
C1359  C     0.27577   0.41633   0.93701   0.00000  Uiso   1.00
C1360  C     0.12910   0.61898   0.71515   0.00000  Uiso   1.00
C1361  C     0.09617   0.59387   0.68220   0.00000  Uiso   1.00
C1362  C     0.16656   0.49994   0.74025   0.00000  Uiso   1.00
C1363  C     0.16680   0.49999   0.92642   0.00000  Uiso   1.00
C1364  C     0.16664   0.49979   0.68853   0.00000  Uiso   1.00
C1365  C     0.16666   0.49986   0.97813   0.00000  Uiso   1.00
C1366  C     0.02019   0.45842   0.83706   0.00000  Uiso   1.00
C1367  C     0.31390   0.54294   0.84784   0.00000  Uiso   1.00
C1368  C     0.31209   0.46119   0.82313   0.00000  Uiso   1.00
Cl1369 Cl    0.03896   0.40343   0.85614   0.00000  Uiso   1.00
Cl1370 Cl    0.29103   0.59721   0.85843   0.00000  Uiso   1.00
Cl1371 Cl    0.28959   0.41554   0.78614   0.00000  Uiso   1.00
Cl1372 Cl    0.05046   0.59263   0.87529   0.00000  Uiso   1.00
Cu1373 Cu    0.16667   0.54689   0.83333   0.00000  Uiso   1.00
Cu1374 Cu    0.16667   0.45311   0.83333   0.00000  Uiso   1.00
H1375  H     0.07336   0.40958   0.77391   0.00000  Uiso   1.00
H1376  H     0.23507   0.56411   0.98088   0.00000  Uiso   1.00
H1377  H     0.26411   0.38082   0.86746   0.00000  Uiso   1.00
H1378  H     0.26318   0.34491   0.92103   0.00000  Uiso   1.00
H1379  H     0.26749   0.41270   0.97581   0.00000  Uiso   1.00
H1380  H     0.30948   0.41281   0.93586   0.00000  Uiso   1.00
H1381  H     0.26696   0.45143   0.92359   0.00000  Uiso   1.00
H1382  H     0.15899   0.60288   0.71070   0.00000  Uiso   1.00
H1383  H     0.13219   0.65485   0.70151   0.00000  Uiso   1.00
H1384  H     0.06599   0.61026   0.68592   0.00000  Uiso   1.00
H1385  H     0.10357   0.59582   0.97638   0.00000  Uiso   1.00
H1386  H     0.07075   0.34764   0.76406   0.00000  Uiso   1.00
H1387  H     0.09382   0.55674   0.69307   0.00000  Uiso   1.00
H1388  H     0.07733   0.36328   0.67369   0.00000  Uiso   1.00
H1389  H     0.03523   0.39412   0.69687   0.00000  Uiso   1.00
H1390  H     0.08265   0.42475   0.68691   0.00000  Uiso   1.00
H1391  H     0.17100   0.60717   0.95749   0.00000  Uiso   1.00
H1392  H     0.19876   0.66098   0.96381   0.00000  Uiso   1.00
H1393  H     0.26406   0.61808   0.98333   0.00000  Uiso   1.00
H1394  H     0.22616   0.60748   0.69372   0.00000  Uiso   1.00
N1395  N     0.16667   0.61736   0.83333   0.00000  Uiso   1.00
N1396  N     0.16667   0.38264   0.83333   0.00000  Uiso   1.00
O1397  O     0.10655   0.53958   0.83333   0.00000  Uiso   1.00
O1398  O     0.21285   0.61767   0.90421   0.00000  Uiso   1.00
O1399  O     0.21093   0.38490   0.90572   0.00000  Uiso   1.00
O1400  O     0.11803   0.61591   0.76453   0.00000  Uiso   1.00
O1401  O     0.22679   0.46042   0.83334   0.00000  Uiso   1.00
O1402  O     0.22679   0.53958   0.83334   0.00000  Uiso   1.00
O1403  O     0.10655   0.46042   0.83333   0.00000  Uiso   1.00
O1404  O     0.16667   0.53959   0.76280   0.00000  Uiso   1.00
O1405  O     0.16667   0.46041   0.90387   0.00000  Uiso   1.00
O1406  O     0.16667   0.53959   0.90387   0.00000  Uiso   1.00
O1407  O     0.16667   0.46041   0.76280   0.00000  Uiso   1.00
O1408  O     0.12800   0.38225   0.75627   0.00000  Uiso   1.00
C1409  C     0.42121   0.49974   0.83816   0.00000  Uiso   1.00
C1410  C     0.35669   0.54176   0.85295   0.00000  Uiso   1.00
C1411  C     0.62440   0.50221   0.83275   0.00000  Uiso   1.00
C1412  C     0.37689   0.49967   0.84438   0.00000  Uiso   1.00
C1413  C     0.47757   0.35801   0.79703   0.00000  Uiso   1.00
C1414  C     0.52162   0.64216   0.87013   0.00000  Uiso   1.00
C1415  C     0.52294   0.35900   0.86894   0.00000  Uiso   1.00
C1416  C     0.47804   0.64117   0.79667   0.00000  Uiso   1.00
C1417  C     0.41797   0.38100   0.75213   0.00000  Uiso   1.00
C1418  C     0.40251   0.39128   0.69912   0.00000  Uiso   1.00
C1419  C     0.53448   0.62405   0.95292   0.00000  Uiso   1.00
C1420  C     0.57934   0.50062   0.83199   0.00000  Uiso   1.00
C1421  C     0.56680   0.60201   0.98825   0.00000  Uiso   1.00
C1422  C     0.58706   0.37878   0.90519   0.00000  Uiso   1.00
C1423  C     0.60910   0.41633   0.93701   0.00000  Uiso   1.00
C1424  C     0.46243   0.61898   0.71515   0.00000  Uiso   1.00
C1425  C     0.42951   0.59387   0.68220   0.00000  Uiso   1.00
C1426  C     0.49989   0.49994   0.74025   0.00000  Uiso   1.00
C1427  C     0.50013   0.49999   0.92642   0.00000  Uiso   1.00
C1428  C     0.49997   0.49979   0.68853   0.00000  Uiso   1.00
C1429  C     0.49999   0.49986   0.97813   0.00000  Uiso   1.00
C1430  C     0.35353   0.45842   0.83706   0.00000  Uiso   1.00
C1431  C     0.64723   0.54294   0.84784   0.00000  Uiso   1.00
C1432  C     0.64542   0.46119   0.82313   0.00000  Uiso   1.00
Cl1433 Cl    0.37229   0.40343   0.85614   0.00000  Uiso   1.00
Cl1434 Cl    0.62436   0.59721   0.85843   0.00000  Uiso   1.00
Cl1435 Cl    0.62292   0.41554   0.78614   0.00000  Uiso   1.00
Cl1436 Cl    0.38379   0.59263   0.87529   0.00000  Uiso   1.00
Cu1437 Cu    0.50000   0.54689   0.83333   0.00000  Uiso   1.00
Cu1438 Cu    0.50000   0.45311   0.83333   0.00000  Uiso   1.00
H1439  H     0.40670   0.40958   0.77391   0.00000  Uiso   1.00
H1440  H     0.56840   0.56411   0.98088   0.00000  Uiso   1.00
H1441  H     0.59745   0.38082   0.86746   0.00000  Uiso   1.00
H1442  H     0.59651   0.34491   0.92103   0.00000  Uiso   1.00
H1443  H     0.60082   0.41270   0.97581   0.00000  Uiso   1.00
H1444  H     0.64281   0.41281   0.93586   0.00000  Uiso   1.00
H1445  H     0.60029   0.45143   0.92359   0.00000  Uiso   1.00
H1446  H     0.49233   0.60288   0.71070   0.00000  Uiso   1.00
H1447  H     0.46553   0.65485   0.70151   0.00000  Uiso   1.00
H1448  H     0.39932   0.61026   0.68592   0.00000  Uiso   1.00
H1449  H     0.43691   0.59582   0.97638   0.00000  Uiso   1.00
H1450  H     0.40409   0.34764   0.76406   0.00000  Uiso   1.00
H1451  H     0.42716   0.55674   0.69307   0.00000  Uiso   1.00
H1452  H     0.41067   0.36328   0.67369   0.00000  Uiso   1.00
H1453  H     0.36857   0.39412   0.69687   0.00000  Uiso   1.00
H1454  H     0.41598   0.42475   0.68691   0.00000  Uiso   1.00
H1455  H     0.50433   0.60717   0.95749   0.00000  Uiso   1.00
H1456  H     0.53210   0.66098   0.96381   0.00000  Uiso   1.00
H1457  H     0.59739   0.61808   0.98333   0.00000  Uiso   1.00
H1458  H     0.55950   0.60748   0.69372   0.00000  Uiso   1.00
N1459  N     0.50000   0.61736   0.83333   0.00000  Uiso   1.00
N1460  N     0.50000   0.38264   0.83333   0.00000  Uiso   1.00
O1461  O     0.43988   0.53958   0.83333   0.00000  Uiso   1.00
O1462  O     0.54618   0.61767   0.90421   0.00000  Uiso   1.00
O1463  O     0.54427   0.38490   0.90572   0.00000  Uiso   1.00
O1464  O     0.45137   0.61591   0.76453   0.00000  Uiso   1.00
O1465  O     0.56012   0.46042   0.83334   0.00000  Uiso   1.00
O1466  O     0.56012   0.53958   0.83334   0.00000  Uiso   1.00
O1467  O     0.43988   0.46042   0.83333   0.00000  Uiso   1.00
O1468  O     0.50000   0.53959   0.76280   0.00000  Uiso   1.00
O1469  O     0.50000   0.46041   0.90387   0.00000  Uiso   1.00
O1470  O     0.50000   0.53959   0.90387   0.00000  Uiso   1.00
O1471  O     0.50000   0.46041   0.76280   0.00000  Uiso   1.00
O1472  O     0.46134   0.38225   0.75627   0.00000  Uiso   1.00
C1473  C     0.75454   0.49974   0.83816   0.00000  Uiso   1.00
C1474  C     0.69003   0.54176   0.85295   0.00000  Uiso   1.00
C1475  C     0.95773   0.50221   0.83275   0.00000  Uiso   1.00
C1476  C     0.71022   0.49967   0.84438   0.00000  Uiso   1.00
C1477  C     0.81091   0.35801   0.79703   0.00000  Uiso   1.00
C1478  C     0.85495   0.64216   0.87013   0.00000  Uiso   1.00
C1479  C     0.85627   0.35900   0.86894   0.00000  Uiso   1.00
C1480  C     0.81137   0.64117   0.79667   0.00000  Uiso   1.00
C1481  C     0.75130   0.38100   0.75213   0.00000  Uiso   1.00
C1482  C     0.73585   0.39128   0.69912   0.00000  Uiso   1.00
C1483  C     0.86781   0.62405   0.95292   0.00000  Uiso   1.00
C1484  C     0.91268   0.50062   0.83199   0.00000  Uiso   1.00
C1485  C     0.90013   0.60201   0.98825   0.00000  Uiso   1.00
C1486  C     0.92039   0.37878   0.90519   0.00000  Uiso   1.00
C1487  C     0.94244   0.41633   0.93701   0.00000  Uiso   1.00
C1488  C     0.79577   0.61898   0.71515   0.00000  Uiso   1.00
C1489  C     0.76284   0.59387   0.68220   0.00000  Uiso   1.00
C1490  C     0.83322   0.49994   0.74025   0.00000  Uiso   1.00
C1491  C     0.83347   0.49999   0.92642   0.00000  Uiso   1.00
C1492  C     0.83331   0.49979   0.68853   0.00000  Uiso   1.00
C1493  C     0.83333   0.49986   0.97813   0.00000  Uiso   1.00
C1494  C     0.68686   0.45842   0.83706   0.00000  Uiso   1.00
C1495  C     0.98057   0.54294   0.84784   0.00000  Uiso   1.00
C1496  C     0.97876   0.46119   0.82313   0.00000  Uiso   1.00
Cl1497 Cl    0.70563   0.40343   0.85614   0.00000  Uiso   1.00
Cl1498 Cl    0.95769   0.59721   0.85843   0.00000  Uiso   1.00
Cl1499 Cl    0.95625   0.41554   0.78614   0.00000  Uiso   1.00
Cl1500 Cl    0.71712   0.59263   0.87529   0.00000  Uiso   1.00
Cu1501 Cu    0.83333   0.54689   0.83333   0.00000  Uiso   1.00
Cu1502 Cu    0.83333   0.45311   0.83333   0.00000  Uiso   1.00
H1503  H     0.74003   0.40958   0.77391   0.00000  Uiso   1.00
H1504  H     0.90173   0.56411   0.98088   0.00000  Uiso   1.00
H1505  H     0.93078   0.38082   0.86746   0.00000  Uiso   1.00
H1506  H     0.92984   0.34491   0.92103   0.00000  Uiso   1.00
H1507  H     0.93416   0.41270   0.97581   0.00000  Uiso   1.00
H1508  H     0.97615   0.41281   0.93586   0.00000  Uiso   1.00
H1509  H     0.93362   0.45143   0.92359   0.00000  Uiso   1.00
H1510  H     0.82566   0.60288   0.71070   0.00000  Uiso   1.00
H1511  H     0.79886   0.65485   0.70151   0.00000  Uiso   1.00
H1512  H     0.73265   0.61026   0.68592   0.00000  Uiso   1.00
H1513  H     0.77024   0.59582   0.97638   0.00000  Uiso   1.00
H1514  H     0.73742   0.34764   0.76406   0.00000  Uiso   1.00
H1515  H     0.76049   0.55674   0.69307   0.00000  Uiso   1.00
H1516  H     0.74400   0.36328   0.67369   0.00000  Uiso   1.00
H1517  H     0.70190   0.39412   0.69687   0.00000  Uiso   1.00
H1518  H     0.74932   0.42475   0.68691   0.00000  Uiso   1.00
H1519  H     0.83766   0.60717   0.95749   0.00000  Uiso   1.00
H1520  H     0.86543   0.66098   0.96381   0.00000  Uiso   1.00
H1521  H     0.93072   0.61808   0.98333   0.00000  Uiso   1.00
H1522  H     0.89283   0.60748   0.69372   0.00000  Uiso   1.00
N1523  N     0.83333   0.61736   0.83333   0.00000  Uiso   1.00
N1524  N     0.83333   0.38264   0.83333   0.00000  Uiso   1.00
O1525  O     0.77321   0.53958   0.83333   0.00000  Uiso   1.00
O1526  O     0.87952   0.61767   0.90421   0.00000  Uiso   1.00
O1527  O     0.87760   0.38490   0.90572   0.00000  Uiso   1.00
O1528  O     0.78470   0.61591   0.76453   0.00000  Uiso   1.00
O1529  O     0.89345   0.46042   0.83334   0.00000  Uiso   1.00
O1530  O     0.89345   0.53958   0.83334   0.00000  Uiso   1.00
O1531  O     0.77321   0.46042   0.83333   0.00000  Uiso   1.00
O1532  O     0.83333   0.53959   0.76280   0.00000  Uiso   1.00
O1533  O     0.83333   0.46041   0.90387   0.00000  Uiso   1.00
O1534  O     0.83333   0.53959   0.90387   0.00000  Uiso   1.00
O1535  O     0.83333   0.46041   0.76280   0.00000  Uiso   1.00
O1536  O     0.79467   0.38225   0.75627   0.00000  Uiso   1.00
C1537  C     0.08788   0.83307   0.83816   0.00000  Uiso   1.00
C1538  C     0.02336   0.87509   0.85295   0.00000  Uiso   1.00
C1539  C     0.29106   0.83555   0.83275   0.00000  Uiso   1.00
C1540  C     0.04356   0.83301   0.84438   0.00000  Uiso   1.00
C1541  C     0.14424   0.69134   0.79703   0.00000  Uiso   1.00
C1542  C     0.18829   0.97549   0.87013   0.00000  Uiso   1.00
C1543  C     0.18961   0.69233   0.86894   0.00000  Uiso   1.00
C1544  C     0.14471   0.97450   0.79667   0.00000  Uiso   1.00
C1545  C     0.08464   0.71434   0.75213   0.00000  Uiso   1.00
C1546  C     0.06918   0.72461   0.69912   0.00000  Uiso   1.00
C1547  C     0.20115   0.95738   0.95292   0.00000  Uiso   1.00
C1548  C     0.24601   0.83395   0.83199   0.00000  Uiso   1.00
C1549  C     0.23346   0.93534   0.98825   0.00000  Uiso   1.00
C1550  C     0.25372   0.71211   0.90519   0.00000  Uiso   1.00
C1551  C     0.27577   0.74966   0.93701   0.00000  Uiso   1.00
C1552  C     0.12910   0.95232   0.71515   0.00000  Uiso   1.00
C1553  C     0.09617   0.92720   0.68220   0.00000  Uiso   1.00
C1554  C     0.16656   0.83327   0.74025   0.00000  Uiso   1.00
C1555  C     0.16680   0.83333   0.92642   0.00000  Uiso   1.00
C1556  C     0.16664   0.83313   0.68853   0.00000  Uiso   1.00
C1557  C     0.16666   0.83319   0.97813   0.00000  Uiso   1.00
C1558  C     0.02019   0.79175   0.83706   0.00000  Uiso   1.00
C1559  C     0.31390   0.87627   0.84784   0.00000  Uiso   1.00
C1560  C     0.31209   0.79452   0.82313   0.00000  Uiso   1.00
Cl1561 Cl    0.03896   0.73676   0.85614   0.00000  Uiso   1.00
Cl1562 Cl    0.29103   0.93054   0.85843   0.00000  Uiso   1.00
Cl1563 Cl    0.28959   0.74887   0.78614   0.00000  Uiso   1.00
Cl1564 Cl    0.05046   0.92596   0.87529   0.00000  Uiso   1.00
Cu1565 Cu    0.16667   0.88022   0.83333   0.00000  Uiso   1.00
Cu1566 Cu    0.16667   0.78645   0.83333   0.00000  Uiso   1.00
H1567  H     0.07336   0.74291   0.77391   0.00000  Uiso   1.00
H1568  H     0.23507   0.89744   0.98088   0.00000  Uiso   1.00
H1569  H     0.26411   0.71416   0.86746   0.00000  Uiso   1.00
H1570  H     0.26318   0.67825   0.92103   0.00000  Uiso   1.00
H1571  H     0.26749   0.74604   0.97581   0.00000  Uiso   1.00
H1572  H     0.30948   0.74614   0.93586   0.00000  Uiso   1.00
H1573  H     0.26696   0.78477   0.92359   0.00000  Uiso   1.00
H1574  H     0.15899   0.93622   0.71070   0.00000  Uiso   1.00
H1575  H     0.13219   0.98818   0.70151   0.00000  Uiso   1.00
H1576  H     0.06599   0.94359   0.68592   0.00000  Uiso   1.00
H1577  H     0.10357   0.92915   0.97638   0.00000  Uiso   1.00
H1578  H     0.07075   0.68097   0.76406   0.00000  Uiso   1.00
H1579  H     0.09382   0.89008   0.69307   0.00000  Uiso   1.00
H1580  H     0.07733   0.69661   0.67369   0.00000  Uiso   1.00
H1581  H     0.03523   0.72746   0.69687   0.00000  Uiso   1.00
H1582  H     0.08265   0.75808   0.68691   0.00000  Uiso   1.00
H1583  H     0.17100   0.94050   0.95749   0.00000  Uiso   1.00
H1584  H     0.19876   0.99431   0.96381   0.00000  Uiso   1.00
H1585  H     0.26406   0.95141   0.98333   0.00000  Uiso   1.00
H1586  H     0.22616   0.94081   0.69372   0.00000  Uiso   1.00
N1587  N     0.16667   0.95069   0.83333   0.00000  Uiso   1.00
N1588  N     0.16667   0.71598   0.83333   0.00000  Uiso   1.00
O1589  O     0.10655   0.87291   0.83333   0.00000  Uiso   1.00
O1590  O     0.21285   0.95100   0.90421   0.00000  Uiso   1.00
O1591  O     0.21093   0.71824   0.90572   0.00000  Uiso   1.00
O1592  O     0.11803   0.94925   0.76453   0.00000  Uiso   1.00
O1593  O     0.22679   0.79375   0.83334   0.00000  Uiso   1.00
O1594  O     0.22679   0.87291   0.83334   0.00000  Uiso   1.00
O1595  O     0.10655   0.79375   0.83333   0.00000  Uiso   1.00
O1596  O     0.16667   0.87292   0.76280   0.00000  Uiso   1.00
O1597  O     0.16667   0.79375   0.90387   0.00000  Uiso   1.00
O1598  O     0.16667   0.87292   0.90387   0.00000  Uiso   1.00
O1599  O     0.16667   0.79375   0.76280   0.00000  Uiso   1.00
O1600  O     0.12800   0.71558   0.75627   0.00000  Uiso   1.00
C1601  C     0.42121   0.83307   0.83816   0.00000  Uiso   1.00
C1602  C     0.35669   0.87509   0.85295   0.00000  Uiso   1.00
C1603  C     0.62440   0.83555   0.83275   0.00000  Uiso   1.00
C1604  C     0.37689   0.83301   0.84438   0.00000  Uiso   1.00
C1605  C     0.47757   0.69134   0.79703   0.00000  Uiso   1.00
C1606  C     0.52162   0.97549   0.87013   0.00000  Uiso   1.00
C1607  C     0.52294   0.69233   0.86894   0.00000  Uiso   1.00
C1608  C     0.47804   0.97450   0.79667   0.00000  Uiso   1.00
C1609  C     0.41797   0.71434   0.75213   0.00000  Uiso   1.00
C1610  C     0.40251   0.72461   0.69912   0.00000  Uiso   1.00
C1611  C     0.53448   0.95738   0.95292   0.00000  Uiso   1.00
C1612  C     0.57934   0.83395   0.83199   0.00000  Uiso   1.00
C1613  C     0.56680   0.93534   0.98825   0.00000  Uiso   1.00
C1614  C     0.58706   0.71211   0.90519   0.00000  Uiso   1.00
C1615  C     0.60910   0.74966   0.93701   0.00000  Uiso   1.00
C1616  C     0.46243   0.95232   0.71515   0.00000  Uiso   1.00
C1617  C     0.42951   0.92720   0.68220   0.00000  Uiso   1.00
C1618  C     0.49989   0.83327   0.74025   0.00000  Uiso   1.00
C1619  C     0.50013   0.83333   0.92642   0.00000  Uiso   1.00
C1620  C     0.49997   0.83313   0.68853   0.00000  Uiso   1.00
C1621  C     0.49999   0.83319   0.97813   0.00000  Uiso   1.00
C1622  C     0.35353   0.79175   0.83706   0.00000  Uiso   1.00
C1623  C     0.64723   0.87627   0.84784   0.00000  Uiso   1.00
C1624  C     0.64542   0.79452   0.82313   0.00000  Uiso   1.00
Cl1625 Cl    0.37229   0.73676   0.85614   0.00000  Uiso   1.00
Cl1626 Cl    0.62436   0.93054   0.85843   0.00000  Uiso   1.00
Cl1627 Cl    0.62292   0.74887   0.78614   0.00000  Uiso   1.00
Cl1628 Cl    0.38379   0.92596   0.87529   0.00000  Uiso   1.00
Cu1629 Cu    0.50000   0.88022   0.83333   0.00000  Uiso   1.00
Cu1630 Cu    0.50000   0.78645   0.83333   0.00000  Uiso   1.00
H1631  H     0.40670   0.74291   0.77391   0.00000  Uiso   1.00
H1632  H     0.56840   0.89744   0.98088   0.00000  Uiso   1.00
H1633  H     0.59745   0.71416   0.86746   0.00000  Uiso   1.00
H1634  H     0.59651   0.67825   0.92103   0.00000  Uiso   1.00
H1635  H     0.60082   0.74604   0.97581   0.00000  Uiso   1.00
H1636  H     0.64281   0.74614   0.93586   0.00000  Uiso   1.00
H1637  H     0.60029   0.78477   0.92359   0.00000  Uiso   1.00
H1638  H     0.49233   0.93622   0.71070   0.00000  Uiso   1.00
H1639  H     0.46553   0.98818   0.70151   0.00000  Uiso   1.00
H1640  H     0.39932   0.94359   0.68592   0.00000  Uiso   1.00
H1641  H     0.43691   0.92915   0.97638   0.00000  Uiso   1.00
H1642  H     0.40409   0.68097   0.76406   0.00000  Uiso   1.00
H1643  H     0.42716   0.89008   0.69307   0.00000  Uiso   1.00
H1644  H     0.41067   0.69661   0.67369   0.00000  Uiso   1.00
H1645  H     0.36857   0.72746   0.69687   0.00000  Uiso   1.00
H1646  H     0.41598   0.75808   0.68691   0.00000  Uiso   1.00
H1647  H     0.50433   0.94050   0.95749   0.00000  Uiso   1.00
H1648  H     0.53210   0.99431   0.96381   0.00000  Uiso   1.00
H1649  H     0.59739   0.95141   0.98333   0.00000  Uiso   1.00
H1650  H     0.55950   0.94081   0.69372   0.00000  Uiso   1.00
N1651  N     0.50000   0.95069   0.83333   0.00000  Uiso   1.00
N1652  N     0.50000   0.71598   0.83333   0.00000  Uiso   1.00
O1653  O     0.43988   0.87291   0.83333   0.00000  Uiso   1.00
O1654  O     0.54618   0.95100   0.90421   0.00000  Uiso   1.00
O1655  O     0.54427   0.71824   0.90572   0.00000  Uiso   1.00
O1656  O     0.45137   0.94925   0.76453   0.00000  Uiso   1.00
O1657  O     0.56012   0.79375   0.83334   0.00000  Uiso   1.00
O1658  O     0.56012   0.87291   0.83334   0.00000  Uiso   1.00
O1659  O     0.43988   0.79375   0.83333   0.00000  Uiso   1.00
O1660  O     0.50000   0.87292   0.76280   0.00000  Uiso   1.00
O1661  O     0.50000   0.79375   0.90387   0.00000  Uiso   1.00
O1662  O     0.50000   0.87292   0.90387   0.00000  Uiso   1.00
O1663  O     0.50000   0.79375   0.76280   0.00000  Uiso   1.00
O1664  O     0.46134   0.71558   0.75627   0.00000  Uiso   1.00
C1665  C     0.75454   0.83307   0.83816   0.00000  Uiso   1.00
C1666  C     0.69003   0.87509   0.85295   0.00000  Uiso   1.00
C1667  C     0.95773   0.83555   0.83275   0.00000  Uiso   1.00
C1668  C     0.71022   0.83301   0.84438   0.00000  Uiso   1.00
C1669  C     0.81091   0.69134   0.79703   0.00000  Uiso   1.00
C1670  C     0.85495   0.97549   0.87013   0.00000  Uiso   1.00
C1671  C     0.85627   0.69233   0.86894   0.00000  Uiso   1.00
C1672  C     0.81137   0.97450   0.79667   0.00000  Uiso   1.00
C1673  C     0.75130   0.71434   0.75213   0.00000  Uiso   1.00
C1674  C     0.73585   0.72461   0.69912   0.00000  Uiso   1.00
C1675  C     0.86781   0.95738   0.95292   0.00000  Uiso   1.00
C1676  C     0.91268   0.83395   0.83199   0.00000  Uiso   1.00
C1677  C     0.90013   0.93534   0.98825   0.00000  Uiso   1.00
C1678  C     0.92039   0.71211   0.90519   0.00000  Uiso   1.00
C1679  C     0.94244   0.74966   0.93701   0.00000  Uiso   1.00
C1680  C     0.79577   0.95232   0.71515   0.00000  Uiso   1.00
C1681  C     0.76284   0.92720   0.68220   0.00000  Uiso   1.00
C1682  C     0.83322   0.83327   0.74025   0.00000  Uiso   1.00
C1683  C     0.83347   0.83333   0.92642   0.00000  Uiso   1.00
C1684  C     0.83331   0.83313   0.68853   0.00000  Uiso   1.00
C1685  C     0.83333   0.83319   0.97813   0.00000  Uiso   1.00
C1686  C     0.68686   0.79175   0.83706   0.00000  Uiso   1.00
C1687  C     0.98057   0.87627   0.84784   0.00000  Uiso   1.00
C1688  C     0.97876   0.79452   0.82313   0.00000  Uiso   1.00
Cl1689 Cl    0.70563   0.73676   0.85614   0.00000  Uiso   1.00
Cl1690 Cl    0.95769   0.93054   0.85843   0.00000  Uiso   1.00
Cl1691 Cl    0.95625   0.74887   0.78614   0.00000  Uiso   1.00
Cl1692 Cl    0.71712   0.92596   0.87529   0.00000  Uiso   1.00
Cu1693 Cu    0.83333   0.88022   0.83333   0.00000  Uiso   1.00
Cu1694 Cu    0.83333   0.78645   0.83333   0.00000  Uiso   1.00
H1695  H     0.74003   0.74291   0.77391   0.00000  Uiso   1.00
H1696  H     0.90173   0.89744   0.98088   0.00000  Uiso   1.00
H1697  H     0.93078   0.71416   0.86746   0.00000  Uiso   1.00
H1698  H     0.92984   0.67825   0.92103   0.00000  Uiso   1.00
H1699  H     0.93416   0.74604   0.97581   0.00000  Uiso   1.00
H1700  H     0.97615   0.74614   0.93586   0.00000  Uiso   1.00
H1701  H     0.93362   0.78477   0.92359   0.00000  Uiso   1.00
H1702  H     0.82566   0.93622   0.71070   0.00000  Uiso   1.00
H1703  H     0.79886   0.98818   0.70151   0.00000  Uiso   1.00
H1704  H     0.73265   0.94359   0.68592   0.00000  Uiso   1.00
H1705  H     0.77024   0.92915   0.97638   0.00000  Uiso   1.00
H1706  H     0.73742   0.68097   0.76406   0.00000  Uiso   1.00
H1707  H     0.76049   0.89008   0.69307   0.00000  Uiso   1.00
H1708  H     0.74400   0.69661   0.67369   0.00000  Uiso   1.00
H1709  H     0.70190   0.72746   0.69687   0.00000  Uiso   1.00
H1710  H     0.74932   0.75808   0.68691   0.00000  Uiso   1.00
H1711  H     0.83766   0.94050   0.95749   0.00000  Uiso   1.00
H1712  H     0.86543   0.99431   0.96381   0.00000  Uiso   1.00
H1713  H     0.93072   0.95141   0.98333   0.00000  Uiso   1.00
H1714  H     0.89283   0.94081   0.69372   0.00000  Uiso   1.00
N1715  N     0.83333   0.95069   0.83333   0.00000  Uiso   1.00
N1716  N     0.83333   0.71598   0.83333   0.00000  Uiso   1.00
O1717  O     0.77321   0.87291   0.83333   0.00000  Uiso   1.00
O1718  O     0.87952   0.95100   0.90421   0.00000  Uiso   1.00
O1719  O     0.87760   0.71824   0.90572   0.00000  Uiso   1.00
O1720  O     0.78470   0.94925   0.76453   0.00000  Uiso   1.00
O1721  O     0.89345   0.79375   0.83334   0.00000  Uiso   1.00
O1722  O     0.89345   0.87291   0.83334   0.00000  Uiso   1.00
O1723  O     0.77321   0.79375   0.83333   0.00000  Uiso   1.00
O1724  O     0.83333   0.87292   0.76280   0.00000  Uiso   1.00
O1725  O     0.83333   0.79375   0.90387   0.00000  Uiso   1.00
O1726  O     0.83333   0.87292   0.90387   0.00000  Uiso   1.00
O1727  O     0.83333   0.79375   0.76280   0.00000  Uiso   1.00
O1728  O     0.79467   0.71558   0.75627   0.00000  Uiso   1.00
loop_
_geom_bond_atom_site_label_1
_geom_bond_atom_site_label_2
_geom_bond_distance
_geom_bond_site_symmetry_2
_ccdc_geom_bond_type
C1     C4      1.469   .     S
C1     O59     1.303   .     A
C1     O53     1.299   .     A
C2     C4      1.413   .     A
C2     Cl28    1.780   .     S
C2     C151    1.397   1_455 S
C3     C24     1.407   .     A
C3     C12     1.471   .     S
C3     C23     1.422   .     A
C4     C22     1.405   .     A
C5     N52     1.376   .     A
C5     O64     1.389   .     S
C5     C392    1.442   1_545 S
C6     N51     1.376   .     A
C6     O54     1.385   .     S
C6     C199    1.442   .     S
C7     O55     1.388   .     S
C7     N52     1.372   .     A
C7     C390    1.442   1_545 S
C8     O56     1.387   .     S
C8     N51     1.378   .     A
C8     C197    1.442   .     S
C9     O64     1.413   .     S
C9     C10     1.526   .     S
C9     H42     1.112   .     S
C9     H31     1.095   .     S
C10    H46     1.111   .     S
C10    H45     1.111   .     S
C10    H44     1.107   .     S
C11    H47     1.105   .     S
C11    H48     1.106   .     S
C11    C13     1.525   .     S
C11    O54     1.415   .     S
C12    O58     1.294   .     A
C12    O57     1.307   .     A
C13    H32     1.110   .     S
C13    H49     1.110   .     S
C13    H626    1.109   .     S
C14    H34     1.105   .     S
C14    O55     1.413   .     S
C14    H33     1.103   .     S
C14    C15     1.522   .     S
C15    H36     1.110   .     S
C15    H35     1.111   .     S
C15    H37     1.109   .     S
C16    O56     1.416   .     S
C16    H39     1.101   .     S
C16    H38     1.101   .     S
C16    C17     1.524   .     S
C17    H43     1.110   .     S
C17    H40     1.110   .     S
C17    H1193   1.109   1_554 S
C18    O60     1.292   .     A
C18    C20     1.406   .     S
C18    O63     1.291   .     A
C19    C21     1.406   .     S
C19    O61     1.291   .     A
C19    O62     1.293   .     A
C20    C1173   1.189   1_554 S
C21    C596    1.189   .     S
C22    Cl25    1.770   .     S
C22    C152    1.385   1_455 S
C23    Cl26    1.772   .     S
C23    C66     1.397   .     S
C24    Cl27    1.771   .     S
C24    C86     1.385   .     S
Cu29   O60     1.929   .     S
Cu29   O58     1.979   .     S
Cu29   Cu30    2.694   .     S
Cu29   O53     1.972   .     S
Cu29   N51     2.024   .     S
Cu29   O62     1.929   .     S
Cu30   O59     1.979   .     S
Cu30   O63     1.929   .     S
Cu30   O61     1.929   .     S
Cu30   O57     1.972   .     S
Cu30   N52     2.024   .     S
H41    C593    1.109   .     S
H50    C1165   1.109   1_554 S
C65    C68     1.469   .     S
C65    O123    1.303   .     A
C65    O117    1.299   .     A
C66    C68     1.413   .     A
C66    Cl92    1.780   .     S
C67    C88     1.407   .     A
C67    C76     1.471   .     S
C67    C87     1.422   .     A
C68    C86     1.405   .     A
C69    N116    1.376   .     A
C69    O128    1.389   .     S
C69    C456    1.442   1_545 S
C70    N115    1.376   .     A
C70    O118    1.385   .     S
C70    C263    1.442   .     S
C71    O119    1.388   .     S
C71    N116    1.372   .     A
C71    C454    1.442   1_545 S
C72    O120    1.387   .     S
C72    N115    1.378   .     A
C72    C261    1.442   .     S
C73    O128    1.413   .     S
C73    C74     1.526   .     S
C73    H106    1.112   .     S
C73    H95     1.095   .     S
C74    H110    1.111   .     S
C74    H109    1.111   .     S
C74    H108    1.107   .     S
C75    H111    1.105   .     S
C75    H112    1.106   .     S
C75    C77     1.525   .     S
C75    O118    1.415   .     S
C76    O122    1.294   .     A
C76    O121    1.307   .     A
C77    H96     1.110   .     S
C77    H113    1.110   .     S
C77    H690    1.109   .     S
C78    H98     1.105   .     S
C78    O119    1.413   .     S
C78    H97     1.103   .     S
C78    C79     1.522   .     S
C79    H100    1.110   .     S
C79    H99     1.111   .     S
C79    H101    1.109   .     S
C80    O120    1.416   .     S
C80    H103    1.101   .     S
C80    H102    1.101   .     S
C80    C81     1.524   .     S
C81    H107    1.110   .     S
C81    H104    1.110   .     S
C81    H1257   1.109   1_554 S
C82    O124    1.292   .     A
C82    C84     1.406   .     S
C82    O127    1.291   .     A
C83    C85     1.406   .     S
C83    O125    1.291   .     A
C83    O126    1.293   .     A
C84    C1237   1.189   1_554 S
C85    C660    1.189   .     S
C86    Cl89    1.770   .     S
C87    Cl90    1.772   .     S
C87    C130    1.397   .     S
C88    Cl91    1.771   .     S
C88    C150    1.385   .     S
Cu93   O124    1.929   .     S
Cu93   O122    1.979   .     S
Cu93   Cu94    2.694   .     S
Cu93   O117    1.972   .     S
Cu93   N115    2.024   .     S
Cu93   O126    1.929   .     S
Cu94   O123    1.979   .     S
Cu94   O127    1.929   .     S
Cu94   O125    1.929   .     S
Cu94   O121    1.972   .     S
Cu94   N116    2.024   .     S
H105   C657    1.109   .     S
H114   C1229   1.109   1_554 S
C129   C132    1.469   .     S
C129   O187    1.303   .     A
C129   O181    1.299   .     A
C130   C132    1.413   .     A
C130   Cl156   1.780   .     S
C131   C152    1.407   .     A
C131   C140    1.471   .     S
C131   C151    1.422   .     A
C132   C150    1.405   .     A
C133   N180    1.376   .     A
C133   O192    1.389   .     S
C133   C520    1.442   1_545 S
C134   N179    1.376   .     A
C134   O182    1.385   .     S
C134   C327    1.442   .     S
C135   O183    1.388   .     S
C135   N180    1.372   .     A
C135   C518    1.442   1_545 S
C136   O184    1.387   .     S
C136   N179    1.378   .     A
C136   C325    1.442   .     S
C137   O192    1.413   .     S
C137   C138    1.526   .     S
C137   H170    1.112   .     S
C137   H159    1.095   .     S
C138   H174    1.111   .     S
C138   H173    1.111   .     S
C138   H172    1.107   .     S
C139   H175    1.105   .     S
C139   H176    1.106   .     S
C139   C141    1.525   .     S
C139   O182    1.415   .     S
C140   O186    1.294   .     A
C140   O185    1.307   .     A
C141   H160    1.110   .     S
C141   H177    1.110   .     S
C141   H754    1.109   .     S
C142   H162    1.105   .     S
C142   O183    1.413   .     S
C142   H161    1.103   .     S
C142   C143    1.522   .     S
C143   H164    1.110   .     S
C143   H163    1.111   .     S
C143   H165    1.109   .     S
C144   O184    1.416   .     S
C144   H167    1.101   .     S
C144   H166    1.101   .     S
C144   C145    1.524   .     S
C145   H171    1.110   .     S
C145   H168    1.110   .     S
C145   H1321   1.109   1_554 S
C146   O188    1.292   .     A
C146   C148    1.406   .     S
C146   O191    1.291   .     A
C147   C149    1.406   .     S
C147   O189    1.291   .     A
C147   O190    1.293   .     A
C148   C1301   1.189   1_554 S
C149   C724    1.189   .     S
C150   Cl153   1.770   .     S
C151   Cl154   1.772   .     S
C151   C2      1.397   1_655 S
C152   Cl155   1.771   .     S
C152   C22     1.385   1_655 S
Cu157  O188    1.929   .     S
Cu157  O186    1.979   .     S
Cu157  Cu158   2.694   .     S
Cu157  O181    1.972   .     S
Cu157  N179    2.024   .     S
Cu157  O190    1.929   .     S
Cu158  O187    1.979   .     S
Cu158  O191    1.929   .     S
Cu158  O189    1.929   .     S
Cu158  O185    1.972   .     S
Cu158  N180    2.024   .     S
H169   C721    1.109   .     S
H178   C1293   1.109   1_554 S
C193   C196    1.469   .     S
C193   O251    1.303   .     A
C193   O245    1.299   .     A
C194   C196    1.413   .     A
C194   Cl220   1.780   .     S
C194   C343    1.397   1_455 S
C195   C216    1.407   .     A
C195   C204    1.471   .     S
C195   C215    1.422   .     A
C196   C214    1.405   .     A
C197   N244    1.376   .     A
C197   O256    1.389   .     S
C198   N243    1.376   .     A
C198   O246    1.385   .     S
C198   C391    1.442   .     S
C199   O247    1.388   .     S
C199   N244    1.372   .     A
C200   O248    1.387   .     S
C200   N243    1.378   .     A
C200   C389    1.442   .     S
C201   O256    1.413   .     S
C201   C202    1.526   .     S
C201   H234    1.112   .     S
C201   H223    1.095   .     S
C202   H238    1.111   .     S
C202   H237    1.111   .     S
C202   H236    1.107   .     S
C203   H239    1.105   .     S
C203   H240    1.106   .     S
C203   C205    1.525   .     S
C203   O246    1.415   .     S
C204   O250    1.294   .     A
C204   O249    1.307   .     A
C205   H224    1.110   .     S
C205   H241    1.110   .     S
C205   H818    1.109   .     S
C206   H226    1.105   .     S
C206   O247    1.413   .     S
C206   H225    1.103   .     S
C206   C207    1.522   .     S
C207   H228    1.110   .     S
C207   H227    1.111   .     S
C207   H229    1.109   .     S
C208   O248    1.416   .     S
C208   H231    1.101   .     S
C208   H230    1.101   .     S
C208   C209    1.524   .     S
C209   H235    1.110   .     S
C209   H232    1.110   .     S
C209   H1385   1.109   1_554 S
C210   O252    1.292   .     A
C210   C212    1.406   .     S
C210   O255    1.291   .     A
C211   C213    1.406   .     S
C211   O253    1.291   .     A
C211   O254    1.293   .     A
C212   C1365   1.189   1_554 S
C213   C788    1.189   .     S
C214   Cl217   1.770   .     S
C214   C344    1.385   1_455 S
C215   Cl218   1.772   .     S
C215   C258    1.397   .     S
C216   Cl219   1.771   .     S
C216   C278    1.385   .     S
Cu221  O252    1.929   .     S
Cu221  O250    1.979   .     S
Cu221  Cu222   2.694   .     S
Cu221  O245    1.972   .     S
Cu221  N243    2.024   .     S
Cu221  O254    1.929   .     S
Cu222  O251    1.979   .     S
Cu222  O255    1.929   .     S
Cu222  O253    1.929   .     S
Cu222  O249    1.972   .     S
Cu222  N244    2.024   .     S
H233   C785    1.109   .     S
H242   C1357   1.109   1_554 S
C257   C260    1.469   .     S
C257   O315    1.303   .     A
C257   O309    1.299   .     A
C258   C260    1.413   .     A
C258   Cl284   1.780   .     S
C259   C280    1.407   .     A
C259   C268    1.471   .     S
C259   C279    1.422   .     A
C260   C278    1.405   .     A
C261   N308    1.376   .     A
C261   O320    1.389   .     S
C262   N307    1.376   .     A
C262   O310    1.385   .     S
C262   C455    1.442   .     S
C263   O311    1.388   .     S
C263   N308    1.372   .     A
C264   O312    1.387   .     S
C264   N307    1.378   .     A
C264   C453    1.442   .     S
C265   O320    1.413   .     S
C265   C266    1.526   .     S
C265   H298    1.112   .     S
C265   H287    1.095   .     S
C266   H302    1.111   .     S
C266   H301    1.111   .     S
C266   H300    1.107   .     S
C267   H303    1.105   .     S
C267   H304    1.106   .     S
C267   C269    1.525   .     S
C267   O310    1.415   .     S
C268   O314    1.294   .     A
C268   O313    1.307   .     A
C269   H288    1.110   .     S
C269   H305    1.110   .     S
C269   H882    1.109   .     S
C270   H290    1.105   .     S
C270   O311    1.413   .     S
C270   H289    1.103   .     S
C270   C271    1.522   .     S
C271   H292    1.110   .     S
C271   H291    1.111   .     S
C271   H293    1.109   .     S
C272   O312    1.416   .     S
C272   H295    1.101   .     S
C272   H294    1.101   .     S
C272   C273    1.524   .     S
C273   H299    1.110   .     S
C273   H296    1.110   .     S
C273   H1449   1.109   1_554 S
C274   O316    1.292   .     A
C274   C276    1.406   .     S
C274   O319    1.291   .     A
C275   C277    1.406   .     S
C275   O317    1.291   .     A
C275   O318    1.293   .     A
C276   C1429   1.189   1_554 S
C277   C852    1.189   .     S
C278   Cl281   1.770   .     S
C279   Cl282   1.772   .     S
C279   C322    1.397   .     S
C280   Cl283   1.771   .     S
C280   C342    1.385   .     S
Cu285  O316    1.929   .     S
Cu285  O314    1.979   .     S
Cu285  Cu286   2.694   .     S
Cu285  O309    1.972   .     S
Cu285  N307    2.024   .     S
Cu285  O318    1.929   .     S
Cu286  O315    1.979   .     S
Cu286  O319    1.929   .     S
Cu286  O317    1.929   .     S
Cu286  O313    1.972   .     S
Cu286  N308    2.024   .     S
H297   C849    1.109   .     S
H306   C1421   1.109   1_554 S
C321   C324    1.469   .     S
C321   O379    1.303   .     A
C321   O373    1.299   .     A
C322   C324    1.413   .     A
C322   Cl348   1.780   .     S
C323   C344    1.407   .     A
C323   C332    1.471   .     S
C323   C343    1.422   .     A
C324   C342    1.405   .     A
C325   N372    1.376   .     A
C325   O384    1.389   .     S
C326   N371    1.376   .     A
C326   O374    1.385   .     S
C326   C519    1.442   .     S
C327   O375    1.388   .     S
C327   N372    1.372   .     A
C328   O376    1.387   .     S
C328   N371    1.378   .     A
C328   C517    1.442   .     S
C329   O384    1.413   .     S
C329   C330    1.526   .     S
C329   H362    1.112   .     S
C329   H351    1.095   .     S
C330   H366    1.111   .     S
C330   H365    1.111   .     S
C330   H364    1.107   .     S
C331   H367    1.105   .     S
C331   H368    1.106   .     S
C331   C333    1.525   .     S
C331   O374    1.415   .     S
C332   O378    1.294   .     A
C332   O377    1.307   .     A
C333   H352    1.110   .     S
C333   H369    1.110   .     S
C333   H946    1.109   .     S
C334   H354    1.105   .     S
C334   O375    1.413   .     S
C334   H353    1.103   .     S
C334   C335    1.522   .     S
C335   H356    1.110   .     S
C335   H355    1.111   .     S
C335   H357    1.109   .     S
C336   O376    1.416   .     S
C336   H359    1.101   .     S
C336   H358    1.101   .     S
C336   C337    1.524   .     S
C337   H363    1.110   .     S
C337   H360    1.110   .     S
C337   H1513   1.109   1_554 S
C338   O380    1.292   .     A
C338   C340    1.406   .     S
C338   O383    1.291   .     A
C339   C341    1.406   .     S
C339   O381    1.291   .     A
C339   O382    1.293   .     A
C340   C1493   1.189   1_554 S
C341   C916    1.189   .     S
C342   Cl345   1.770   .     S
C343   Cl346   1.772   .     S
C343   C194    1.397   1_655 S
C344   Cl347   1.771   .     S
C344   C214    1.385   1_655 S
Cu349  O380    1.929   .     S
Cu349  O378    1.979   .     S
Cu349  Cu350   2.694   .     S
Cu349  O373    1.972   .     S
Cu349  N371    2.024   .     S
Cu349  O382    1.929   .     S
Cu350  O379    1.979   .     S
Cu350  O383    1.929   .     S
Cu350  O381    1.929   .     S
Cu350  O377    1.972   .     S
Cu350  N372    2.024   .     S
H361   C913    1.109   .     S
H370   C1485   1.109   1_554 S
C385   C388    1.469   .     S
C385   O443    1.303   .     A
C385   O437    1.299   .     A
C386   C388    1.413   .     A
C386   Cl412   1.780   .     S
C386   C535    1.397   1_455 S
C387   C408    1.407   .     A
C387   C396    1.471   .     S
C387   C407    1.422   .     A
C388   C406    1.405   .     A
C389   N436    1.376   .     A
C389   O448    1.389   .     S
C390   N435    1.376   .     A
C390   O438    1.385   .     S
C390   C7      1.442   1_565 S
C391   O439    1.388   .     S
C391   N436    1.372   .     A
C392   O440    1.387   .     S
C392   N435    1.378   .     A
C392   C5      1.442   1_565 S
C393   O448    1.413   .     S
C393   C394    1.526   .     S
C393   H426    1.112   .     S
C393   H415    1.095   .     S
C394   H430    1.111   .     S
C394   H429    1.111   .     S
C394   H428    1.107   .     S
C395   H431    1.105   .     S
C395   H432    1.106   .     S
C395   C397    1.525   .     S
C395   O438    1.415   .     S
C396   O442    1.294   .     A
C396   O441    1.307   .     A
C397   H416    1.110   .     S
C397   H433    1.110   .     S
C397   H1010   1.109   .     S
C398   H418    1.105   .     S
C398   O439    1.413   .     S
C398   H417    1.103   .     S
C398   C399    1.522   .     S
C399   H420    1.110   .     S
C399   H419    1.111   .     S
C399   H421    1.109   .     S
C400   O440    1.416   .     S
C400   H423    1.101   .     S
C400   H422    1.101   .     S
C400   C401    1.524   .     S
C401   H427    1.110   .     S
C401   H424    1.110   .     S
C401   H1577   1.109   1_554 S
C402   O444    1.292   .     A
C402   C404    1.406   .     S
C402   O447    1.291   .     A
C403   C405    1.406   .     S
C403   O445    1.291   .     A
C403   O446    1.293   .     A
C404   C1557   1.189   1_554 S
C405   C980    1.189   .     S
C406   Cl409   1.770   .     S
C406   C536    1.385   1_455 S
C407   Cl410   1.772   .     S
C407   C450    1.397   .     S
C408   Cl411   1.771   .     S
C408   C470    1.385   .     S
Cu413  O444    1.929   .     S
Cu413  O442    1.979   .     S
Cu413  Cu414   2.694   .     S
Cu413  O437    1.972   .     S
Cu413  N435    2.024   .     S
Cu413  O446    1.929   .     S
Cu414  O443    1.979   .     S
Cu414  O447    1.929   .     S
Cu414  O445    1.929   .     S
Cu414  O441    1.972   .     S
Cu414  N436    2.024   .     S
H425   C977    1.109   .     S
H434   C1549   1.109   1_554 S
C449   C452    1.469   .     S
C449   O507    1.303   .     A
C449   O501    1.299   .     A
C450   C452    1.413   .     A
C450   Cl476   1.780   .     S
C451   C472    1.407   .     A
C451   C460    1.471   .     S
C451   C471    1.422   .     A
C452   C470    1.405   .     A
C453   N500    1.376   .     A
C453   O512    1.389   .     S
C454   N499    1.376   .     A
C454   O502    1.385   .     S
C454   C71     1.442   1_565 S
C455   O503    1.388   .     S
C455   N500    1.372   .     A
C456   O504    1.387   .     S
C456   N499    1.378   .     A
C456   C69     1.442   1_565 S
C457   O512    1.413   .     S
C457   C458    1.526   .     S
C457   H490    1.112   .     S
C457   H479    1.095   .     S
C458   H494    1.111   .     S
C458   H493    1.111   .     S
C458   H492    1.107   .     S
C459   H495    1.105   .     S
C459   H496    1.106   .     S
C459   C461    1.525   .     S
C459   O502    1.415   .     S
C460   O506    1.294   .     A
C460   O505    1.307   .     A
C461   H480    1.110   .     S
C461   H497    1.110   .     S
C461   H1074   1.109   .     S
C462   H482    1.105   .     S
C462   O503    1.413   .     S
C462   H481    1.103   .     S
C462   C463    1.522   .     S
C463   H484    1.110   .     S
C463   H483    1.111   .     S
C463   H485    1.109   .     S
C464   O504    1.416   .     S
C464   H487    1.101   .     S
C464   H486    1.101   .     S
C464   C465    1.524   .     S
C465   H491    1.110   .     S
C465   H488    1.110   .     S
C465   H1641   1.109   1_554 S
C466   O508    1.292   .     A
C466   C468    1.406   .     S
C466   O511    1.291   .     A
C467   C469    1.406   .     S
C467   O509    1.291   .     A
C467   O510    1.293   .     A
C468   C1621   1.189   1_554 S
C469   C1044   1.189   .     S
C470   Cl473   1.770   .     S
C471   Cl474   1.772   .     S
C471   C514    1.397   .     S
C472   Cl475   1.771   .     S
C472   C534    1.385   .     S
Cu477  O508    1.929   .     S
Cu477  O506    1.979   .     S
Cu477  Cu478   2.694   .     S
Cu477  O501    1.972   .     S
Cu477  N499    2.024   .     S
Cu477  O510    1.929   .     S
Cu478  O507    1.979   .     S
Cu478  O511    1.929   .     S
Cu478  O509    1.929   .     S
Cu478  O505    1.972   .     S
Cu478  N500    2.024   .     S
H489   C1041   1.109   .     S
H498   C1613   1.109   1_554 S
C513   C516    1.469   .     S
C513   O571    1.303   .     A
C513   O565    1.299   .     A
C514   C516    1.413   .     A
C514   Cl540   1.780   .     S
C515   C536    1.407   .     A
C515   C524    1.471   .     S
C515   C535    1.422   .     A
C516   C534    1.405   .     A
C517   N564    1.376   .     A
C517   O576    1.389   .     S
C518   N563    1.376   .     A
C518   O566    1.385   .     S
C518   C135    1.442   1_565 S
C519   O567    1.388   .     S
C519   N564    1.372   .     A
C520   O568    1.387   .     S
C520   N563    1.378   .     A
C520   C133    1.442   1_565 S
C521   O576    1.413   .     S
C521   C522    1.526   .     S
C521   H554    1.112   .     S
C521   H543    1.095   .     S
C522   H558    1.111   .     S
C522   H557    1.111   .     S
C522   H556    1.107   .     S
C523   H559    1.105   .     S
C523   H560    1.106   .     S
C523   C525    1.525   .     S
C523   O566    1.415   .     S
C524   O570    1.294   .     A
C524   O569    1.307   .     A
C525   H544    1.110   .     S
C525   H561    1.110   .     S
C525   H1138   1.109   .     S
C526   H546    1.105   .     S
C526   O567    1.413   .     S
C526   H545    1.103   .     S
C526   C527    1.522   .     S
C527   H548    1.110   .     S
C527   H547    1.111   .     S
C527   H549    1.109   .     S
C528   O568    1.416   .     S
C528   H551    1.101   .     S
C528   H550    1.101   .     S
C528   C529    1.524   .     S
C529   H555    1.110   .     S
C529   H552    1.110   .     S
C529   H1705   1.109   1_554 S
C530   O572    1.292   .     A
C530   C532    1.406   .     S
C530   O575    1.291   .     A
C531   C533    1.406   .     S
C531   O573    1.291   .     A
C531   O574    1.293   .     A
C532   C1685   1.189   1_554 S
C533   C1108   1.189   .     S
C534   Cl537   1.770   .     S
C535   Cl538   1.772   .     S
C535   C386    1.397   1_655 S
C536   Cl539   1.771   .     S
C536   C406    1.385   1_655 S
Cu541  O572    1.929   .     S
Cu541  O570    1.979   .     S
Cu541  Cu542   2.694   .     S
Cu541  O565    1.972   .     S
Cu541  N563    2.024   .     S
Cu541  O574    1.929   .     S
Cu542  O571    1.979   .     S
Cu542  O575    1.929   .     S
Cu542  O573    1.929   .     S
Cu542  O569    1.972   .     S
Cu542  N564    2.024   .     S
H553   C1105   1.109   .     S
H562   C1677   1.109   1_554 S
C577   C580    1.469   .     S
C577   O635    1.303   .     A
C577   O629    1.299   .     A
C578   C580    1.413   .     A
C578   Cl604   1.780   .     S
C578   C727    1.397   1_455 S
C579   C600    1.407   .     A
C579   C588    1.471   .     S
C579   C599    1.422   .     A
C580   C598    1.405   .     A
C581   N628    1.376   .     A
C581   O640    1.389   .     S
C581   C968    1.442   1_545 S
C582   N627    1.376   .     A
C582   O630    1.385   .     S
C582   C775    1.442   .     S
C583   O631    1.388   .     S
C583   N628    1.372   .     A
C583   C966    1.442   1_545 S
C584   O632    1.387   .     S
C584   N627    1.378   .     A
C584   C773    1.442   .     S
C585   O640    1.413   .     S
C585   C586    1.526   .     S
C585   H618    1.112   .     S
C585   H607    1.095   .     S
C586   H622    1.111   .     S
C586   H621    1.111   .     S
C586   H620    1.107   .     S
C587   H623    1.105   .     S
C587   H624    1.106   .     S
C587   C589    1.525   .     S
C587   O630    1.415   .     S
C588   O634    1.294   .     A
C588   O633    1.307   .     A
C589   H608    1.110   .     S
C589   H625    1.110   .     S
C589   H1202   1.109   .     S
C590   H610    1.105   .     S
C590   O631    1.413   .     S
C590   H609    1.103   .     S
C590   C591    1.522   .     S
C591   H612    1.110   .     S
C591   H611    1.111   .     S
C591   H613    1.109   .     S
C592   O632    1.416   .     S
C592   H615    1.101   .     S
C592   H614    1.101   .     S
C592   C593    1.524   .     S
C593   H619    1.110   .     S
C593   H616    1.110   .     S
C594   O636    1.292   .     A
C594   C596    1.406   .     S
C594   O639    1.291   .     A
C595   C597    1.406   .     S
C595   O637    1.291   .     A
C595   O638    1.293   .     A
C597   C1172   1.189   .     S
C598   Cl601   1.770   .     S
C598   C728    1.385   1_455 S
C599   Cl602   1.772   .     S
C599   C642    1.397   .     S
C600   Cl603   1.771   .     S
C600   C662    1.385   .     S
Cu605  O636    1.929   .     S
Cu605  O634    1.979   .     S
Cu605  Cu606   2.694   .     S
Cu605  O629    1.972   .     S
Cu605  N627    2.024   .     S
Cu605  O638    1.929   .     S
Cu606  O635    1.979   .     S
Cu606  O639    1.929   .     S
Cu606  O637    1.929   .     S
Cu606  O633    1.972   .     S
Cu606  N628    2.024   .     S
H617   C1169   1.109   .     S
C641   C644    1.469   .     S
C641   O699    1.303   .     A
C641   O693    1.299   .     A
C642   C644    1.413   .     A
C642   Cl668   1.780   .     S
C643   C664    1.407   .     A
C643   C652    1.471   .     S
C643   C663    1.422   .     A
C644   C662    1.405   .     A
C645   N692    1.376   .     A
C645   O704    1.389   .     S
C645   C1032   1.442   1_545 S
C646   N691    1.376   .     A
C646   O694    1.385   .     S
C646   C839    1.442   .     S
C647   O695    1.388   .     S
C647   N692    1.372   .     A
C647   C1030   1.442   1_545 S
C648   O696    1.387   .     S
C648   N691    1.378   .     A
C648   C837    1.442   .     S
C649   O704    1.413   .     S
C649   C650    1.526   .     S
C649   H682    1.112   .     S
C649   H671    1.095   .     S
C650   H686    1.111   .     S
C650   H685    1.111   .     S
C650   H684    1.107   .     S
C651   H687    1.105   .     S
C651   H688    1.106   .     S
C651   C653    1.525   .     S
C651   O694    1.415   .     S
C652   O698    1.294   .     A
C652   O697    1.307   .     A
C653   H672    1.110   .     S
C653   H689    1.110   .     S
C653   H1266   1.109   .     S
C654   H674    1.105   .     S
C654   O695    1.413   .     S
C654   H673    1.103   .     S
C654   C655    1.522   .     S
C655   H676    1.110   .     S
C655   H675    1.111   .     S
C655   H677    1.109   .     S
C656   O696    1.416   .     S
C656   H679    1.101   .     S
C656   H678    1.101   .     S
C656   C657    1.524   .     S
C657   H683    1.110   .     S
C657   H680    1.110   .     S
C658   O700    1.292   .     A
C658   C660    1.406   .     S
C658   O703    1.291   .     A
C659   C661    1.406   .     S
C659   O701    1.291   .     A
C659   O702    1.293   .     A
C661   C1236   1.189   .     S
C662   Cl665   1.770   .     S
C663   Cl666   1.772   .     S
C663   C706    1.397   .     S
C664   Cl667   1.771   .     S
C664   C726    1.385   .     S
Cu669  O700    1.929   .     S
Cu669  O698    1.979   .     S
Cu669  Cu670   2.694   .     S
Cu669  O693    1.972   .     S
Cu669  N691    2.024   .     S
Cu669  O702    1.929   .     S
Cu670  O699    1.979   .     S
Cu670  O703    1.929   .     S
Cu670  O701    1.929   .     S
Cu670  O697    1.972   .     S
Cu670  N692    2.024   .     S
H681   C1233   1.109   .     S
C705   C708    1.469   .     S
C705   O763    1.303   .     A
C705   O757    1.299   .     A
C706   C708    1.413   .     A
C706   Cl732   1.780   .     S
C707   C728    1.407   .     A
C707   C716    1.471   .     S
C707   C727    1.422   .     A
C708   C726    1.405   .     A
C709   N756    1.376   .     A
C709   O768    1.389   .     S
C709   C1096   1.442   1_545 S
C710   N755    1.376   .     A
C710   O758    1.385   .     S
C710   C903    1.442   .     S
C711   O759    1.388   .     S
C711   N756    1.372   .     A
C711   C1094   1.442   1_545 S
C712   O760    1.387   .     S
C712   N755    1.378   .     A
C712   C901    1.442   .     S
C713   O768    1.413   .     S
C713   C714    1.526   .     S
C713   H746    1.112   .     S
C713   H735    1.095   .     S
C714   H750    1.111   .     S
C714   H749    1.111   .     S
C714   H748    1.107   .     S
C715   H751    1.105   .     S
C715   H752    1.106   .     S
C715   C717    1.525   .     S
C715   O758    1.415   .     S
C716   O762    1.294   .     A
C716   O761    1.307   .     A
C717   H736    1.110   .     S
C717   H753    1.110   .     S
C717   H1330   1.109   .     S
C718   H738    1.105   .     S
C718   O759    1.413   .     S
C718   H737    1.103   .     S
C718   C719    1.522   .     S
C719   H740    1.110   .     S
C719   H739    1.111   .     S
C719   H741    1.109   .     S
C720   O760    1.416   .     S
C720   H743    1.101   .     S
C720   H742    1.101   .     S
C720   C721    1.524   .     S
C721   H747    1.110   .     S
C721   H744    1.110   .     S
C722   O764    1.292   .     A
C722   C724    1.406   .     S
C722   O767    1.291   .     A
C723   C725    1.406   .     S
C723   O765    1.291   .     A
C723   O766    1.293   .     A
C725   C1300   1.189   .     S
C726   Cl729   1.770   .     S
C727   Cl730   1.772   .     S
C727   C578    1.397   1_655 S
C728   Cl731   1.771   .     S
C728   C598    1.385   1_655 S
Cu733  O764    1.929   .     S
Cu733  O762    1.979   .     S
Cu733  Cu734   2.694   .     S
Cu733  O757    1.972   .     S
Cu733  N755    2.024   .     S
Cu733  O766    1.929   .     S
Cu734  O763    1.979   .     S
Cu734  O767    1.929   .     S
Cu734  O765    1.929   .     S
Cu734  O761    1.972   .     S
Cu734  N756    2.024   .     S
H745   C1297   1.109   .     S
C769   C772    1.469   .     S
C769   O827    1.303   .     A
C769   O821    1.299   .     A
C770   C772    1.413   .     A
C770   Cl796   1.780   .     S
C770   C919    1.397   1_455 S
C771   C792    1.407   .     A
C771   C780    1.471   .     S
C771   C791    1.422   .     A
C772   C790    1.405   .     A
C773   N820    1.376   .     A
C773   O832    1.389   .     S
C774   N819    1.376   .     A
C774   O822    1.385   .     S
C774   C967    1.442   .     S
C775   O823    1.388   .     S
C775   N820    1.372   .     A
C776   O824    1.387   .     S
C776   N819    1.378   .     A
C776   C965    1.442   .     S
C777   O832    1.413   .     S
C777   C778    1.526   .     S
C777   H810    1.112   .     S
C777   H799    1.095   .     S
C778   H814    1.111   .     S
C778   H813    1.111   .     S
C778   H812    1.107   .     S
C779   H815    1.105   .     S
C779   H816    1.106   .     S
C779   C781    1.525   .     S
C779   O822    1.415   .     S
C780   O826    1.294   .     A
C780   O825    1.307   .     A
C781   H800    1.110   .     S
C781   H817    1.110   .     S
C781   H1394   1.109   .     S
C782   H802    1.105   .     S
C782   O823    1.413   .     S
C782   H801    1.103   .     S
C782   C783    1.522   .     S
C783   H804    1.110   .     S
C783   H803    1.111   .     S
C783   H805    1.109   .     S
C784   O824    1.416   .     S
C784   H807    1.101   .     S
C784   H806    1.101   .     S
C784   C785    1.524   .     S
C785   H811    1.110   .     S
C785   H808    1.110   .     S
C786   O828    1.292   .     A
C786   C788    1.406   .     S
C786   O831    1.291   .     A
C787   C789    1.406   .     S
C787   O829    1.291   .     A
C787   O830    1.293   .     A
C789   C1364   1.189   .     S
C790   Cl793   1.770   .     S
C790   C920    1.385   1_455 S
C791   Cl794   1.772   .     S
C791   C834    1.397   .     S
C792   Cl795   1.771   .     S
C792   C854    1.385   .     S
Cu797  O828    1.929   .     S
Cu797  O826    1.979   .     S
Cu797  Cu798   2.694   .     S
Cu797  O821    1.972   .     S
Cu797  N819    2.024   .     S
Cu797  O830    1.929   .     S
Cu798  O827    1.979   .     S
Cu798  O831    1.929   .     S
Cu798  O829    1.929   .     S
Cu798  O825    1.972   .     S
Cu798  N820    2.024   .     S
H809   C1361   1.109   .     S
C833   C836    1.469   .     S
C833   O891    1.303   .     A
C833   O885    1.299   .     A
C834   C836    1.413   .     A
C834   Cl860   1.780   .     S
C835   C856    1.407   .     A
C835   C844    1.471   .     S
C835   C855    1.422   .     A
C836   C854    1.405   .     A
C837   N884    1.376   .     A
C837   O896    1.389   .     S
C838   N883    1.376   .     A
C838   O886    1.385   .     S
C838   C1031   1.442   .     S
C839   O887    1.388   .     S
C839   N884    1.372   .     A
C840   O888    1.387   .     S
C840   N883    1.378   .     A
C840   C1029   1.442   .     S
C841   O896    1.413   .     S
C841   C842    1.526   .     S
C841   H874    1.112   .     S
C841   H863    1.095   .     S
C842   H878    1.111   .     S
C842   H877    1.111   .     S
C842   H876    1.107   .     S
C843   H879    1.105   .     S
C843   H880    1.106   .     S
C843   C845    1.525   .     S
C843   O886    1.415   .     S
C844   O890    1.294   .     A
C844   O889    1.307   .     A
C845   H864    1.110   .     S
C845   H881    1.110   .     S
C845   H1458   1.109   .     S
C846   H866    1.105   .     S
C846   O887    1.413   .     S
C846   H865    1.103   .     S
C846   C847    1.522   .     S
C847   H868    1.110   .     S
C847   H867    1.111   .     S
C847   H869    1.109   .     S
C848   O888    1.416   .     S
C848   H871    1.101   .     S
C848   H870    1.101   .     S
C848   C849    1.524   .     S
C849   H875    1.110   .     S
C849   H872    1.110   .     S
C850   O892    1.292   .     A
C850   C852    1.406   .     S
C850   O895    1.291   .     A
C851   C853    1.406   .     S
C851   O893    1.291   .     A
C851   O894    1.293   .     A
C853   C1428   1.189   .     S
C854   Cl857   1.770   .     S
C855   Cl858   1.772   .     S
C855   C898    1.397   .     S
C856   Cl859   1.771   .     S
C856   C918    1.385   .     S
Cu861  O892    1.929   .     S
Cu861  O890    1.979   .     S
Cu861  Cu862   2.694   .     S
Cu861  O885    1.972   .     S
Cu861  N883    2.024   .     S
Cu861  O894    1.929   .     S
Cu862  O891    1.979   .     S
Cu862  O895    1.929   .     S
Cu862  O893    1.929   .     S
Cu862  O889    1.972   .     S
Cu862  N884    2.024   .     S
H873   C1425   1.109   .     S
C897   C900    1.469   .     S
C897   O955    1.303   .     A
C897   O949    1.299   .     A
C898   C900    1.413   .     A
C898   Cl924   1.780   .     S
C899   C920    1.407   .     A
C899   C908    1.471   .     S
C899   C919    1.422   .     A
C900   C918    1.405   .     A
C901   N948    1.376   .     A
C901   O960    1.389   .     S
C902   N947    1.376   .     A
C902   O950    1.385   .     S
C902   C1095   1.442   .     S
C903   O951    1.388   .     S
C903   N948    1.372   .     A
C904   O952    1.387   .     S
C904   N947    1.378   .     A
C904   C1093   1.442   .     S
C905   O960    1.413   .     S
C905   C906    1.526   .     S
C905   H938    1.112   .     S
C905   H927    1.095   .     S
C906   H942    1.111   .     S
C906   H941    1.111   .     S
C906   H940    1.107   .     S
C907   H943    1.105   .     S
C907   H944    1.106   .     S
C907   C909    1.525   .     S
C907   O950    1.415   .     S
C908   O954    1.294   .     A
C908   O953    1.307   .     A
C909   H928    1.110   .     S
C909   H945    1.110   .     S
C909   H1522   1.109   .     S
C910   H930    1.105   .     S
C910   O951    1.413   .     S
C910   H929    1.103   .     S
C910   C911    1.522   .     S
C911   H932    1.110   .     S
C911   H931    1.111   .     S
C911   H933    1.109   .     S
C912   O952    1.416   .     S
C912   H935    1.101   .     S
C912   H934    1.101   .     S
C912   C913    1.524   .     S
C913   H939    1.110   .     S
C913   H936    1.110   .     S
C914   O956    1.292   .     A
C914   C916    1.406   .     S
C914   O959    1.291   .     A
C915   C917    1.406   .     S
C915   O957    1.291   .     A
C915   O958    1.293   .     A
C917   C1492   1.189   .     S
C918   Cl921   1.770   .     S
C919   Cl922   1.772   .     S
C919   C770    1.397   1_655 S
C920   Cl923   1.771   .     S
C920   C790    1.385   1_655 S
Cu925  O956    1.929   .     S
Cu925  O954    1.979   .     S
Cu925  Cu926   2.694   .     S
Cu925  O949    1.972   .     S
Cu925  N947    2.024   .     S
Cu925  O958    1.929   .     S
Cu926  O955    1.979   .     S
Cu926  O959    1.929   .     S
Cu926  O957    1.929   .     S
Cu926  O953    1.972   .     S
Cu926  N948    2.024   .     S
H937   C1489   1.109   .     S
C961   C964    1.469   .     S
C961   O1019   1.303   .     A
C961   O1013   1.299   .     A
C962   C964    1.413   .     A
C962   Cl988   1.780   .     S
C962   C1111   1.397   1_455 S
C963   C984    1.407   .     A
C963   C972    1.471   .     S
C963   C983    1.422   .     A
C964   C982    1.405   .     A
C965   N1012   1.376   .     A
C965   O1024   1.389   .     S
C966   N1011   1.376   .     A
C966   O1014   1.385   .     S
C966   C583    1.442   1_565 S
C967   O1015   1.388   .     S
C967   N1012   1.372   .     A
C968   O1016   1.387   .     S
C968   N1011   1.378   .     A
C968   C581    1.442   1_565 S
C969   O1024   1.413   .     S
C969   C970    1.526   .     S
C969   H1002   1.112   .     S
C969   H991    1.095   .     S
C970   H1006   1.111   .     S
C970   H1005   1.111   .     S
C970   H1004   1.107   .     S
C971   H1007   1.105   .     S
C971   H1008   1.106   .     S
C971   C973    1.525   .     S
C971   O1014   1.415   .     S
C972   O1018   1.294   .     A
C972   O1017   1.307   .     A
C973   H992    1.110   .     S
C973   H1009   1.110   .     S
C973   H1586   1.109   .     S
C974   H994    1.105   .     S
C974   O1015   1.413   .     S
C974   H993    1.103   .     S
C974   C975    1.522   .     S
C975   H996    1.110   .     S
C975   H995    1.111   .     S
C975   H997    1.109   .     S
C976   O1016   1.416   .     S
C976   H999    1.101   .     S
C976   H998    1.101   .     S
C976   C977    1.524   .     S
C977   H1003   1.110   .     S
C977   H1000   1.110   .     S
C978   O1020   1.292   .     A
C978   C980    1.406   .     S
C978   O1023   1.291   .     A
C979   C981    1.406   .     S
C979   O1021   1.291   .     A
C979   O1022   1.293   .     A
C981   C1556   1.189   .     S
C982   Cl985   1.770   .     S
C982   C1112   1.385   1_455 S
C983   Cl986   1.772   .     S
C983   C1026   1.397   .     S
C984   Cl987   1.771   .     S
C984   C1046   1.385   .     S
Cu989  O1020   1.929   .     S
Cu989  O1018   1.979   .     S
Cu989  Cu990   2.694   .     S
Cu989  O1013   1.972   .     S
Cu989  N1011   2.024   .     S
Cu989  O1022   1.929   .     S
Cu990  O1019   1.979   .     S
Cu990  O1023   1.929   .     S
Cu990  O1021   1.929   .     S
Cu990  O1017   1.972   .     S
Cu990  N1012   2.024   .     S
H1001  C1553   1.109   .     S
C1025  C1028   1.469   .     S
C1025  O1083   1.303   .     A
C1025  O1077   1.299   .     A
C1026  C1028   1.413   .     A
C1026  Cl1052  1.780   .     S
C1027  C1048   1.407   .     A
C1027  C1036   1.471   .     S
C1027  C1047   1.422   .     A
C1028  C1046   1.405   .     A
C1029  N1076   1.376   .     A
C1029  O1088   1.389   .     S
C1030  N1075   1.376   .     A
C1030  O1078   1.385   .     S
C1030  C647    1.442   1_565 S
C1031  O1079   1.388   .     S
C1031  N1076   1.372   .     A
C1032  O1080   1.387   .     S
C1032  N1075   1.378   .     A
C1032  C645    1.442   1_565 S
C1033  O1088   1.413   .     S
C1033  C1034   1.526   .     S
C1033  H1066   1.112   .     S
C1033  H1055   1.095   .     S
C1034  H1070   1.111   .     S
C1034  H1069   1.111   .     S
C1034  H1068   1.107   .     S
C1035  H1071   1.105   .     S
C1035  H1072   1.106   .     S
C1035  C1037   1.525   .     S
C1035  O1078   1.415   .     S
C1036  O1082   1.294   .     A
C1036  O1081   1.307   .     A
C1037  H1056   1.110   .     S
C1037  H1073   1.110   .     S
C1037  H1650   1.109   .     S
C1038  H1058   1.105   .     S
C1038  O1079   1.413   .     S
C1038  H1057   1.103   .     S
C1038  C1039   1.522   .     S
C1039  H1060   1.110   .     S
C1039  H1059   1.111   .     S
C1039  H1061   1.109   .     S
C1040  O1080   1.416   .     S
C1040  H1063   1.101   .     S
C1040  H1062   1.101   .     S
C1040  C1041   1.524   .     S
C1041  H1067   1.110   .     S
C1041  H1064   1.110   .     S
C1042  O1084   1.292   .     A
C1042  C1044   1.406   .     S
C1042  O1087   1.291   .     A
C1043  C1045   1.406   .     S
C1043  O1085   1.291   .     A
C1043  O1086   1.293   .     A
C1045  C1620   1.189   .     S
C1046  Cl1049  1.770   .     S
C1047  Cl1050  1.772   .     S
C1047  C1090   1.397   .     S
C1048  Cl1051  1.771   .     S
C1048  C1110   1.385   .     S
Cu1053 O1084   1.929   .     S
Cu1053 O1082   1.979   .     S
Cu1053 Cu1054  2.694   .     S
Cu1053 O1077   1.972   .     S
Cu1053 N1075   2.024   .     S
Cu1053 O1086   1.929   .     S
Cu1054 O1083   1.979   .     S
Cu1054 O1087   1.929   .     S
Cu1054 O1085   1.929   .     S
Cu1054 O1081   1.972   .     S
Cu1054 N1076   2.024   .     S
H1065  C1617   1.109   .     S
C1089  C1092   1.469   .     S
C1089  O1147   1.303   .     A
C1089  O1141   1.299   .     A
C1090  C1092   1.413   .     A
C1090  Cl1116  1.780   .     S
C1091  C1112   1.407   .     A
C1091  C1100   1.471   .     S
C1091  C1111   1.422   .     A
C1092  C1110   1.405   .     A
C1093  N1140   1.376   .     A
C1093  O1152   1.389   .     S
C1094  N1139   1.376   .     A
C1094  O1142   1.385   .     S
C1094  C711    1.442   1_565 S
C1095  O1143   1.388   .     S
C1095  N1140   1.372   .     A
C1096  O1144   1.387   .     S
C1096  N1139   1.378   .     A
C1096  C709    1.442   1_565 S
C1097  O1152   1.413   .     S
C1097  C1098   1.526   .     S
C1097  H1130   1.112   .     S
C1097  H1119   1.095   .     S
C1098  H1134   1.111   .     S
C1098  H1133   1.111   .     S
C1098  H1132   1.107   .     S
C1099  H1135   1.105   .     S
C1099  H1136   1.106   .     S
C1099  C1101   1.525   .     S
C1099  O1142   1.415   .     S
C1100  O1146   1.294   .     A
C1100  O1145   1.307   .     A
C1101  H1120   1.110   .     S
C1101  H1137   1.110   .     S
C1101  H1714   1.109   .     S
C1102  H1122   1.105   .     S
C1102  O1143   1.413   .     S
C1102  H1121   1.103   .     S
C1102  C1103   1.522   .     S
C1103  H1124   1.110   .     S
C1103  H1123   1.111   .     S
C1103  H1125   1.109   .     S
C1104  O1144   1.416   .     S
C1104  H1127   1.101   .     S
C1104  H1126   1.101   .     S
C1104  C1105   1.524   .     S
C1105  H1131   1.110   .     S
C1105  H1128   1.110   .     S
C1106  O1148   1.292   .     A
C1106  C1108   1.406   .     S
C1106  O1151   1.291   .     A
C1107  C1109   1.406   .     S
C1107  O1149   1.291   .     A
C1107  O1150   1.293   .     A
C1109  C1684   1.189   .     S
C1110  Cl1113  1.770   .     S
C1111  Cl1114  1.772   .     S
C1111  C962    1.397   1_655 S
C1112  Cl1115  1.771   .     S
C1112  C982    1.385   1_655 S
Cu1117 O1148   1.929   .     S
Cu1117 O1146   1.979   .     S
Cu1117 Cu1118  2.694   .     S
Cu1117 O1141   1.972   .     S
Cu1117 N1139   2.024   .     S
Cu1117 O1150   1.929   .     S
Cu1118 O1147   1.979   .     S
Cu1118 O1151   1.929   .     S
Cu1118 O1149   1.929   .     S
Cu1118 O1145   1.972   .     S
Cu1118 N1140   2.024   .     S
H1129  C1681   1.109   .     S
C1153  C1156   1.469   .     S
C1153  O1211   1.303   .     A
C1153  O1205   1.299   .     A
C1154  C1156   1.413   .     A
C1154  Cl1180  1.780   .     S
C1154  C1303   1.397   1_455 S
C1155  C1176   1.407   .     A
C1155  C1164   1.471   .     S
C1155  C1175   1.422   .     A
C1156  C1174   1.405   .     A
C1157  N1204   1.376   .     A
C1157  O1216   1.389   .     S
C1157  C1544   1.442   1_545 S
C1158  N1203   1.376   .     A
C1158  O1206   1.385   .     S
C1158  C1351   1.442   .     S
C1159  O1207   1.388   .     S
C1159  N1204   1.372   .     A
C1159  C1542   1.442   1_545 S
C1160  O1208   1.387   .     S
C1160  N1203   1.378   .     A
C1160  C1349   1.442   .     S
C1161  O1216   1.413   .     S
C1161  C1162   1.526   .     S
C1161  H1194   1.112   .     S
C1161  H1183   1.095   .     S
C1162  H1198   1.111   .     S
C1162  H1197   1.111   .     S
C1162  H1196   1.107   .     S
C1163  H1199   1.105   .     S
C1163  H1200   1.106   .     S
C1163  C1165   1.525   .     S
C1163  O1206   1.415   .     S
C1164  O1210   1.294   .     A
C1164  O1209   1.307   .     A
C1165  H1184   1.110   .     S
C1165  H1201   1.110   .     S
C1165  H50     1.109   1_556 S
C1166  H1186   1.105   .     S
C1166  O1207   1.413   .     S
C1166  H1185   1.103   .     S
C1166  C1167   1.522   .     S
C1167  H1188   1.110   .     S
C1167  H1187   1.111   .     S
C1167  H1189   1.109   .     S
C1168  O1208   1.416   .     S
C1168  H1191   1.101   .     S
C1168  H1190   1.101   .     S
C1168  C1169   1.524   .     S
C1169  H1195   1.110   .     S
C1169  H1192   1.110   .     S
C1170  O1212   1.292   .     A
C1170  C1172   1.406   .     S
C1170  O1215   1.291   .     A
C1171  C1173   1.406   .     S
C1171  O1213   1.291   .     A
C1171  O1214   1.293   .     A
C1173  C20     1.189   1_556 S
C1174  Cl1177  1.770   .     S
C1174  C1304   1.385   1_455 S
C1175  Cl1178  1.772   .     S
C1175  C1218   1.397   .     S
C1176  Cl1179  1.771   .     S
C1176  C1238   1.385   .     S
Cu1181 O1212   1.929   .     S
Cu1181 O1210   1.979   .     S
Cu1181 Cu1182  2.694   .     S
Cu1181 O1205   1.972   .     S
Cu1181 N1203   2.024   .     S
Cu1181 O1214   1.929   .     S
Cu1182 O1211   1.979   .     S
Cu1182 O1215   1.929   .     S
Cu1182 O1213   1.929   .     S
Cu1182 O1209   1.972   .     S
Cu1182 N1204   2.024   .     S
H1193  C17     1.109   1_556 S
C1217  C1220   1.469   .     S
C1217  O1275   1.303   .     A
C1217  O1269   1.299   .     A
C1218  C1220   1.413   .     A
C1218  Cl1244  1.780   .     S
C1219  C1240   1.407   .     A
C1219  C1228   1.471   .     S
C1219  C1239   1.422   .     A
C1220  C1238   1.405   .     A
C1221  N1268   1.376   .     A
C1221  O1280   1.389   .     S
C1221  C1608   1.442   1_545 S
C1222  N1267   1.376   .     A
C1222  O1270   1.385   .     S
C1222  C1415   1.442   .     S
C1223  O1271   1.388   .     S
C1223  N1268   1.372   .     A
C1223  C1606   1.442   1_545 S
C1224  O1272   1.387   .     S
C1224  N1267   1.378   .     A
C1224  C1413   1.442   .     S
C1225  O1280   1.413   .     S
C1225  C1226   1.526   .     S
C1225  H1258   1.112   .     S
C1225  H1247   1.095   .     S
C1226  H1262   1.111   .     S
C1226  H1261   1.111   .     S
C1226  H1260   1.107   .     S
C1227  H1263   1.105   .     S
C1227  H1264   1.106   .     S
C1227  C1229   1.525   .     S
C1227  O1270   1.415   .     S
C1228  O1274   1.294   .     A
C1228  O1273   1.307   .     A
C1229  H1248   1.110   .     S
C1229  H1265   1.110   .     S
C1229  H114    1.109   1_556 S
C1230  H1250   1.105   .     S
C1230  O1271   1.413   .     S
C1230  H1249   1.103   .     S
C1230  C1231   1.522   .     S
C1231  H1252   1.110   .     S
C1231  H1251   1.111   .     S
C1231  H1253   1.109   .     S
C1232  O1272   1.416   .     S
C1232  H1255   1.101   .     S
C1232  H1254   1.101   .     S
C1232  C1233   1.524   .     S
C1233  H1259   1.110   .     S
C1233  H1256   1.110   .     S
C1234  O1276   1.292   .     A
C1234  C1236   1.406   .     S
C1234  O1279   1.291   .     A
C1235  C1237   1.406   .     S
C1235  O1277   1.291   .     A
C1235  O1278   1.293   .     A
C1237  C84     1.189   1_556 S
C1238  Cl1241  1.770   .     S
C1239  Cl1242  1.772   .     S
C1239  C1282   1.397   .     S
C1240  Cl1243  1.771   .     S
C1240  C1302   1.385   .     S
Cu1245 O1276   1.929   .     S
Cu1245 O1274   1.979   .     S
Cu1245 Cu1246  2.694   .     S
Cu1245 O1269   1.972   .     S
Cu1245 N1267   2.024   .     S
Cu1245 O1278   1.929   .     S
Cu1246 O1275   1.979   .     S
Cu1246 O1279   1.929   .     S
Cu1246 O1277   1.929   .     S
Cu1246 O1273   1.972   .     S
Cu1246 N1268   2.024   .     S
H1257  C81     1.109   1_556 S
C1281  C1284   1.469   .     S
C1281  O1339   1.303   .     A
C1281  O1333   1.299   .     A
C1282  C1284   1.413   .     A
C1282  Cl1308  1.780   .     S
C1283  C1304   1.407   .     A
C1283  C1292   1.471   .     S
C1283  C1303   1.422   .     A
C1284  C1302   1.405   .     A
C1285  N1332   1.376   .     A
C1285  O1344   1.389   .     S
C1285  C1672   1.442   1_545 S
C1286  N1331   1.376   .     A
C1286  O1334   1.385   .     S
C1286  C1479   1.442   .     S
C1287  O1335   1.388   .     S
C1287  N1332   1.372   .     A
C1287  C1670   1.442   1_545 S
C1288  O1336   1.387   .     S
C1288  N1331   1.378   .     A
C1288  C1477   1.442   .     S
C1289  O1344   1.413   .     S
C1289  C1290   1.526   .     S
C1289  H1322   1.112   .     S
C1289  H1311   1.095   .     S
C1290  H1326   1.111   .     S
C1290  H1325   1.111   .     S
C1290  H1324   1.107   .     S
C1291  H1327   1.105   .     S
C1291  H1328   1.106   .     S
C1291  C1293   1.525   .     S
C1291  O1334   1.415   .     S
C1292  O1338   1.294   .     A
C1292  O1337   1.307   .     A
C1293  H1312   1.110   .     S
C1293  H1329   1.110   .     S
C1293  H178    1.109   1_556 S
C1294  H1314   1.105   .     S
C1294  O1335   1.413   .     S
C1294  H1313   1.103   .     S
C1294  C1295   1.522   .     S
C1295  H1316   1.110   .     S
C1295  H1315   1.111   .     S
C1295  H1317   1.109   .     S
C1296  O1336   1.416   .     S
C1296  H1319   1.101   .     S
C1296  H1318   1.101   .     S
C1296  C1297   1.524   .     S
C1297  H1323   1.110   .     S
C1297  H1320   1.110   .     S
C1298  O1340   1.292   .     A
C1298  C1300   1.406   .     S
C1298  O1343   1.291   .     A
C1299  C1301   1.406   .     S
C1299  O1341   1.291   .     A
C1299  O1342   1.293   .     A
C1301  C148    1.189   1_556 S
C1302  Cl1305  1.770   .     S
C1303  Cl1306  1.772   .     S
C1303  C1154   1.397   1_655 S
C1304  Cl1307  1.771   .     S
C1304  C1174   1.385   1_655 S
Cu1309 O1340   1.929   .     S
Cu1309 O1338   1.979   .     S
Cu1309 Cu1310  2.694   .     S
Cu1309 O1333   1.972   .     S
Cu1309 N1331   2.024   .     S
Cu1309 O1342   1.929   .     S
Cu1310 O1339   1.979   .     S
Cu1310 O1343   1.929   .     S
Cu1310 O1341   1.929   .     S
Cu1310 O1337   1.972   .     S
Cu1310 N1332   2.024   .     S
H1321  C145    1.109   1_556 S
C1345  C1348   1.469   .     S
C1345  O1403   1.303   .     A
C1345  O1397   1.299   .     A
C1346  C1348   1.413   .     A
C1346  Cl1372  1.780   .     S
C1346  C1495   1.397   1_455 S
C1347  C1368   1.407   .     A
C1347  C1356   1.471   .     S
C1347  C1367   1.422   .     A
C1348  C1366   1.405   .     A
C1349  N1396   1.376   .     A
C1349  O1408   1.389   .     S
C1350  N1395   1.376   .     A
C1350  O1398   1.385   .     S
C1350  C1543   1.442   .     S
C1351  O1399   1.388   .     S
C1351  N1396   1.372   .     A
C1352  O1400   1.387   .     S
C1352  N1395   1.378   .     A
C1352  C1541   1.442   .     S
C1353  O1408   1.413   .     S
C1353  C1354   1.526   .     S
C1353  H1386   1.112   .     S
C1353  H1375   1.095   .     S
C1354  H1390   1.111   .     S
C1354  H1389   1.111   .     S
C1354  H1388   1.107   .     S
C1355  H1391   1.105   .     S
C1355  H1392   1.106   .     S
C1355  C1357   1.525   .     S
C1355  O1398   1.415   .     S
C1356  O1402   1.294   .     A
C1356  O1401   1.307   .     A
C1357  H1376   1.110   .     S
C1357  H1393   1.110   .     S
C1357  H242    1.109   1_556 S
C1358  H1378   1.105   .     S
C1358  O1399   1.413   .     S
C1358  H1377   1.103   .     S
C1358  C1359   1.522   .     S
C1359  H1380   1.110   .     S
C1359  H1379   1.111   .     S
C1359  H1381   1.109   .     S
C1360  O1400   1.416   .     S
C1360  H1383   1.101   .     S
C1360  H1382   1.101   .     S
C1360  C1361   1.524   .     S
C1361  H1387   1.110   .     S
C1361  H1384   1.110   .     S
C1362  O1404   1.292   .     A
C1362  C1364   1.406   .     S
C1362  O1407   1.291   .     A
C1363  C1365   1.406   .     S
C1363  O1405   1.291   .     A
C1363  O1406   1.293   .     A
C1365  C212    1.189   1_556 S
C1366  Cl1369  1.770   .     S
C1366  C1496   1.385   1_455 S
C1367  Cl1370  1.772   .     S
C1367  C1410   1.397   .     S
C1368  Cl1371  1.771   .     S
C1368  C1430   1.385   .     S
Cu1373 O1404   1.929   .     S
Cu1373 O1402   1.979   .     S
Cu1373 Cu1374  2.694   .     S
Cu1373 O1397   1.972   .     S
Cu1373 N1395   2.024   .     S
Cu1373 O1406   1.929   .     S
Cu1374 O1403   1.979   .     S
Cu1374 O1407   1.929   .     S
Cu1374 O1405   1.929   .     S
Cu1374 O1401   1.972   .     S
Cu1374 N1396   2.024   .     S
H1385  C209    1.109   1_556 S
C1409  C1412   1.469   .     S
C1409  O1467   1.303   .     A
C1409  O1461   1.299   .     A
C1410  C1412   1.413   .     A
C1410  Cl1436  1.780   .     S
C1411  C1432   1.407   .     A
C1411  C1420   1.471   .     S
C1411  C1431   1.422   .     A
C1412  C1430   1.405   .     A
C1413  N1460   1.376   .     A
C1413  O1472   1.389   .     S
C1414  N1459   1.376   .     A
C1414  O1462   1.385   .     S
C1414  C1607   1.442   .     S
C1415  O1463   1.388   .     S
C1415  N1460   1.372   .     A
C1416  O1464   1.387   .     S
C1416  N1459   1.378   .     A
C1416  C1605   1.442   .     S
C1417  O1472   1.413   .     S
C1417  C1418   1.526   .     S
C1417  H1450   1.112   .     S
C1417  H1439   1.095   .     S
C1418  H1454   1.111   .     S
C1418  H1453   1.111   .     S
C1418  H1452   1.107   .     S
C1419  H1455   1.105   .     S
C1419  H1456   1.106   .     S
C1419  C1421   1.525   .     S
C1419  O1462   1.415   .     S
C1420  O1466   1.294   .     A
C1420  O1465   1.307   .     A
C1421  H1440   1.110   .     S
C1421  H1457   1.110   .     S
C1421  H306    1.109   1_556 S
C1422  H1442   1.105   .     S
C1422  O1463   1.413   .     S
C1422  H1441   1.103   .     S
C1422  C1423   1.522   .     S
C1423  H1444   1.110   .     S
C1423  H1443   1.111   .     S
C1423  H1445   1.109   .     S
C1424  O1464   1.416   .     S
C1424  H1447   1.101   .     S
C1424  H1446   1.101   .     S
C1424  C1425   1.524   .     S
C1425  H1451   1.110   .     S
C1425  H1448   1.110   .     S
C1426  O1468   1.292   .     A
C1426  C1428   1.406   .     S
C1426  O1471   1.291   .     A
C1427  C1429   1.406   .     S
C1427  O1469   1.291   .     A
C1427  O1470   1.293   .     A
C1429  C276    1.189   1_556 S
C1430  Cl1433  1.770   .     S
C1431  Cl1434  1.772   .     S
C1431  C1474   1.397   .     S
C1432  Cl1435  1.771   .     S
C1432  C1494   1.385   .     S
Cu1437 O1468   1.929   .     S
Cu1437 O1466   1.979   .     S
Cu1437 Cu1438  2.694   .     S
Cu1437 O1461   1.972   .     S
Cu1437 N1459   2.024   .     S
Cu1437 O1470   1.929   .     S
Cu1438 O1467   1.979   .     S
Cu1438 O1471   1.929   .     S
Cu1438 O1469   1.929   .     S
Cu1438 O1465   1.972   .     S
Cu1438 N1460   2.024   .     S
H1449  C273    1.109   1_556 S
C1473  C1476   1.469   .     S
C1473  O1531   1.303   .     A
C1473  O1525   1.299   .     A
C1474  C1476   1.413   .     A
C1474  Cl1500  1.780   .     S
C1475  C1496   1.407   .     A
C1475  C1484   1.471   .     S
C1475  C1495   1.422   .     A
C1476  C1494   1.405   .     A
C1477  N1524   1.376   .     A
C1477  O1536   1.389   .     S
C1478  N1523   1.376   .     A
C1478  O1526   1.385   .     S
C1478  C1671   1.442   .     S
C1479  O1527   1.388   .     S
C1479  N1524   1.372   .     A
C1480  O1528   1.387   .     S
C1480  N1523   1.378   .     A
C1480  C1669   1.442   .     S
C1481  O1536   1.413   .     S
C1481  C1482   1.526   .     S
C1481  H1514   1.112   .     S
C1481  H1503   1.095   .     S
C1482  H1518   1.111   .     S
C1482  H1517   1.111   .     S
C1482  H1516   1.107   .     S
C1483  H1519   1.105   .     S
C1483  H1520   1.106   .     S
C1483  C1485   1.525   .     S
C1483  O1526   1.415   .     S
C1484  O1530   1.294   .     A
C1484  O1529   1.307   .     A
C1485  H1504   1.110   .     S
C1485  H1521   1.110   .     S
C1485  H370    1.109   1_556 S
C1486  H1506   1.105   .     S
C1486  O1527   1.413   .     S
C1486  H1505   1.103   .     S
C1486  C1487   1.522   .     S
C1487  H1508   1.110   .     S
C1487  H1507   1.111   .     S
C1487  H1509   1.109   .     S
C1488  O1528   1.416   .     S
C1488  H1511   1.101   .     S
C1488  H1510   1.101   .     S
C1488  C1489   1.524   .     S
C1489  H1515   1.110   .     S
C1489  H1512   1.110   .     S
C1490  O1532   1.292   .     A
C1490  C1492   1.406   .     S
C1490  O1535   1.291   .     A
C1491  C1493   1.406   .     S
C1491  O1533   1.291   .     A
C1491  O1534   1.293   .     A
C1493  C340    1.189   1_556 S
C1494  Cl1497  1.770   .     S
C1495  Cl1498  1.772   .     S
C1495  C1346   1.397   1_655 S
C1496  Cl1499  1.771   .     S
C1496  C1366   1.385   1_655 S
Cu1501 O1532   1.929   .     S
Cu1501 O1530   1.979   .     S
Cu1501 Cu1502  2.694   .     S
Cu1501 O1525   1.972   .     S
Cu1501 N1523   2.024   .     S
Cu1501 O1534   1.929   .     S
Cu1502 O1531   1.979   .     S
Cu1502 O1535   1.929   .     S
Cu1502 O1533   1.929   .     S
Cu1502 O1529   1.972   .     S
Cu1502 N1524   2.024   .     S
H1513  C337    1.109   1_556 S
C1537  C1540   1.469   .     S
C1537  O1595   1.303   .     A
C1537  O1589   1.299   .     A
C1538  C1540   1.413   .     A
C1538  Cl1564  1.780   .     S
C1538  C1687   1.397   1_455 S
C1539  C1560   1.407   .     A
C1539  C1548   1.471   .     S
C1539  C1559   1.422   .     A
C1540  C1558   1.405   .     A
C1541  N1588   1.376   .     A
C1541  O1600   1.389   .     S
C1542  N1587   1.376   .     A
C1542  O1590   1.385   .     S
C1542  C1159   1.442   1_565 S
C1543  O1591   1.388   .     S
C1543  N1588   1.372   .     A
C1544  O1592   1.387   .     S
C1544  N1587   1.378   .     A
C1544  C1157   1.442   1_565 S
C1545  O1600   1.413   .     S
C1545  C1546   1.526   .     S
C1545  H1578   1.112   .     S
C1545  H1567   1.095   .     S
C1546  H1582   1.111   .     S
C1546  H1581   1.111   .     S
C1546  H1580   1.107   .     S
C1547  H1583   1.105   .     S
C1547  H1584   1.106   .     S
C1547  C1549   1.525   .     S
C1547  O1590   1.415   .     S
C1548  O1594   1.294   .     A
C1548  O1593   1.307   .     A
C1549  H1568   1.110   .     S
C1549  H1585   1.110   .     S
C1549  H434    1.109   1_556 S
C1550  H1570   1.105   .     S
C1550  O1591   1.413   .     S
C1550  H1569   1.103   .     S
C1550  C1551   1.522   .     S
C1551  H1572   1.110   .     S
C1551  H1571   1.111   .     S
C1551  H1573   1.109   .     S
C1552  O1592   1.416   .     S
C1552  H1575   1.101   .     S
C1552  H1574   1.101   .     S
C1552  C1553   1.524   .     S
C1553  H1579   1.110   .     S
C1553  H1576   1.110   .     S
C1554  O1596   1.292   .     A
C1554  C1556   1.406   .     S
C1554  O1599   1.291   .     A
C1555  C1557   1.406   .     S
C1555  O1597   1.291   .     A
C1555  O1598   1.293   .     A
C1557  C404    1.189   1_556 S
C1558  Cl1561  1.770   .     S
C1558  C1688   1.385   1_455 S
C1559  Cl1562  1.772   .     S
C1559  C1602   1.397   .     S
C1560  Cl1563  1.771   .     S
C1560  C1622   1.385   .     S
Cu1565 O1596   1.929   .     S
Cu1565 O1594   1.979   .     S
Cu1565 Cu1566  2.694   .     S
Cu1565 O1589   1.972   .     S
Cu1565 N1587   2.024   .     S
Cu1565 O1598   1.929   .     S
Cu1566 O1595   1.979   .     S
Cu1566 O1599   1.929   .     S
Cu1566 O1597   1.929   .     S
Cu1566 O1593   1.972   .     S
Cu1566 N1588   2.024   .     S
H1577  C401    1.109   1_556 S
C1601  C1604   1.469   .     S
C1601  O1659   1.303   .     A
C1601  O1653   1.299   .     A
C1602  C1604   1.413   .     A
C1602  Cl1628  1.780   .     S
C1603  C1624   1.407   .     A
C1603  C1612   1.471   .     S
C1603  C1623   1.422   .     A
C1604  C1622   1.405   .     A
C1605  N1652   1.376   .     A
C1605  O1664   1.389   .     S
C1606  N1651   1.376   .     A
C1606  O1654   1.385   .     S
C1606  C1223   1.442   1_565 S
C1607  O1655   1.388   .     S
C1607  N1652   1.372   .     A
C1608  O1656   1.387   .     S
C1608  N1651   1.378   .     A
C1608  C1221   1.442   1_565 S
C1609  O1664   1.413   .     S
C1609  C1610   1.526   .     S
C1609  H1642   1.112   .     S
C1609  H1631   1.095   .     S
C1610  H1646   1.111   .     S
C1610  H1645   1.111   .     S
C1610  H1644   1.107   .     S
C1611  H1647   1.105   .     S
C1611  H1648   1.106   .     S
C1611  C1613   1.525   .     S
C1611  O1654   1.415   .     S
C1612  O1658   1.294   .     A
C1612  O1657   1.307   .     A
C1613  H1632   1.110   .     S
C1613  H1649   1.110   .     S
C1613  H498    1.109   1_556 S
C1614  H1634   1.105   .     S
C1614  O1655   1.413   .     S
C1614  H1633   1.103   .     S
C1614  C1615   1.522   .     S
C1615  H1636   1.110   .     S
C1615  H1635   1.111   .     S
C1615  H1637   1.109   .     S
C1616  O1656   1.416   .     S
C1616  H1639   1.101   .     S
C1616  H1638   1.101   .     S
C1616  C1617   1.524   .     S
C1617  H1643   1.110   .     S
C1617  H1640   1.110   .     S
C1618  O1660   1.292   .     A
C1618  C1620   1.406   .     S
C1618  O1663   1.291   .     A
C1619  C1621   1.406   .     S
C1619  O1661   1.291   .     A
C1619  O1662   1.293   .     A
C1621  C468    1.189   1_556 S
C1622  Cl1625  1.770   .     S
C1623  Cl1626  1.772   .     S
C1623  C1666   1.397   .     S
C1624  Cl1627  1.771   .     S
C1624  C1686   1.385   .     S
Cu1629 O1660   1.929   .     S
Cu1629 O1658   1.979   .     S
Cu1629 Cu1630  2.694   .     S
Cu1629 O1653   1.972   .     S
Cu1629 N1651   2.024   .     S
Cu1629 O1662   1.929   .     S
Cu1630 O1659   1.979   .     S
Cu1630 O1663   1.929   .     S
Cu1630 O1661   1.929   .     S
Cu1630 O1657   1.972   .     S
Cu1630 N1652   2.024   .     S
H1641  C465    1.109   1_556 S
C1665  C1668   1.469   .     S
C1665  O1723   1.303   .     A
C1665  O1717   1.299   .     A
C1666  C1668   1.413   .     A
C1666  Cl1692  1.780   .     S
C1667  C1688   1.407   .     A
C1667  C1676   1.471   .     S
C1667  C1687   1.422   .     A
C1668  C1686   1.405   .     A
C1669  N1716   1.376   .     A
C1669  O1728   1.389   .     S
C1670  N1715   1.376   .     A
C1670  O1718   1.385   .     S
C1670  C1287   1.442   1_565 S
C1671  O1719   1.388   .     S
C1671  N1716   1.372   .     A
C1672  O1720   1.387   .     S
C1672  N1715   1.378   .     A
C1672  C1285   1.442   1_565 S
C1673  O1728   1.413   .     S
C1673  C1674   1.526   .     S
C1673  H1706   1.112   .     S
C1673  H1695   1.095   .     S
C1674  H1710   1.111   .     S
C1674  H1709   1.111   .     S
C1674  H1708   1.107   .     S
C1675  H1711   1.105   .     S
C1675  H1712   1.106   .     S
C1675  C1677   1.525   .     S
C1675  O1718   1.415   .     S
C1676  O1722   1.294   .     A
C1676  O1721   1.307   .     A
C1677  H1696   1.110   .     S
C1677  H1713   1.110   .     S
C1677  H562    1.109   1_556 S
C1678  H1698   1.105   .     S
C1678  O1719   1.413   .     S
C1678  H1697   1.103   .     S
C1678  C1679   1.522   .     S
C1679  H1700   1.110   .     S
C1679  H1699   1.111   .     S
C1679  H1701   1.109   .     S
C1680  O1720   1.416   .     S
C1680  H1703   1.101   .     S
C1680  H1702   1.101   .     S
C1680  C1681   1.524   .     S
C1681  H1707   1.110   .     S
C1681  H1704   1.110   .     S
C1682  O1724   1.292   .     A
C1682  C1684   1.406   .     S
C1682  O1727   1.291   .     A
C1683  C1685   1.406   .     S
C1683  O1725   1.291   .     A
C1683  O1726   1.293   .     A
C1685  C532    1.189   1_556 S
C1686  Cl1689  1.770   .     S
C1687  Cl1690  1.772   .     S
C1687  C1538   1.397   1_655 S
C1688  Cl1691  1.771   .     S
C1688  C1558   1.385   1_655 S
Cu1693 O1724   1.929   .     S
Cu1693 O1722   1.979   .     S
Cu1693 Cu1694  2.694   .     S
Cu1693 O1717   1.972   .     S
Cu1693 N1715   2.024   .     S
Cu1693 O1726   1.929   .     S
Cu1694 O1723   1.979   .     S
Cu1694 O1727   1.929   .     S
Cu1694 O1725   1.929   .     S
Cu1694 O1721   1.972   .     S
Cu1694 N1716   2.024   .     S
H1705  C529    1.109   1_556 S
