data_str_m3_o2_o10_pcu_sym.91
_audit_creation_date              2020-01-03
_audit_creation_method            'Materials Studio'
_symmetry_space_group_name_H-M    'P1'
_symmetry_Int_Tables_number       1
_symmetry_cell_setting            triclinic
loop_
_symmetry_equiv_pos_as_xyz
  x,y,z
_cell_length_a                    25.7769
_cell_length_b                    29.9978
_cell_length_c                    28.4850
_cell_angle_alpha                 90.7555
_cell_angle_beta                  99.1514
_cell_angle_gamma                 90.9603
loop_
_atom_site_label
_atom_site_type_symbol
_atom_site_fract_x
_atom_site_fract_y
_atom_site_fract_z
_atom_site_U_iso_or_equiv
_atom_site_adp_type
_atom_site_occupancy
C1     C     0.16604   0.16393   0.24966   0.00000  Uiso   1.00
C2     C     0.13983   0.21598   0.44266   0.00000  Uiso   1.00
C3     C     0.16718   0.24954   0.02672   0.00000  Uiso   1.00
C4     C     0.16668   0.24921   0.47338   0.00000  Uiso   1.00
C5     C     0.06701   0.24992   0.23746   0.00000  Uiso   1.00
C6     C     0.26633   0.25005   0.26254   0.00000  Uiso   1.00
C7     C     0.01184   0.24988   0.23080   0.00000  Uiso   1.00
C8     C     0.32149   0.25004   0.26918   0.00000  Uiso   1.00
C9     C     0.13955   0.04792   0.28436   0.00000  Uiso   1.00
C10    C     0.14097   0.45127   0.20703   0.00000  Uiso   1.00
C11    C     0.14256   0.09391   0.28498   0.00000  Uiso   1.00
C12    C     0.16612   0.33608   0.25015   0.00000  Uiso   1.00
C13    C     0.14395   0.40538   0.20749   0.00000  Uiso   1.00
C14    C     0.16303   0.11602   0.24880   0.00000  Uiso   1.00
C15    C     0.16307   0.38396   0.24997   0.00000  Uiso   1.00
C16    C     0.17996   0.09216   0.21173   0.00000  Uiso   1.00
C17    C     0.17867   0.40847   0.29207   0.00000  Uiso   1.00
C18    C     0.17755   0.04612   0.21145   0.00000  Uiso   1.00
C19    C     0.17629   0.45442   0.29149   0.00000  Uiso   1.00
C20    C     0.15759   0.02399   0.24791   0.00000  Uiso   1.00
C21    C     0.15765   0.47585   0.24892   0.00000  Uiso   1.00
C22    C     0.08502   0.20294   0.11367   0.00000  Uiso   1.00
C23    C     0.12602   0.22956   0.04608   0.00000  Uiso   1.00
C24    C     0.22729   0.31638   0.38417   0.00000  Uiso   1.00
C25    C     0.19315   0.28271   0.45229   0.00000  Uiso   1.00
C26    C     0.12680   0.22879   0.09567   0.00000  Uiso   1.00
C27    C     0.19422   0.28227   0.40295   0.00000  Uiso   1.00
C28    C     0.20686   0.27031   0.10838   0.00000  Uiso   1.00
C29    C     0.13977   0.21735   0.39318   0.00000  Uiso   1.00
C30    C     0.20830   0.26989   0.05912   0.00000  Uiso   1.00
H31    H     0.32424   0.24974   0.19448   0.00000  Uiso   1.00
H32    H     0.19000   0.47324   0.32394   0.00000  Uiso   1.00
H33    H     0.09333   0.21392   0.02283   0.00000  Uiso   1.00
H34    H     0.21355   0.30929   0.47417   0.00000  Uiso   1.00
H35    H     0.23851   0.28646   0.13243   0.00000  Uiso   1.00
H36    H     0.11863   0.19176   0.37031   0.00000  Uiso   1.00
H37    H     0.24203   0.28502   0.04696   0.00000  Uiso   1.00
H38    H     0.11942   0.18854   0.45646   0.00000  Uiso   1.00
H39    H     0.09226   0.18755   0.14798   0.00000  Uiso   1.00
H40    H     0.24092   0.31157   0.35077   0.00000  Uiso   1.00
H41    H     0.00910   0.25016   0.30549   0.00000  Uiso   1.00
H42    H     0.12336   0.03103   0.31232   0.00000  Uiso   1.00
H43    H     0.12582   0.46759   0.17411   0.00000  Uiso   1.00
H44    H     0.12856   0.11212   0.31344   0.00000  Uiso   1.00
H45    H     0.13098   0.38669   0.17480   0.00000  Uiso   1.00
H46    H     0.19595   0.10902   0.18365   0.00000  Uiso   1.00
H47    H     0.19357   0.39228   0.32506   0.00000  Uiso   1.00
H48    H     0.19230   0.02781   0.18346   0.00000  Uiso   1.00
N49    N     0.16667   0.24999   0.12624   0.00000  Uiso   1.00
N50    N     0.16667   0.25001   0.37377   0.00000  Uiso   1.00
O51    O     0.16667   0.18454   0.28974   0.00000  Uiso   1.00
O52    O     0.24111   0.35056   0.40683   0.00000  Uiso   1.00
O53    O     0.16666   0.31547   0.21026   0.00000  Uiso   1.00
O54    O     0.16667   0.18453   0.21026   0.00000  Uiso   1.00
O55    O     0.16666   0.31547   0.28974   0.00000  Uiso   1.00
O56    O     0.09058   0.25000   0.28045   0.00000  Uiso   1.00
O57    O     0.24275   0.25000   0.21956   0.00000  Uiso   1.00
O58    O     0.09058   0.25000   0.20097   0.00000  Uiso   1.00
O59    O     0.24275   0.25001   0.29904   0.00000  Uiso   1.00
O60    O     0.04176   0.19745   0.08947   0.00000  Uiso   1.00
Zn61   Zn    0.16667   0.25001   0.30307   0.00000  Uiso   1.00
Zn62   Zn    0.16667   0.25000   0.19693   0.00000  Uiso   1.00
C63    C     0.49937   0.16393   0.24966   0.00000  Uiso   1.00
C64    C     0.47317   0.21598   0.44266   0.00000  Uiso   1.00
C65    C     0.50051   0.24954   0.02672   0.00000  Uiso   1.00
C66    C     0.50001   0.24921   0.47338   0.00000  Uiso   1.00
C67    C     0.40034   0.24992   0.23746   0.00000  Uiso   1.00
C68    C     0.59966   0.25005   0.26254   0.00000  Uiso   1.00
C69    C     0.34517   0.24988   0.23080   0.00000  Uiso   1.00
C70    C     0.65482   0.25004   0.26918   0.00000  Uiso   1.00
C71    C     0.47288   0.04792   0.28436   0.00000  Uiso   1.00
C72    C     0.47430   0.45127   0.20703   0.00000  Uiso   1.00
C73    C     0.47589   0.09391   0.28498   0.00000  Uiso   1.00
C74    C     0.49945   0.33608   0.25015   0.00000  Uiso   1.00
C75    C     0.47728   0.40538   0.20749   0.00000  Uiso   1.00
C76    C     0.49637   0.11602   0.24880   0.00000  Uiso   1.00
C77    C     0.49641   0.38396   0.24997   0.00000  Uiso   1.00
C78    C     0.51329   0.09216   0.21173   0.00000  Uiso   1.00
C79    C     0.51200   0.40847   0.29207   0.00000  Uiso   1.00
C80    C     0.51088   0.04612   0.21145   0.00000  Uiso   1.00
C81    C     0.50962   0.45442   0.29149   0.00000  Uiso   1.00
C82    C     0.49092   0.02399   0.24791   0.00000  Uiso   1.00
C83    C     0.49098   0.47585   0.24892   0.00000  Uiso   1.00
C84    C     0.41835   0.20294   0.11367   0.00000  Uiso   1.00
C85    C     0.45936   0.22956   0.04608   0.00000  Uiso   1.00
C86    C     0.56063   0.31638   0.38417   0.00000  Uiso   1.00
C87    C     0.52648   0.28271   0.45229   0.00000  Uiso   1.00
C88    C     0.46014   0.22879   0.09567   0.00000  Uiso   1.00
C89    C     0.52756   0.28227   0.40295   0.00000  Uiso   1.00
C90    C     0.54019   0.27031   0.10838   0.00000  Uiso   1.00
C91    C     0.47310   0.21735   0.39318   0.00000  Uiso   1.00
C92    C     0.54164   0.26989   0.05912   0.00000  Uiso   1.00
H93    H     0.65757   0.24974   0.19448   0.00000  Uiso   1.00
H94    H     0.52334   0.47324   0.32394   0.00000  Uiso   1.00
H95    H     0.42667   0.21392   0.02283   0.00000  Uiso   1.00
H96    H     0.54688   0.30929   0.47417   0.00000  Uiso   1.00
H97    H     0.57185   0.28646   0.13243   0.00000  Uiso   1.00
H98    H     0.45197   0.19176   0.37031   0.00000  Uiso   1.00
H99    H     0.57536   0.28502   0.04696   0.00000  Uiso   1.00
H100   H     0.45275   0.18854   0.45646   0.00000  Uiso   1.00
H101   H     0.42559   0.18755   0.14798   0.00000  Uiso   1.00
H102   H     0.57426   0.31157   0.35077   0.00000  Uiso   1.00
H103   H     0.34244   0.25016   0.30549   0.00000  Uiso   1.00
H104   H     0.45670   0.03103   0.31232   0.00000  Uiso   1.00
H105   H     0.45915   0.46759   0.17411   0.00000  Uiso   1.00
H106   H     0.46189   0.11212   0.31344   0.00000  Uiso   1.00
H107   H     0.46432   0.38669   0.17480   0.00000  Uiso   1.00
H108   H     0.52929   0.10902   0.18365   0.00000  Uiso   1.00
H109   H     0.52690   0.39228   0.32506   0.00000  Uiso   1.00
H110   H     0.52564   0.02781   0.18346   0.00000  Uiso   1.00
N111   N     0.50000   0.24999   0.12624   0.00000  Uiso   1.00
N112   N     0.50000   0.25001   0.37377   0.00000  Uiso   1.00
O113   O     0.50000   0.18454   0.28974   0.00000  Uiso   1.00
O114   O     0.57445   0.35056   0.40683   0.00000  Uiso   1.00
O115   O     0.50000   0.31547   0.21026   0.00000  Uiso   1.00
O116   O     0.50000   0.18453   0.21026   0.00000  Uiso   1.00
O117   O     0.50000   0.31547   0.28974   0.00000  Uiso   1.00
O118   O     0.42392   0.25000   0.28045   0.00000  Uiso   1.00
O119   O     0.57608   0.25000   0.21956   0.00000  Uiso   1.00
O120   O     0.42392   0.25000   0.20097   0.00000  Uiso   1.00
O121   O     0.57608   0.25001   0.29904   0.00000  Uiso   1.00
O122   O     0.37509   0.19745   0.08947   0.00000  Uiso   1.00
Zn123  Zn    0.50000   0.25001   0.30307   0.00000  Uiso   1.00
Zn124  Zn    0.50000   0.25000   0.19693   0.00000  Uiso   1.00
C125   C     0.83271   0.16393   0.24966   0.00000  Uiso   1.00
C126   C     0.80650   0.21598   0.44266   0.00000  Uiso   1.00
C127   C     0.83385   0.24954   0.02672   0.00000  Uiso   1.00
C128   C     0.83334   0.24921   0.47338   0.00000  Uiso   1.00
C129   C     0.73367   0.24992   0.23746   0.00000  Uiso   1.00
C130   C     0.93299   0.25005   0.26254   0.00000  Uiso   1.00
C131   C     0.67851   0.24988   0.23080   0.00000  Uiso   1.00
C132   C     0.98816   0.25004   0.26918   0.00000  Uiso   1.00
C133   C     0.80621   0.04792   0.28436   0.00000  Uiso   1.00
C134   C     0.80763   0.45127   0.20703   0.00000  Uiso   1.00
C135   C     0.80923   0.09391   0.28498   0.00000  Uiso   1.00
C136   C     0.83278   0.33608   0.25015   0.00000  Uiso   1.00
C137   C     0.81062   0.40538   0.20749   0.00000  Uiso   1.00
C138   C     0.82970   0.11602   0.24880   0.00000  Uiso   1.00
C139   C     0.82974   0.38396   0.24997   0.00000  Uiso   1.00
C140   C     0.84662   0.09216   0.21173   0.00000  Uiso   1.00
C141   C     0.84534   0.40847   0.29207   0.00000  Uiso   1.00
C142   C     0.84422   0.04612   0.21145   0.00000  Uiso   1.00
C143   C     0.84295   0.45442   0.29149   0.00000  Uiso   1.00
C144   C     0.82425   0.02399   0.24791   0.00000  Uiso   1.00
C145   C     0.82431   0.47585   0.24892   0.00000  Uiso   1.00
C146   C     0.75168   0.20294   0.11367   0.00000  Uiso   1.00
C147   C     0.79269   0.22956   0.04608   0.00000  Uiso   1.00
C148   C     0.89396   0.31638   0.38417   0.00000  Uiso   1.00
C149   C     0.85982   0.28271   0.45229   0.00000  Uiso   1.00
C150   C     0.79347   0.22879   0.09567   0.00000  Uiso   1.00
C151   C     0.86089   0.28227   0.40295   0.00000  Uiso   1.00
C152   C     0.87353   0.27031   0.10838   0.00000  Uiso   1.00
C153   C     0.80644   0.21735   0.39318   0.00000  Uiso   1.00
C154   C     0.87497   0.26989   0.05912   0.00000  Uiso   1.00
H155   H     0.99090   0.24974   0.19448   0.00000  Uiso   1.00
H156   H     0.85667   0.47324   0.32394   0.00000  Uiso   1.00
H157   H     0.76000   0.21392   0.02283   0.00000  Uiso   1.00
H158   H     0.88022   0.30929   0.47417   0.00000  Uiso   1.00
H159   H     0.90518   0.28646   0.13243   0.00000  Uiso   1.00
H160   H     0.78530   0.19176   0.37031   0.00000  Uiso   1.00
H161   H     0.90869   0.28502   0.04696   0.00000  Uiso   1.00
H162   H     0.78608   0.18854   0.45646   0.00000  Uiso   1.00
H163   H     0.75893   0.18755   0.14798   0.00000  Uiso   1.00
H164   H     0.90759   0.31157   0.35077   0.00000  Uiso   1.00
H165   H     0.67577   0.25016   0.30549   0.00000  Uiso   1.00
H166   H     0.79003   0.03103   0.31232   0.00000  Uiso   1.00
H167   H     0.79249   0.46759   0.17411   0.00000  Uiso   1.00
H168   H     0.79523   0.11212   0.31344   0.00000  Uiso   1.00
H169   H     0.79765   0.38669   0.17480   0.00000  Uiso   1.00
H170   H     0.86262   0.10902   0.18365   0.00000  Uiso   1.00
H171   H     0.86023   0.39228   0.32506   0.00000  Uiso   1.00
H172   H     0.85897   0.02781   0.18346   0.00000  Uiso   1.00
N173   N     0.83333   0.24999   0.12624   0.00000  Uiso   1.00
N174   N     0.83333   0.25001   0.37377   0.00000  Uiso   1.00
O175   O     0.83334   0.18454   0.28974   0.00000  Uiso   1.00
O176   O     0.90778   0.35056   0.40683   0.00000  Uiso   1.00
O177   O     0.83333   0.31547   0.21026   0.00000  Uiso   1.00
O178   O     0.83334   0.18453   0.21026   0.00000  Uiso   1.00
O179   O     0.83333   0.31547   0.28974   0.00000  Uiso   1.00
O180   O     0.75725   0.25000   0.28045   0.00000  Uiso   1.00
O181   O     0.90942   0.25000   0.21956   0.00000  Uiso   1.00
O182   O     0.75725   0.25000   0.20097   0.00000  Uiso   1.00
O183   O     0.90942   0.25001   0.29904   0.00000  Uiso   1.00
O184   O     0.70843   0.19745   0.08947   0.00000  Uiso   1.00
Zn185  Zn    0.83333   0.25001   0.30307   0.00000  Uiso   1.00
Zn186  Zn    0.83333   0.25000   0.19693   0.00000  Uiso   1.00
C187   C     0.16604   0.66393   0.24966   0.00000  Uiso   1.00
C188   C     0.13983   0.71598   0.44266   0.00000  Uiso   1.00
C189   C     0.16718   0.74954   0.02672   0.00000  Uiso   1.00
C190   C     0.16668   0.74921   0.47338   0.00000  Uiso   1.00
C191   C     0.06701   0.74992   0.23746   0.00000  Uiso   1.00
C192   C     0.26633   0.75005   0.26254   0.00000  Uiso   1.00
C193   C     0.01184   0.74988   0.23080   0.00000  Uiso   1.00
C194   C     0.32149   0.75004   0.26918   0.00000  Uiso   1.00
C195   C     0.13955   0.54792   0.28436   0.00000  Uiso   1.00
C196   C     0.14097   0.95127   0.20703   0.00000  Uiso   1.00
C197   C     0.14256   0.59391   0.28498   0.00000  Uiso   1.00
C198   C     0.16612   0.83608   0.25015   0.00000  Uiso   1.00
C199   C     0.14395   0.90538   0.20749   0.00000  Uiso   1.00
C200   C     0.16303   0.61602   0.24880   0.00000  Uiso   1.00
C201   C     0.16307   0.88396   0.24997   0.00000  Uiso   1.00
C202   C     0.17996   0.59216   0.21173   0.00000  Uiso   1.00
C203   C     0.17867   0.90847   0.29207   0.00000  Uiso   1.00
C204   C     0.17755   0.54612   0.21145   0.00000  Uiso   1.00
C205   C     0.17629   0.95442   0.29149   0.00000  Uiso   1.00
C206   C     0.15759   0.52399   0.24791   0.00000  Uiso   1.00
C207   C     0.15765   0.97585   0.24892   0.00000  Uiso   1.00
C208   C     0.08502   0.70294   0.11367   0.00000  Uiso   1.00
C209   C     0.12602   0.72956   0.04608   0.00000  Uiso   1.00
C210   C     0.22729   0.81638   0.38417   0.00000  Uiso   1.00
C211   C     0.19315   0.78271   0.45229   0.00000  Uiso   1.00
C212   C     0.12680   0.72879   0.09567   0.00000  Uiso   1.00
C213   C     0.19422   0.78227   0.40295   0.00000  Uiso   1.00
C214   C     0.20686   0.77031   0.10838   0.00000  Uiso   1.00
C215   C     0.13977   0.71735   0.39318   0.00000  Uiso   1.00
C216   C     0.20830   0.76989   0.05912   0.00000  Uiso   1.00
H217   H     0.32424   0.74974   0.19448   0.00000  Uiso   1.00
H218   H     0.19000   0.97324   0.32394   0.00000  Uiso   1.00
H219   H     0.09333   0.71392   0.02283   0.00000  Uiso   1.00
H220   H     0.21355   0.80929   0.47417   0.00000  Uiso   1.00
H221   H     0.23851   0.78646   0.13243   0.00000  Uiso   1.00
H222   H     0.11863   0.69176   0.37031   0.00000  Uiso   1.00
H223   H     0.24203   0.78502   0.04696   0.00000  Uiso   1.00
H224   H     0.11942   0.68854   0.45646   0.00000  Uiso   1.00
H225   H     0.09226   0.68755   0.14798   0.00000  Uiso   1.00
H226   H     0.24092   0.81157   0.35077   0.00000  Uiso   1.00
H227   H     0.00910   0.75016   0.30549   0.00000  Uiso   1.00
H228   H     0.12336   0.53103   0.31232   0.00000  Uiso   1.00
H229   H     0.12582   0.96759   0.17411   0.00000  Uiso   1.00
H230   H     0.12856   0.61212   0.31344   0.00000  Uiso   1.00
H231   H     0.13098   0.88669   0.17480   0.00000  Uiso   1.00
H232   H     0.19595   0.60902   0.18365   0.00000  Uiso   1.00
H233   H     0.19357   0.89228   0.32506   0.00000  Uiso   1.00
H234   H     0.19230   0.52781   0.18346   0.00000  Uiso   1.00
N235   N     0.16667   0.74999   0.12624   0.00000  Uiso   1.00
N236   N     0.16667   0.75001   0.37377   0.00000  Uiso   1.00
O237   O     0.16667   0.68454   0.28974   0.00000  Uiso   1.00
O238   O     0.24111   0.85056   0.40683   0.00000  Uiso   1.00
O239   O     0.16666   0.81547   0.21026   0.00000  Uiso   1.00
O240   O     0.16667   0.68453   0.21026   0.00000  Uiso   1.00
O241   O     0.16666   0.81547   0.28974   0.00000  Uiso   1.00
O242   O     0.09058   0.75000   0.28045   0.00000  Uiso   1.00
O243   O     0.24275   0.75000   0.21956   0.00000  Uiso   1.00
O244   O     0.09058   0.75000   0.20097   0.00000  Uiso   1.00
O245   O     0.24275   0.75001   0.29904   0.00000  Uiso   1.00
O246   O     0.04176   0.69745   0.08947   0.00000  Uiso   1.00
Zn247  Zn    0.16667   0.75001   0.30307   0.00000  Uiso   1.00
Zn248  Zn    0.16667   0.75000   0.19693   0.00000  Uiso   1.00
C249   C     0.49937   0.66393   0.24966   0.00000  Uiso   1.00
C250   C     0.47317   0.71598   0.44266   0.00000  Uiso   1.00
C251   C     0.50051   0.74954   0.02672   0.00000  Uiso   1.00
C252   C     0.50001   0.74921   0.47338   0.00000  Uiso   1.00
C253   C     0.40034   0.74992   0.23746   0.00000  Uiso   1.00
C254   C     0.59966   0.75005   0.26254   0.00000  Uiso   1.00
C255   C     0.34517   0.74988   0.23080   0.00000  Uiso   1.00
C256   C     0.65482   0.75004   0.26918   0.00000  Uiso   1.00
C257   C     0.47288   0.54792   0.28436   0.00000  Uiso   1.00
C258   C     0.47430   0.95127   0.20703   0.00000  Uiso   1.00
C259   C     0.47589   0.59391   0.28498   0.00000  Uiso   1.00
C260   C     0.49945   0.83608   0.25015   0.00000  Uiso   1.00
C261   C     0.47728   0.90538   0.20749   0.00000  Uiso   1.00
C262   C     0.49637   0.61602   0.24880   0.00000  Uiso   1.00
C263   C     0.49641   0.88396   0.24997   0.00000  Uiso   1.00
C264   C     0.51329   0.59216   0.21173   0.00000  Uiso   1.00
C265   C     0.51200   0.90847   0.29207   0.00000  Uiso   1.00
C266   C     0.51088   0.54612   0.21145   0.00000  Uiso   1.00
C267   C     0.50962   0.95442   0.29149   0.00000  Uiso   1.00
C268   C     0.49092   0.52399   0.24791   0.00000  Uiso   1.00
C269   C     0.49098   0.97585   0.24892   0.00000  Uiso   1.00
C270   C     0.41835   0.70294   0.11367   0.00000  Uiso   1.00
C271   C     0.45936   0.72956   0.04608   0.00000  Uiso   1.00
C272   C     0.56063   0.81638   0.38417   0.00000  Uiso   1.00
C273   C     0.52648   0.78271   0.45229   0.00000  Uiso   1.00
C274   C     0.46014   0.72879   0.09567   0.00000  Uiso   1.00
C275   C     0.52756   0.78227   0.40295   0.00000  Uiso   1.00
C276   C     0.54019   0.77031   0.10838   0.00000  Uiso   1.00
C277   C     0.47310   0.71735   0.39318   0.00000  Uiso   1.00
C278   C     0.54164   0.76989   0.05912   0.00000  Uiso   1.00
H279   H     0.65757   0.74974   0.19448   0.00000  Uiso   1.00
H280   H     0.52334   0.97324   0.32394   0.00000  Uiso   1.00
H281   H     0.42667   0.71392   0.02283   0.00000  Uiso   1.00
H282   H     0.54688   0.80929   0.47417   0.00000  Uiso   1.00
H283   H     0.57185   0.78646   0.13243   0.00000  Uiso   1.00
H284   H     0.45197   0.69176   0.37031   0.00000  Uiso   1.00
H285   H     0.57536   0.78502   0.04696   0.00000  Uiso   1.00
H286   H     0.45275   0.68854   0.45646   0.00000  Uiso   1.00
H287   H     0.42559   0.68755   0.14798   0.00000  Uiso   1.00
H288   H     0.57426   0.81157   0.35077   0.00000  Uiso   1.00
H289   H     0.34244   0.75016   0.30549   0.00000  Uiso   1.00
H290   H     0.45670   0.53103   0.31232   0.00000  Uiso   1.00
H291   H     0.45915   0.96759   0.17411   0.00000  Uiso   1.00
H292   H     0.46189   0.61212   0.31344   0.00000  Uiso   1.00
H293   H     0.46432   0.88669   0.17480   0.00000  Uiso   1.00
H294   H     0.52929   0.60902   0.18365   0.00000  Uiso   1.00
H295   H     0.52690   0.89228   0.32506   0.00000  Uiso   1.00
H296   H     0.52564   0.52781   0.18346   0.00000  Uiso   1.00
N297   N     0.50000   0.74999   0.12624   0.00000  Uiso   1.00
N298   N     0.50000   0.75001   0.37377   0.00000  Uiso   1.00
O299   O     0.50000   0.68454   0.28974   0.00000  Uiso   1.00
O300   O     0.57445   0.85056   0.40683   0.00000  Uiso   1.00
O301   O     0.50000   0.81547   0.21026   0.00000  Uiso   1.00
O302   O     0.50000   0.68453   0.21026   0.00000  Uiso   1.00
O303   O     0.50000   0.81547   0.28974   0.00000  Uiso   1.00
O304   O     0.42392   0.75000   0.28045   0.00000  Uiso   1.00
O305   O     0.57608   0.75000   0.21956   0.00000  Uiso   1.00
O306   O     0.42392   0.75000   0.20097   0.00000  Uiso   1.00
O307   O     0.57608   0.75001   0.29904   0.00000  Uiso   1.00
O308   O     0.37509   0.69745   0.08947   0.00000  Uiso   1.00
Zn309  Zn    0.50000   0.75001   0.30307   0.00000  Uiso   1.00
Zn310  Zn    0.50000   0.75000   0.19693   0.00000  Uiso   1.00
C311   C     0.83271   0.66393   0.24966   0.00000  Uiso   1.00
C312   C     0.80650   0.71598   0.44266   0.00000  Uiso   1.00
C313   C     0.83385   0.74954   0.02672   0.00000  Uiso   1.00
C314   C     0.83334   0.74921   0.47338   0.00000  Uiso   1.00
C315   C     0.73367   0.74992   0.23746   0.00000  Uiso   1.00
C316   C     0.93299   0.75005   0.26254   0.00000  Uiso   1.00
C317   C     0.67851   0.74988   0.23080   0.00000  Uiso   1.00
C318   C     0.98816   0.75004   0.26918   0.00000  Uiso   1.00
C319   C     0.80621   0.54792   0.28436   0.00000  Uiso   1.00
C320   C     0.80763   0.95127   0.20703   0.00000  Uiso   1.00
C321   C     0.80923   0.59391   0.28498   0.00000  Uiso   1.00
C322   C     0.83278   0.83608   0.25015   0.00000  Uiso   1.00
C323   C     0.81062   0.90538   0.20749   0.00000  Uiso   1.00
C324   C     0.82970   0.61602   0.24880   0.00000  Uiso   1.00
C325   C     0.82974   0.88396   0.24997   0.00000  Uiso   1.00
C326   C     0.84662   0.59216   0.21173   0.00000  Uiso   1.00
C327   C     0.84534   0.90847   0.29207   0.00000  Uiso   1.00
C328   C     0.84422   0.54612   0.21145   0.00000  Uiso   1.00
C329   C     0.84295   0.95442   0.29149   0.00000  Uiso   1.00
C330   C     0.82425   0.52399   0.24791   0.00000  Uiso   1.00
C331   C     0.82431   0.97585   0.24892   0.00000  Uiso   1.00
C332   C     0.75168   0.70294   0.11367   0.00000  Uiso   1.00
C333   C     0.79269   0.72956   0.04608   0.00000  Uiso   1.00
C334   C     0.89396   0.81638   0.38417   0.00000  Uiso   1.00
C335   C     0.85982   0.78271   0.45229   0.00000  Uiso   1.00
C336   C     0.79347   0.72879   0.09567   0.00000  Uiso   1.00
C337   C     0.86089   0.78227   0.40295   0.00000  Uiso   1.00
C338   C     0.87353   0.77031   0.10838   0.00000  Uiso   1.00
C339   C     0.80644   0.71735   0.39318   0.00000  Uiso   1.00
C340   C     0.87497   0.76989   0.05912   0.00000  Uiso   1.00
H341   H     0.99090   0.74974   0.19448   0.00000  Uiso   1.00
H342   H     0.85667   0.97324   0.32394   0.00000  Uiso   1.00
H343   H     0.76000   0.71392   0.02283   0.00000  Uiso   1.00
H344   H     0.88022   0.80929   0.47417   0.00000  Uiso   1.00
H345   H     0.90518   0.78646   0.13243   0.00000  Uiso   1.00
H346   H     0.78530   0.69176   0.37031   0.00000  Uiso   1.00
H347   H     0.90869   0.78502   0.04696   0.00000  Uiso   1.00
H348   H     0.78608   0.68854   0.45646   0.00000  Uiso   1.00
H349   H     0.75893   0.68755   0.14798   0.00000  Uiso   1.00
H350   H     0.90759   0.81157   0.35077   0.00000  Uiso   1.00
H351   H     0.67577   0.75016   0.30549   0.00000  Uiso   1.00
H352   H     0.79003   0.53103   0.31232   0.00000  Uiso   1.00
H353   H     0.79249   0.96759   0.17411   0.00000  Uiso   1.00
H354   H     0.79523   0.61212   0.31344   0.00000  Uiso   1.00
H355   H     0.79765   0.88669   0.17480   0.00000  Uiso   1.00
H356   H     0.86262   0.60902   0.18365   0.00000  Uiso   1.00
H357   H     0.86023   0.89228   0.32506   0.00000  Uiso   1.00
H358   H     0.85897   0.52781   0.18346   0.00000  Uiso   1.00
N359   N     0.83333   0.74999   0.12624   0.00000  Uiso   1.00
N360   N     0.83333   0.75001   0.37377   0.00000  Uiso   1.00
O361   O     0.83334   0.68454   0.28974   0.00000  Uiso   1.00
O362   O     0.90778   0.85056   0.40683   0.00000  Uiso   1.00
O363   O     0.83333   0.81547   0.21026   0.00000  Uiso   1.00
O364   O     0.83334   0.68453   0.21026   0.00000  Uiso   1.00
O365   O     0.83333   0.81547   0.28974   0.00000  Uiso   1.00
O366   O     0.75725   0.75000   0.28045   0.00000  Uiso   1.00
O367   O     0.90942   0.75000   0.21956   0.00000  Uiso   1.00
O368   O     0.75725   0.75000   0.20097   0.00000  Uiso   1.00
O369   O     0.90942   0.75001   0.29904   0.00000  Uiso   1.00
O370   O     0.70843   0.69745   0.08947   0.00000  Uiso   1.00
Zn371  Zn    0.83333   0.75001   0.30307   0.00000  Uiso   1.00
Zn372  Zn    0.83333   0.75000   0.19693   0.00000  Uiso   1.00
C373   C     0.16604   0.16393   0.74966   0.00000  Uiso   1.00
C374   C     0.13983   0.21598   0.94266   0.00000  Uiso   1.00
C375   C     0.16718   0.24954   0.52672   0.00000  Uiso   1.00
C376   C     0.16668   0.24921   0.97338   0.00000  Uiso   1.00
C377   C     0.06701   0.24992   0.73746   0.00000  Uiso   1.00
C378   C     0.26633   0.25005   0.76254   0.00000  Uiso   1.00
C379   C     0.01184   0.24988   0.73080   0.00000  Uiso   1.00
C380   C     0.32149   0.25004   0.76918   0.00000  Uiso   1.00
C381   C     0.13955   0.04792   0.78436   0.00000  Uiso   1.00
C382   C     0.14097   0.45127   0.70703   0.00000  Uiso   1.00
C383   C     0.14256   0.09391   0.78498   0.00000  Uiso   1.00
C384   C     0.16612   0.33608   0.75015   0.00000  Uiso   1.00
C385   C     0.14395   0.40538   0.70749   0.00000  Uiso   1.00
C386   C     0.16303   0.11602   0.74880   0.00000  Uiso   1.00
C387   C     0.16307   0.38396   0.74997   0.00000  Uiso   1.00
C388   C     0.17996   0.09216   0.71173   0.00000  Uiso   1.00
C389   C     0.17867   0.40847   0.79207   0.00000  Uiso   1.00
C390   C     0.17755   0.04612   0.71145   0.00000  Uiso   1.00
C391   C     0.17629   0.45442   0.79149   0.00000  Uiso   1.00
C392   C     0.15759   0.02399   0.74791   0.00000  Uiso   1.00
C393   C     0.15765   0.47585   0.74892   0.00000  Uiso   1.00
C394   C     0.08502   0.20294   0.61367   0.00000  Uiso   1.00
C395   C     0.12602   0.22956   0.54608   0.00000  Uiso   1.00
C396   C     0.22729   0.31638   0.88417   0.00000  Uiso   1.00
C397   C     0.19315   0.28271   0.95229   0.00000  Uiso   1.00
C398   C     0.12680   0.22879   0.59567   0.00000  Uiso   1.00
C399   C     0.19422   0.28227   0.90295   0.00000  Uiso   1.00
C400   C     0.20686   0.27031   0.60838   0.00000  Uiso   1.00
C401   C     0.13977   0.21735   0.89318   0.00000  Uiso   1.00
C402   C     0.20830   0.26989   0.55912   0.00000  Uiso   1.00
H403   H     0.32424   0.24974   0.69448   0.00000  Uiso   1.00
H404   H     0.19000   0.47324   0.82394   0.00000  Uiso   1.00
H405   H     0.09333   0.21392   0.52283   0.00000  Uiso   1.00
H406   H     0.21355   0.30929   0.97417   0.00000  Uiso   1.00
H407   H     0.23851   0.28646   0.63243   0.00000  Uiso   1.00
H408   H     0.11863   0.19176   0.87031   0.00000  Uiso   1.00
H409   H     0.24203   0.28502   0.54696   0.00000  Uiso   1.00
H410   H     0.11942   0.18854   0.95646   0.00000  Uiso   1.00
H411   H     0.09226   0.18755   0.64798   0.00000  Uiso   1.00
H412   H     0.24092   0.31157   0.85077   0.00000  Uiso   1.00
H413   H     0.00910   0.25016   0.80549   0.00000  Uiso   1.00
H414   H     0.12336   0.03103   0.81232   0.00000  Uiso   1.00
H415   H     0.12582   0.46759   0.67411   0.00000  Uiso   1.00
H416   H     0.12856   0.11212   0.81344   0.00000  Uiso   1.00
H417   H     0.13098   0.38669   0.67480   0.00000  Uiso   1.00
H418   H     0.19595   0.10902   0.68365   0.00000  Uiso   1.00
H419   H     0.19357   0.39228   0.82506   0.00000  Uiso   1.00
H420   H     0.19230   0.02781   0.68346   0.00000  Uiso   1.00
N421   N     0.16667   0.24999   0.62624   0.00000  Uiso   1.00
N422   N     0.16667   0.25001   0.87377   0.00000  Uiso   1.00
O423   O     0.16667   0.18454   0.78974   0.00000  Uiso   1.00
O424   O     0.24111   0.35056   0.90683   0.00000  Uiso   1.00
O425   O     0.16666   0.31547   0.71026   0.00000  Uiso   1.00
O426   O     0.16667   0.18453   0.71026   0.00000  Uiso   1.00
O427   O     0.16666   0.31547   0.78974   0.00000  Uiso   1.00
O428   O     0.09058   0.25000   0.78045   0.00000  Uiso   1.00
O429   O     0.24275   0.25000   0.71956   0.00000  Uiso   1.00
O430   O     0.09058   0.25000   0.70097   0.00000  Uiso   1.00
O431   O     0.24275   0.25001   0.79904   0.00000  Uiso   1.00
O432   O     0.04176   0.19745   0.58947   0.00000  Uiso   1.00
Zn433  Zn    0.16667   0.25001   0.80307   0.00000  Uiso   1.00
Zn434  Zn    0.16667   0.25000   0.69693   0.00000  Uiso   1.00
C435   C     0.49937   0.16393   0.74966   0.00000  Uiso   1.00
C436   C     0.47317   0.21598   0.94266   0.00000  Uiso   1.00
C437   C     0.50051   0.24954   0.52672   0.00000  Uiso   1.00
C438   C     0.50001   0.24921   0.97338   0.00000  Uiso   1.00
C439   C     0.40034   0.24992   0.73746   0.00000  Uiso   1.00
C440   C     0.59966   0.25005   0.76254   0.00000  Uiso   1.00
C441   C     0.34517   0.24988   0.73080   0.00000  Uiso   1.00
C442   C     0.65482   0.25004   0.76918   0.00000  Uiso   1.00
C443   C     0.47288   0.04792   0.78436   0.00000  Uiso   1.00
C444   C     0.47430   0.45127   0.70703   0.00000  Uiso   1.00
C445   C     0.47589   0.09391   0.78498   0.00000  Uiso   1.00
C446   C     0.49945   0.33608   0.75015   0.00000  Uiso   1.00
C447   C     0.47728   0.40538   0.70749   0.00000  Uiso   1.00
C448   C     0.49637   0.11602   0.74880   0.00000  Uiso   1.00
C449   C     0.49641   0.38396   0.74997   0.00000  Uiso   1.00
C450   C     0.51329   0.09216   0.71173   0.00000  Uiso   1.00
C451   C     0.51200   0.40847   0.79207   0.00000  Uiso   1.00
C452   C     0.51088   0.04612   0.71145   0.00000  Uiso   1.00
C453   C     0.50962   0.45442   0.79149   0.00000  Uiso   1.00
C454   C     0.49092   0.02399   0.74791   0.00000  Uiso   1.00
C455   C     0.49098   0.47585   0.74892   0.00000  Uiso   1.00
C456   C     0.41835   0.20294   0.61367   0.00000  Uiso   1.00
C457   C     0.45936   0.22956   0.54608   0.00000  Uiso   1.00
C458   C     0.56063   0.31638   0.88417   0.00000  Uiso   1.00
C459   C     0.52648   0.28271   0.95229   0.00000  Uiso   1.00
C460   C     0.46014   0.22879   0.59567   0.00000  Uiso   1.00
C461   C     0.52756   0.28227   0.90295   0.00000  Uiso   1.00
C462   C     0.54019   0.27031   0.60838   0.00000  Uiso   1.00
C463   C     0.47310   0.21735   0.89318   0.00000  Uiso   1.00
C464   C     0.54164   0.26989   0.55912   0.00000  Uiso   1.00
H465   H     0.65757   0.24974   0.69448   0.00000  Uiso   1.00
H466   H     0.52334   0.47324   0.82394   0.00000  Uiso   1.00
H467   H     0.42667   0.21392   0.52283   0.00000  Uiso   1.00
H468   H     0.54688   0.30929   0.97417   0.00000  Uiso   1.00
H469   H     0.57185   0.28646   0.63243   0.00000  Uiso   1.00
H470   H     0.45197   0.19176   0.87031   0.00000  Uiso   1.00
H471   H     0.57536   0.28502   0.54696   0.00000  Uiso   1.00
H472   H     0.45275   0.18854   0.95646   0.00000  Uiso   1.00
H473   H     0.42559   0.18755   0.64798   0.00000  Uiso   1.00
H474   H     0.57426   0.31157   0.85077   0.00000  Uiso   1.00
H475   H     0.34244   0.25016   0.80549   0.00000  Uiso   1.00
H476   H     0.45670   0.03103   0.81232   0.00000  Uiso   1.00
H477   H     0.45915   0.46759   0.67411   0.00000  Uiso   1.00
H478   H     0.46189   0.11212   0.81344   0.00000  Uiso   1.00
H479   H     0.46432   0.38669   0.67480   0.00000  Uiso   1.00
H480   H     0.52929   0.10902   0.68365   0.00000  Uiso   1.00
H481   H     0.52690   0.39228   0.82506   0.00000  Uiso   1.00
H482   H     0.52564   0.02781   0.68346   0.00000  Uiso   1.00
N483   N     0.50000   0.24999   0.62624   0.00000  Uiso   1.00
N484   N     0.50000   0.25001   0.87377   0.00000  Uiso   1.00
O485   O     0.50000   0.18454   0.78974   0.00000  Uiso   1.00
O486   O     0.57445   0.35056   0.90683   0.00000  Uiso   1.00
O487   O     0.50000   0.31547   0.71026   0.00000  Uiso   1.00
O488   O     0.50000   0.18453   0.71026   0.00000  Uiso   1.00
O489   O     0.50000   0.31547   0.78974   0.00000  Uiso   1.00
O490   O     0.42392   0.25000   0.78045   0.00000  Uiso   1.00
O491   O     0.57608   0.25000   0.71956   0.00000  Uiso   1.00
O492   O     0.42392   0.25000   0.70097   0.00000  Uiso   1.00
O493   O     0.57608   0.25001   0.79904   0.00000  Uiso   1.00
O494   O     0.37509   0.19745   0.58947   0.00000  Uiso   1.00
Zn495  Zn    0.50000   0.25001   0.80307   0.00000  Uiso   1.00
Zn496  Zn    0.50000   0.25000   0.69693   0.00000  Uiso   1.00
C497   C     0.83271   0.16393   0.74966   0.00000  Uiso   1.00
C498   C     0.80650   0.21598   0.94266   0.00000  Uiso   1.00
C499   C     0.83385   0.24954   0.52672   0.00000  Uiso   1.00
C500   C     0.83334   0.24921   0.97338   0.00000  Uiso   1.00
C501   C     0.73367   0.24992   0.73746   0.00000  Uiso   1.00
C502   C     0.93299   0.25005   0.76254   0.00000  Uiso   1.00
C503   C     0.67851   0.24988   0.73080   0.00000  Uiso   1.00
C504   C     0.98816   0.25004   0.76918   0.00000  Uiso   1.00
C505   C     0.80621   0.04792   0.78436   0.00000  Uiso   1.00
C506   C     0.80763   0.45127   0.70703   0.00000  Uiso   1.00
C507   C     0.80923   0.09391   0.78498   0.00000  Uiso   1.00
C508   C     0.83278   0.33608   0.75015   0.00000  Uiso   1.00
C509   C     0.81062   0.40538   0.70749   0.00000  Uiso   1.00
C510   C     0.82970   0.11602   0.74880   0.00000  Uiso   1.00
C511   C     0.82974   0.38396   0.74997   0.00000  Uiso   1.00
C512   C     0.84662   0.09216   0.71173   0.00000  Uiso   1.00
C513   C     0.84534   0.40847   0.79207   0.00000  Uiso   1.00
C514   C     0.84422   0.04612   0.71145   0.00000  Uiso   1.00
C515   C     0.84295   0.45442   0.79149   0.00000  Uiso   1.00
C516   C     0.82425   0.02399   0.74791   0.00000  Uiso   1.00
C517   C     0.82431   0.47585   0.74892   0.00000  Uiso   1.00
C518   C     0.75168   0.20294   0.61367   0.00000  Uiso   1.00
C519   C     0.79269   0.22956   0.54608   0.00000  Uiso   1.00
C520   C     0.89396   0.31638   0.88417   0.00000  Uiso   1.00
C521   C     0.85982   0.28271   0.95229   0.00000  Uiso   1.00
C522   C     0.79347   0.22879   0.59567   0.00000  Uiso   1.00
C523   C     0.86089   0.28227   0.90295   0.00000  Uiso   1.00
C524   C     0.87353   0.27031   0.60838   0.00000  Uiso   1.00
C525   C     0.80644   0.21735   0.89318   0.00000  Uiso   1.00
C526   C     0.87497   0.26989   0.55912   0.00000  Uiso   1.00
H527   H     0.99090   0.24974   0.69448   0.00000  Uiso   1.00
H528   H     0.85667   0.47324   0.82394   0.00000  Uiso   1.00
H529   H     0.76000   0.21392   0.52283   0.00000  Uiso   1.00
H530   H     0.88022   0.30929   0.97417   0.00000  Uiso   1.00
H531   H     0.90518   0.28646   0.63243   0.00000  Uiso   1.00
H532   H     0.78530   0.19176   0.87031   0.00000  Uiso   1.00
H533   H     0.90869   0.28502   0.54696   0.00000  Uiso   1.00
H534   H     0.78608   0.18854   0.95646   0.00000  Uiso   1.00
H535   H     0.75893   0.18755   0.64798   0.00000  Uiso   1.00
H536   H     0.90759   0.31157   0.85077   0.00000  Uiso   1.00
H537   H     0.67577   0.25016   0.80549   0.00000  Uiso   1.00
H538   H     0.79003   0.03103   0.81232   0.00000  Uiso   1.00
H539   H     0.79249   0.46759   0.67411   0.00000  Uiso   1.00
H540   H     0.79523   0.11212   0.81344   0.00000  Uiso   1.00
H541   H     0.79765   0.38669   0.67480   0.00000  Uiso   1.00
H542   H     0.86262   0.10902   0.68365   0.00000  Uiso   1.00
H543   H     0.86023   0.39228   0.82506   0.00000  Uiso   1.00
H544   H     0.85897   0.02781   0.68346   0.00000  Uiso   1.00
N545   N     0.83333   0.24999   0.62624   0.00000  Uiso   1.00
N546   N     0.83333   0.25001   0.87377   0.00000  Uiso   1.00
O547   O     0.83334   0.18454   0.78974   0.00000  Uiso   1.00
O548   O     0.90778   0.35056   0.90683   0.00000  Uiso   1.00
O549   O     0.83333   0.31547   0.71026   0.00000  Uiso   1.00
O550   O     0.83334   0.18453   0.71026   0.00000  Uiso   1.00
O551   O     0.83333   0.31547   0.78974   0.00000  Uiso   1.00
O552   O     0.75725   0.25000   0.78045   0.00000  Uiso   1.00
O553   O     0.90942   0.25000   0.71956   0.00000  Uiso   1.00
O554   O     0.75725   0.25000   0.70097   0.00000  Uiso   1.00
O555   O     0.90942   0.25001   0.79904   0.00000  Uiso   1.00
O556   O     0.70843   0.19745   0.58947   0.00000  Uiso   1.00
Zn557  Zn    0.83333   0.25001   0.80307   0.00000  Uiso   1.00
Zn558  Zn    0.83333   0.25000   0.69693   0.00000  Uiso   1.00
C559   C     0.16604   0.66393   0.74966   0.00000  Uiso   1.00
C560   C     0.13983   0.71598   0.94266   0.00000  Uiso   1.00
C561   C     0.16718   0.74954   0.52672   0.00000  Uiso   1.00
C562   C     0.16668   0.74921   0.97338   0.00000  Uiso   1.00
C563   C     0.06701   0.74992   0.73746   0.00000  Uiso   1.00
C564   C     0.26633   0.75005   0.76254   0.00000  Uiso   1.00
C565   C     0.01184   0.74988   0.73080   0.00000  Uiso   1.00
C566   C     0.32149   0.75004   0.76918   0.00000  Uiso   1.00
C567   C     0.13955   0.54792   0.78436   0.00000  Uiso   1.00
C568   C     0.14097   0.95127   0.70703   0.00000  Uiso   1.00
C569   C     0.14256   0.59391   0.78498   0.00000  Uiso   1.00
C570   C     0.16612   0.83608   0.75015   0.00000  Uiso   1.00
C571   C     0.14395   0.90538   0.70749   0.00000  Uiso   1.00
C572   C     0.16303   0.61602   0.74880   0.00000  Uiso   1.00
C573   C     0.16307   0.88396   0.74997   0.00000  Uiso   1.00
C574   C     0.17996   0.59216   0.71173   0.00000  Uiso   1.00
C575   C     0.17867   0.90847   0.79207   0.00000  Uiso   1.00
C576   C     0.17755   0.54612   0.71145   0.00000  Uiso   1.00
C577   C     0.17629   0.95442   0.79149   0.00000  Uiso   1.00
C578   C     0.15759   0.52399   0.74791   0.00000  Uiso   1.00
C579   C     0.15765   0.97585   0.74892   0.00000  Uiso   1.00
C580   C     0.08502   0.70294   0.61367   0.00000  Uiso   1.00
C581   C     0.12602   0.72956   0.54608   0.00000  Uiso   1.00
C582   C     0.22729   0.81638   0.88417   0.00000  Uiso   1.00
C583   C     0.19315   0.78271   0.95229   0.00000  Uiso   1.00
C584   C     0.12680   0.72879   0.59567   0.00000  Uiso   1.00
C585   C     0.19422   0.78227   0.90295   0.00000  Uiso   1.00
C586   C     0.20686   0.77031   0.60838   0.00000  Uiso   1.00
C587   C     0.13977   0.71735   0.89318   0.00000  Uiso   1.00
C588   C     0.20830   0.76989   0.55912   0.00000  Uiso   1.00
H589   H     0.32424   0.74974   0.69448   0.00000  Uiso   1.00
H590   H     0.19000   0.97324   0.82394   0.00000  Uiso   1.00
H591   H     0.09333   0.71392   0.52283   0.00000  Uiso   1.00
H592   H     0.21355   0.80929   0.97417   0.00000  Uiso   1.00
H593   H     0.23851   0.78646   0.63243   0.00000  Uiso   1.00
H594   H     0.11863   0.69176   0.87031   0.00000  Uiso   1.00
H595   H     0.24203   0.78502   0.54696   0.00000  Uiso   1.00
H596   H     0.11942   0.68854   0.95646   0.00000  Uiso   1.00
H597   H     0.09226   0.68755   0.64798   0.00000  Uiso   1.00
H598   H     0.24092   0.81157   0.85077   0.00000  Uiso   1.00
H599   H     0.00910   0.75016   0.80549   0.00000  Uiso   1.00
H600   H     0.12336   0.53103   0.81232   0.00000  Uiso   1.00
H601   H     0.12582   0.96759   0.67411   0.00000  Uiso   1.00
H602   H     0.12856   0.61212   0.81344   0.00000  Uiso   1.00
H603   H     0.13098   0.88669   0.67480   0.00000  Uiso   1.00
H604   H     0.19595   0.60902   0.68365   0.00000  Uiso   1.00
H605   H     0.19357   0.89228   0.82506   0.00000  Uiso   1.00
H606   H     0.19230   0.52781   0.68346   0.00000  Uiso   1.00
N607   N     0.16667   0.74999   0.62624   0.00000  Uiso   1.00
N608   N     0.16667   0.75001   0.87377   0.00000  Uiso   1.00
O609   O     0.16667   0.68454   0.78974   0.00000  Uiso   1.00
O610   O     0.24111   0.85056   0.90683   0.00000  Uiso   1.00
O611   O     0.16666   0.81547   0.71026   0.00000  Uiso   1.00
O612   O     0.16667   0.68453   0.71026   0.00000  Uiso   1.00
O613   O     0.16666   0.81547   0.78974   0.00000  Uiso   1.00
O614   O     0.09058   0.75000   0.78045   0.00000  Uiso   1.00
O615   O     0.24275   0.75000   0.71956   0.00000  Uiso   1.00
O616   O     0.09058   0.75000   0.70097   0.00000  Uiso   1.00
O617   O     0.24275   0.75001   0.79904   0.00000  Uiso   1.00
O618   O     0.04176   0.69745   0.58947   0.00000  Uiso   1.00
Zn619  Zn    0.16667   0.75001   0.80307   0.00000  Uiso   1.00
Zn620  Zn    0.16667   0.75000   0.69693   0.00000  Uiso   1.00
C621   C     0.49937   0.66393   0.74966   0.00000  Uiso   1.00
C622   C     0.47317   0.71598   0.94266   0.00000  Uiso   1.00
C623   C     0.50051   0.74954   0.52672   0.00000  Uiso   1.00
C624   C     0.50001   0.74921   0.97338   0.00000  Uiso   1.00
C625   C     0.40034   0.74992   0.73746   0.00000  Uiso   1.00
C626   C     0.59966   0.75005   0.76254   0.00000  Uiso   1.00
C627   C     0.34517   0.74988   0.73080   0.00000  Uiso   1.00
C628   C     0.65482   0.75004   0.76918   0.00000  Uiso   1.00
C629   C     0.47288   0.54792   0.78436   0.00000  Uiso   1.00
C630   C     0.47430   0.95127   0.70703   0.00000  Uiso   1.00
C631   C     0.47589   0.59391   0.78498   0.00000  Uiso   1.00
C632   C     0.49945   0.83608   0.75015   0.00000  Uiso   1.00
C633   C     0.47728   0.90538   0.70749   0.00000  Uiso   1.00
C634   C     0.49637   0.61602   0.74880   0.00000  Uiso   1.00
C635   C     0.49641   0.88396   0.74997   0.00000  Uiso   1.00
C636   C     0.51329   0.59216   0.71173   0.00000  Uiso   1.00
C637   C     0.51200   0.90847   0.79207   0.00000  Uiso   1.00
C638   C     0.51088   0.54612   0.71145   0.00000  Uiso   1.00
C639   C     0.50962   0.95442   0.79149   0.00000  Uiso   1.00
C640   C     0.49092   0.52399   0.74791   0.00000  Uiso   1.00
C641   C     0.49098   0.97585   0.74892   0.00000  Uiso   1.00
C642   C     0.41835   0.70294   0.61367   0.00000  Uiso   1.00
C643   C     0.45936   0.72956   0.54608   0.00000  Uiso   1.00
C644   C     0.56063   0.81638   0.88417   0.00000  Uiso   1.00
C645   C     0.52648   0.78271   0.95229   0.00000  Uiso   1.00
C646   C     0.46014   0.72879   0.59567   0.00000  Uiso   1.00
C647   C     0.52756   0.78227   0.90295   0.00000  Uiso   1.00
C648   C     0.54019   0.77031   0.60838   0.00000  Uiso   1.00
C649   C     0.47310   0.71735   0.89318   0.00000  Uiso   1.00
C650   C     0.54164   0.76989   0.55912   0.00000  Uiso   1.00
H651   H     0.65757   0.74974   0.69448   0.00000  Uiso   1.00
H652   H     0.52334   0.97324   0.82394   0.00000  Uiso   1.00
H653   H     0.42667   0.71392   0.52283   0.00000  Uiso   1.00
H654   H     0.54688   0.80929   0.97417   0.00000  Uiso   1.00
H655   H     0.57185   0.78646   0.63243   0.00000  Uiso   1.00
H656   H     0.45197   0.69176   0.87031   0.00000  Uiso   1.00
H657   H     0.57536   0.78502   0.54696   0.00000  Uiso   1.00
H658   H     0.45275   0.68854   0.95646   0.00000  Uiso   1.00
H659   H     0.42559   0.68755   0.64798   0.00000  Uiso   1.00
H660   H     0.57426   0.81157   0.85077   0.00000  Uiso   1.00
H661   H     0.34244   0.75016   0.80549   0.00000  Uiso   1.00
H662   H     0.45670   0.53103   0.81232   0.00000  Uiso   1.00
H663   H     0.45915   0.96759   0.67411   0.00000  Uiso   1.00
H664   H     0.46189   0.61212   0.81344   0.00000  Uiso   1.00
H665   H     0.46432   0.88669   0.67480   0.00000  Uiso   1.00
H666   H     0.52929   0.60902   0.68365   0.00000  Uiso   1.00
H667   H     0.52690   0.89228   0.82506   0.00000  Uiso   1.00
H668   H     0.52564   0.52781   0.68346   0.00000  Uiso   1.00
N669   N     0.50000   0.74999   0.62624   0.00000  Uiso   1.00
N670   N     0.50000   0.75001   0.87377   0.00000  Uiso   1.00
O671   O     0.50000   0.68454   0.78974   0.00000  Uiso   1.00
O672   O     0.57445   0.85056   0.90683   0.00000  Uiso   1.00
O673   O     0.50000   0.81547   0.71026   0.00000  Uiso   1.00
O674   O     0.50000   0.68453   0.71026   0.00000  Uiso   1.00
O675   O     0.50000   0.81547   0.78974   0.00000  Uiso   1.00
O676   O     0.42392   0.75000   0.78045   0.00000  Uiso   1.00
O677   O     0.57608   0.75000   0.71956   0.00000  Uiso   1.00
O678   O     0.42392   0.75000   0.70097   0.00000  Uiso   1.00
O679   O     0.57608   0.75001   0.79904   0.00000  Uiso   1.00
O680   O     0.37509   0.69745   0.58947   0.00000  Uiso   1.00
Zn681  Zn    0.50000   0.75001   0.80307   0.00000  Uiso   1.00
Zn682  Zn    0.50000   0.75000   0.69693   0.00000  Uiso   1.00
C683   C     0.83271   0.66393   0.74966   0.00000  Uiso   1.00
C684   C     0.80650   0.71598   0.94266   0.00000  Uiso   1.00
C685   C     0.83385   0.74954   0.52672   0.00000  Uiso   1.00
C686   C     0.83334   0.74921   0.97338   0.00000  Uiso   1.00
C687   C     0.73367   0.74992   0.73746   0.00000  Uiso   1.00
C688   C     0.93299   0.75005   0.76254   0.00000  Uiso   1.00
C689   C     0.67851   0.74988   0.73080   0.00000  Uiso   1.00
C690   C     0.98816   0.75004   0.76918   0.00000  Uiso   1.00
C691   C     0.80621   0.54792   0.78436   0.00000  Uiso   1.00
C692   C     0.80763   0.95127   0.70703   0.00000  Uiso   1.00
C693   C     0.80923   0.59391   0.78498   0.00000  Uiso   1.00
C694   C     0.83278   0.83608   0.75015   0.00000  Uiso   1.00
C695   C     0.81062   0.90538   0.70749   0.00000  Uiso   1.00
C696   C     0.82970   0.61602   0.74880   0.00000  Uiso   1.00
C697   C     0.82974   0.88396   0.74997   0.00000  Uiso   1.00
C698   C     0.84662   0.59216   0.71173   0.00000  Uiso   1.00
C699   C     0.84534   0.90847   0.79207   0.00000  Uiso   1.00
C700   C     0.84422   0.54612   0.71145   0.00000  Uiso   1.00
C701   C     0.84295   0.95442   0.79149   0.00000  Uiso   1.00
C702   C     0.82425   0.52399   0.74791   0.00000  Uiso   1.00
C703   C     0.82431   0.97585   0.74892   0.00000  Uiso   1.00
C704   C     0.75168   0.70294   0.61367   0.00000  Uiso   1.00
C705   C     0.79269   0.72956   0.54608   0.00000  Uiso   1.00
C706   C     0.89396   0.81638   0.88417   0.00000  Uiso   1.00
C707   C     0.85982   0.78271   0.95229   0.00000  Uiso   1.00
C708   C     0.79347   0.72879   0.59567   0.00000  Uiso   1.00
C709   C     0.86089   0.78227   0.90295   0.00000  Uiso   1.00
C710   C     0.87353   0.77031   0.60838   0.00000  Uiso   1.00
C711   C     0.80644   0.71735   0.89318   0.00000  Uiso   1.00
C712   C     0.87497   0.76989   0.55912   0.00000  Uiso   1.00
H713   H     0.99090   0.74974   0.69448   0.00000  Uiso   1.00
H714   H     0.85667   0.97324   0.82394   0.00000  Uiso   1.00
H715   H     0.76000   0.71392   0.52283   0.00000  Uiso   1.00
H716   H     0.88022   0.80929   0.97417   0.00000  Uiso   1.00
H717   H     0.90518   0.78646   0.63243   0.00000  Uiso   1.00
H718   H     0.78530   0.69176   0.87031   0.00000  Uiso   1.00
H719   H     0.90869   0.78502   0.54696   0.00000  Uiso   1.00
H720   H     0.78608   0.68854   0.95646   0.00000  Uiso   1.00
H721   H     0.75893   0.68755   0.64798   0.00000  Uiso   1.00
H722   H     0.90759   0.81157   0.85077   0.00000  Uiso   1.00
H723   H     0.67577   0.75016   0.80549   0.00000  Uiso   1.00
H724   H     0.79003   0.53103   0.81232   0.00000  Uiso   1.00
H725   H     0.79249   0.96759   0.67411   0.00000  Uiso   1.00
H726   H     0.79523   0.61212   0.81344   0.00000  Uiso   1.00
H727   H     0.79765   0.88669   0.67480   0.00000  Uiso   1.00
H728   H     0.86262   0.60902   0.68365   0.00000  Uiso   1.00
H729   H     0.86023   0.89228   0.82506   0.00000  Uiso   1.00
H730   H     0.85897   0.52781   0.68346   0.00000  Uiso   1.00
N731   N     0.83333   0.74999   0.62624   0.00000  Uiso   1.00
N732   N     0.83333   0.75001   0.87377   0.00000  Uiso   1.00
O733   O     0.83334   0.68454   0.78974   0.00000  Uiso   1.00
O734   O     0.90778   0.85056   0.90683   0.00000  Uiso   1.00
O735   O     0.83333   0.81547   0.71026   0.00000  Uiso   1.00
O736   O     0.83334   0.68453   0.71026   0.00000  Uiso   1.00
O737   O     0.83333   0.81547   0.78974   0.00000  Uiso   1.00
O738   O     0.75725   0.75000   0.78045   0.00000  Uiso   1.00
O739   O     0.90942   0.75000   0.71956   0.00000  Uiso   1.00
O740   O     0.75725   0.75000   0.70097   0.00000  Uiso   1.00
O741   O     0.90942   0.75001   0.79904   0.00000  Uiso   1.00
O742   O     0.70843   0.69745   0.58947   0.00000  Uiso   1.00
Zn743  Zn    0.83333   0.75001   0.80307   0.00000  Uiso   1.00
Zn744  Zn    0.83333   0.75000   0.69693   0.00000  Uiso   1.00
loop_
_geom_bond_atom_site_label_1
_geom_bond_atom_site_label_2
_geom_bond_distance
_geom_bond_site_symmetry_2
_ccdc_geom_bond_type
C1     O54     1.290   .     A
C1     C14     1.438   .     S
C1     O51     1.289   .     A
C2     C4      1.414   .     A
C2     H38     1.081   .     S
C2     C29     1.410   .     A
C3     C30     1.414   .     A
C3     C23     1.401   .     A
C3     C376    1.517   1_554 S
C4     C25     1.400   .     A
C4     C375    1.517   .     S
C5     O56     1.277   .     A
C5     C7      1.404   .     S
C5     O58     1.285   .     A
C6     O57     1.277   .     A
C6     C8      1.404   .     S
C6     O59     1.285   .     A
C7     C132    1.334   1_455 S
C7     H155    1.088   1_455 S
C8     C69     1.334   .     S
C8     H103    1.088   .     S
C9     C11     1.380   .     A
C9     H42     1.083   .     S
C9     C20     1.398   .     A
C10    C21     1.398   .     A
C10    H43     1.083   .     S
C10    C13     1.380   .     A
C11    H44     1.084   .     S
C11    C14     1.400   .     A
C12    O53     1.289   .     A
C12    C15     1.440   .     S
C12    O55     1.292   .     A
C13    H45     1.083   .     S
C13    C15     1.400   .     A
C14    C16     1.398   .     A
C15    C17     1.398   .     A
C16    C18     1.381   .     A
C16    H46     1.084   .     S
C17    C19     1.381   .     A
C17    H47     1.082   .     S
C18    C20     1.400   .     A
C18    H48     1.083   .     S
C19    H32     1.083   .     S
C19    C21     1.400   .     A
C20    C207    1.445   1_545 S
C21    C206    1.445   .     S
C22    O60     1.221   .     D
C22    H39     1.077   .     S
C22    C26     1.477   .     S
C23    C26     1.410   .     A
C23    H33     1.082   .     S
C24    C27     1.480   .     S
C24    O52     1.222   .     D
C24    H40     1.074   .     S
C25    C27     1.410   .     A
C25    H34     1.081   .     S
C26    N49     1.377   .     A
C27    N50     1.378   .     A
C28    C30     1.409   .     A
C28    H35     1.082   .     S
C28    N49     1.363   .     A
C29    H36     1.082   .     S
C29    N50     1.364   .     A
C30    H37     1.081   .     S
H31    C69     1.088   .     S
H41    C132    1.088   1_455 S
N49    Zn62    2.014   .     S
N50    Zn61    2.014   .     S
O51    Zn61    1.995   .     S
O53    Zn62    1.995   .     S
O54    Zn62    2.005   .     S
O55    Zn61    2.005   .     S
O56    Zn61    1.965   .     S
O57    Zn62    1.965   .     S
O58    Zn62    1.983   .     S
O59    Zn61    1.983   .     S
C63    O116    1.290   .     A
C63    C76     1.438   .     S
C63    O113    1.289   .     A
C64    C66     1.414   .     A
C64    H100    1.081   .     S
C64    C91     1.410   .     A
C65    C92     1.414   .     A
C65    C85     1.401   .     A
C65    C438    1.517   1_554 S
C66    C87     1.400   .     A
C66    C437    1.517   .     S
C67    O118    1.277   .     A
C67    C69     1.404   .     S
C67    O120    1.285   .     A
C68    O119    1.277   .     A
C68    C70     1.404   .     S
C68    O121    1.285   .     A
C70    C131    1.334   .     S
C70    H165    1.088   .     S
C71    C73     1.380   .     A
C71    H104    1.083   .     S
C71    C82     1.398   .     A
C72    C83     1.398   .     A
C72    H105    1.083   .     S
C72    C75     1.380   .     A
C73    H106    1.084   .     S
C73    C76     1.400   .     A
C74    O115    1.289   .     A
C74    C77     1.440   .     S
C74    O117    1.292   .     A
C75    H107    1.083   .     S
C75    C77     1.400   .     A
C76    C78     1.398   .     A
C77    C79     1.398   .     A
C78    C80     1.381   .     A
C78    H108    1.084   .     S
C79    C81     1.381   .     A
C79    H109    1.082   .     S
C80    C82     1.400   .     A
C80    H110    1.083   .     S
C81    H94     1.083   .     S
C81    C83     1.400   .     A
C82    C269    1.445   1_545 S
C83    C268    1.445   .     S
C84    O122    1.221   .     D
C84    H101    1.077   .     S
C84    C88     1.477   .     S
C85    C88     1.410   .     A
C85    H95     1.082   .     S
C86    C89     1.480   .     S
C86    O114    1.222   .     D
C86    H102    1.074   .     S
C87    C89     1.410   .     A
C87    H96     1.081   .     S
C88    N111    1.377   .     A
C89    N112    1.378   .     A
C90    C92     1.409   .     A
C90    H97     1.082   .     S
C90    N111    1.363   .     A
C91    H98     1.082   .     S
C91    N112    1.364   .     A
C92    H99     1.081   .     S
H93    C131    1.088   .     S
N111   Zn124   2.014   .     S
N112   Zn123   2.014   .     S
O113   Zn123   1.995   .     S
O115   Zn124   1.995   .     S
O116   Zn124   2.005   .     S
O117   Zn123   2.005   .     S
O118   Zn123   1.965   .     S
O119   Zn124   1.965   .     S
O120   Zn124   1.983   .     S
O121   Zn123   1.983   .     S
C125   O178    1.290   .     A
C125   C138    1.438   .     S
C125   O175    1.289   .     A
C126   C128    1.414   .     A
C126   H162    1.081   .     S
C126   C153    1.410   .     A
C127   C154    1.414   .     A
C127   C147    1.401   .     A
C127   C500    1.517   1_554 S
C128   C149    1.400   .     A
C128   C499    1.517   .     S
C129   O180    1.277   .     A
C129   C131    1.404   .     S
C129   O182    1.285   .     A
C130   O181    1.277   .     A
C130   C132    1.404   .     S
C130   O183    1.285   .     A
C132   C7      1.334   1_655 S
C132   H41     1.088   1_655 S
C133   C135    1.380   .     A
C133   H166    1.083   .     S
C133   C144    1.398   .     A
C134   C145    1.398   .     A
C134   H167    1.083   .     S
C134   C137    1.380   .     A
C135   H168    1.084   .     S
C135   C138    1.400   .     A
C136   O177    1.289   .     A
C136   C139    1.440   .     S
C136   O179    1.292   .     A
C137   H169    1.083   .     S
C137   C139    1.400   .     A
C138   C140    1.398   .     A
C139   C141    1.398   .     A
C140   C142    1.381   .     A
C140   H170    1.084   .     S
C141   C143    1.381   .     A
C141   H171    1.082   .     S
C142   C144    1.400   .     A
C142   H172    1.083   .     S
C143   H156    1.083   .     S
C143   C145    1.400   .     A
C144   C331    1.445   1_545 S
C145   C330    1.445   .     S
C146   O184    1.221   .     D
C146   H163    1.077   .     S
C146   C150    1.477   .     S
C147   C150    1.410   .     A
C147   H157    1.082   .     S
C148   C151    1.480   .     S
C148   O176    1.222   .     D
C148   H164    1.074   .     S
C149   C151    1.410   .     A
C149   H158    1.081   .     S
C150   N173    1.377   .     A
C151   N174    1.378   .     A
C152   C154    1.409   .     A
C152   H159    1.082   .     S
C152   N173    1.363   .     A
C153   H160    1.082   .     S
C153   N174    1.364   .     A
C154   H161    1.081   .     S
H155   C7      1.088   1_655 S
N173   Zn186   2.014   .     S
N174   Zn185   2.014   .     S
O175   Zn185   1.995   .     S
O177   Zn186   1.995   .     S
O178   Zn186   2.005   .     S
O179   Zn185   2.005   .     S
O180   Zn185   1.965   .     S
O181   Zn186   1.965   .     S
O182   Zn186   1.983   .     S
O183   Zn185   1.983   .     S
C187   O240    1.290   .     A
C187   C200    1.438   .     S
C187   O237    1.289   .     A
C188   C190    1.414   .     A
C188   H224    1.081   .     S
C188   C215    1.410   .     A
C189   C216    1.414   .     A
C189   C209    1.401   .     A
C189   C562    1.517   1_554 S
C190   C211    1.400   .     A
C190   C561    1.517   .     S
C191   O242    1.277   .     A
C191   C193    1.404   .     S
C191   O244    1.285   .     A
C192   O243    1.277   .     A
C192   C194    1.404   .     S
C192   O245    1.285   .     A
C193   C318    1.334   1_455 S
C193   H341    1.088   1_455 S
C194   C255    1.334   .     S
C194   H289    1.088   .     S
C195   C197    1.380   .     A
C195   H228    1.083   .     S
C195   C206    1.398   .     A
C196   C207    1.398   .     A
C196   H229    1.083   .     S
C196   C199    1.380   .     A
C197   H230    1.084   .     S
C197   C200    1.400   .     A
C198   O239    1.289   .     A
C198   C201    1.440   .     S
C198   O241    1.292   .     A
C199   H231    1.083   .     S
C199   C201    1.400   .     A
C200   C202    1.398   .     A
C201   C203    1.398   .     A
C202   C204    1.381   .     A
C202   H232    1.084   .     S
C203   C205    1.381   .     A
C203   H233    1.082   .     S
C204   C206    1.400   .     A
C204   H234    1.083   .     S
C205   H218    1.083   .     S
C205   C207    1.400   .     A
C207   C20     1.445   1_565 S
C208   O246    1.221   .     D
C208   H225    1.077   .     S
C208   C212    1.477   .     S
C209   C212    1.410   .     A
C209   H219    1.082   .     S
C210   C213    1.480   .     S
C210   O238    1.222   .     D
C210   H226    1.074   .     S
C211   C213    1.410   .     A
C211   H220    1.081   .     S
C212   N235    1.377   .     A
C213   N236    1.378   .     A
C214   C216    1.409   .     A
C214   H221    1.082   .     S
C214   N235    1.363   .     A
C215   H222    1.082   .     S
C215   N236    1.364   .     A
C216   H223    1.081   .     S
H217   C255    1.088   .     S
H227   C318    1.088   1_455 S
N235   Zn248   2.014   .     S
N236   Zn247   2.014   .     S
O237   Zn247   1.995   .     S
O239   Zn248   1.995   .     S
O240   Zn248   2.005   .     S
O241   Zn247   2.005   .     S
O242   Zn247   1.965   .     S
O243   Zn248   1.965   .     S
O244   Zn248   1.983   .     S
O245   Zn247   1.983   .     S
C249   O302    1.290   .     A
C249   C262    1.438   .     S
C249   O299    1.289   .     A
C250   C252    1.414   .     A
C250   H286    1.081   .     S
C250   C277    1.410   .     A
C251   C278    1.414   .     A
C251   C271    1.401   .     A
C251   C624    1.517   1_554 S
C252   C273    1.400   .     A
C252   C623    1.517   .     S
C253   O304    1.277   .     A
C253   C255    1.404   .     S
C253   O306    1.285   .     A
C254   O305    1.277   .     A
C254   C256    1.404   .     S
C254   O307    1.285   .     A
C256   C317    1.334   .     S
C256   H351    1.088   .     S
C257   C259    1.380   .     A
C257   H290    1.083   .     S
C257   C268    1.398   .     A
C258   C269    1.398   .     A
C258   H291    1.083   .     S
C258   C261    1.380   .     A
C259   H292    1.084   .     S
C259   C262    1.400   .     A
C260   O301    1.289   .     A
C260   C263    1.440   .     S
C260   O303    1.292   .     A
C261   H293    1.083   .     S
C261   C263    1.400   .     A
C262   C264    1.398   .     A
C263   C265    1.398   .     A
C264   C266    1.381   .     A
C264   H294    1.084   .     S
C265   C267    1.381   .     A
C265   H295    1.082   .     S
C266   C268    1.400   .     A
C266   H296    1.083   .     S
C267   H280    1.083   .     S
C267   C269    1.400   .     A
C269   C82     1.445   1_565 S
C270   O308    1.221   .     D
C270   H287    1.077   .     S
C270   C274    1.477   .     S
C271   C274    1.410   .     A
C271   H281    1.082   .     S
C272   C275    1.480   .     S
C272   O300    1.222   .     D
C272   H288    1.074   .     S
C273   C275    1.410   .     A
C273   H282    1.081   .     S
C274   N297    1.377   .     A
C275   N298    1.378   .     A
C276   C278    1.409   .     A
C276   H283    1.082   .     S
C276   N297    1.363   .     A
C277   H284    1.082   .     S
C277   N298    1.364   .     A
C278   H285    1.081   .     S
H279   C317    1.088   .     S
N297   Zn310   2.014   .     S
N298   Zn309   2.014   .     S
O299   Zn309   1.995   .     S
O301   Zn310   1.995   .     S
O302   Zn310   2.005   .     S
O303   Zn309   2.005   .     S
O304   Zn309   1.965   .     S
O305   Zn310   1.965   .     S
O306   Zn310   1.983   .     S
O307   Zn309   1.983   .     S
C311   O364    1.290   .     A
C311   C324    1.438   .     S
C311   O361    1.289   .     A
C312   C314    1.414   .     A
C312   H348    1.081   .     S
C312   C339    1.410   .     A
C313   C340    1.414   .     A
C313   C333    1.401   .     A
C313   C686    1.517   1_554 S
C314   C335    1.400   .     A
C314   C685    1.517   .     S
C315   O366    1.277   .     A
C315   C317    1.404   .     S
C315   O368    1.285   .     A
C316   O367    1.277   .     A
C316   C318    1.404   .     S
C316   O369    1.285   .     A
C318   C193    1.334   1_655 S
C318   H227    1.088   1_655 S
C319   C321    1.380   .     A
C319   H352    1.083   .     S
C319   C330    1.398   .     A
C320   C331    1.398   .     A
C320   H353    1.083   .     S
C320   C323    1.380   .     A
C321   H354    1.084   .     S
C321   C324    1.400   .     A
C322   O363    1.289   .     A
C322   C325    1.440   .     S
C322   O365    1.292   .     A
C323   H355    1.083   .     S
C323   C325    1.400   .     A
C324   C326    1.398   .     A
C325   C327    1.398   .     A
C326   C328    1.381   .     A
C326   H356    1.084   .     S
C327   C329    1.381   .     A
C327   H357    1.082   .     S
C328   C330    1.400   .     A
C328   H358    1.083   .     S
C329   H342    1.083   .     S
C329   C331    1.400   .     A
C331   C144    1.445   1_565 S
C332   O370    1.221   .     D
C332   H349    1.077   .     S
C332   C336    1.477   .     S
C333   C336    1.410   .     A
C333   H343    1.082   .     S
C334   C337    1.480   .     S
C334   O362    1.222   .     D
C334   H350    1.074   .     S
C335   C337    1.410   .     A
C335   H344    1.081   .     S
C336   N359    1.377   .     A
C337   N360    1.378   .     A
C338   C340    1.409   .     A
C338   H345    1.082   .     S
C338   N359    1.363   .     A
C339   H346    1.082   .     S
C339   N360    1.364   .     A
C340   H347    1.081   .     S
H341   C193    1.088   1_655 S
N359   Zn372   2.014   .     S
N360   Zn371   2.014   .     S
O361   Zn371   1.995   .     S
O363   Zn372   1.995   .     S
O364   Zn372   2.005   .     S
O365   Zn371   2.005   .     S
O366   Zn371   1.965   .     S
O367   Zn372   1.965   .     S
O368   Zn372   1.983   .     S
O369   Zn371   1.983   .     S
C373   O426    1.290   .     A
C373   C386    1.438   .     S
C373   O423    1.289   .     A
C374   C376    1.414   .     A
C374   H410    1.081   .     S
C374   C401    1.410   .     A
C375   C402    1.414   .     A
C375   C395    1.401   .     A
C376   C397    1.400   .     A
C376   C3      1.517   1_556 S
C377   O428    1.277   .     A
C377   C379    1.404   .     S
C377   O430    1.285   .     A
C378   O429    1.277   .     A
C378   C380    1.404   .     S
C378   O431    1.285   .     A
C379   C504    1.334   1_455 S
C379   H527    1.088   1_455 S
C380   C441    1.334   .     S
C380   H475    1.088   .     S
C381   C383    1.380   .     A
C381   H414    1.083   .     S
C381   C392    1.398   .     A
C382   C393    1.398   .     A
C382   H415    1.083   .     S
C382   C385    1.380   .     A
C383   H416    1.084   .     S
C383   C386    1.400   .     A
C384   O425    1.289   .     A
C384   C387    1.440   .     S
C384   O427    1.292   .     A
C385   H417    1.083   .     S
C385   C387    1.400   .     A
C386   C388    1.398   .     A
C387   C389    1.398   .     A
C388   C390    1.381   .     A
C388   H418    1.084   .     S
C389   C391    1.381   .     A
C389   H419    1.082   .     S
C390   C392    1.400   .     A
C390   H420    1.083   .     S
C391   H404    1.083   .     S
C391   C393    1.400   .     A
C392   C579    1.445   1_545 S
C393   C578    1.445   .     S
C394   O432    1.221   .     D
C394   H411    1.077   .     S
C394   C398    1.477   .     S
C395   C398    1.410   .     A
C395   H405    1.082   .     S
C396   C399    1.480   .     S
C396   O424    1.222   .     D
C396   H412    1.074   .     S
C397   C399    1.410   .     A
C397   H406    1.081   .     S
C398   N421    1.377   .     A
C399   N422    1.378   .     A
C400   C402    1.409   .     A
C400   H407    1.082   .     S
C400   N421    1.363   .     A
C401   H408    1.082   .     S
C401   N422    1.364   .     A
C402   H409    1.081   .     S
H403   C441    1.088   .     S
H413   C504    1.088   1_455 S
N421   Zn434   2.014   .     S
N422   Zn433   2.014   .     S
O423   Zn433   1.995   .     S
O425   Zn434   1.995   .     S
O426   Zn434   2.005   .     S
O427   Zn433   2.005   .     S
O428   Zn433   1.965   .     S
O429   Zn434   1.965   .     S
O430   Zn434   1.983   .     S
O431   Zn433   1.983   .     S
C435   O488    1.290   .     A
C435   C448    1.438   .     S
C435   O485    1.289   .     A
C436   C438    1.414   .     A
C436   H472    1.081   .     S
C436   C463    1.410   .     A
C437   C464    1.414   .     A
C437   C457    1.401   .     A
C438   C459    1.400   .     A
C438   C65     1.517   1_556 S
C439   O490    1.277   .     A
C439   C441    1.404   .     S
C439   O492    1.285   .     A
C440   O491    1.277   .     A
C440   C442    1.404   .     S
C440   O493    1.285   .     A
C442   C503    1.334   .     S
C442   H537    1.088   .     S
C443   C445    1.380   .     A
C443   H476    1.083   .     S
C443   C454    1.398   .     A
C444   C455    1.398   .     A
C444   H477    1.083   .     S
C444   C447    1.380   .     A
C445   H478    1.084   .     S
C445   C448    1.400   .     A
C446   O487    1.289   .     A
C446   C449    1.440   .     S
C446   O489    1.292   .     A
C447   H479    1.083   .     S
C447   C449    1.400   .     A
C448   C450    1.398   .     A
C449   C451    1.398   .     A
C450   C452    1.381   .     A
C450   H480    1.084   .     S
C451   C453    1.381   .     A
C451   H481    1.082   .     S
C452   C454    1.400   .     A
C452   H482    1.083   .     S
C453   H466    1.083   .     S
C453   C455    1.400   .     A
C454   C641    1.445   1_545 S
C455   C640    1.445   .     S
C456   O494    1.221   .     D
C456   H473    1.077   .     S
C456   C460    1.477   .     S
C457   C460    1.410   .     A
C457   H467    1.082   .     S
C458   C461    1.480   .     S
C458   O486    1.222   .     D
C458   H474    1.074   .     S
C459   C461    1.410   .     A
C459   H468    1.081   .     S
C460   N483    1.377   .     A
C461   N484    1.378   .     A
C462   C464    1.409   .     A
C462   H469    1.082   .     S
C462   N483    1.363   .     A
C463   H470    1.082   .     S
C463   N484    1.364   .     A
C464   H471    1.081   .     S
H465   C503    1.088   .     S
N483   Zn496   2.014   .     S
N484   Zn495   2.014   .     S
O485   Zn495   1.995   .     S
O487   Zn496   1.995   .     S
O488   Zn496   2.005   .     S
O489   Zn495   2.005   .     S
O490   Zn495   1.965   .     S
O491   Zn496   1.965   .     S
O492   Zn496   1.983   .     S
O493   Zn495   1.983   .     S
C497   O550    1.290   .     A
C497   C510    1.438   .     S
C497   O547    1.289   .     A
C498   C500    1.414   .     A
C498   H534    1.081   .     S
C498   C525    1.410   .     A
C499   C526    1.414   .     A
C499   C519    1.401   .     A
C500   C521    1.400   .     A
C500   C127    1.517   1_556 S
C501   O552    1.277   .     A
C501   C503    1.404   .     S
C501   O554    1.285   .     A
C502   O553    1.277   .     A
C502   C504    1.404   .     S
C502   O555    1.285   .     A
C504   C379    1.334   1_655 S
C504   H413    1.088   1_655 S
C505   C507    1.380   .     A
C505   H538    1.083   .     S
C505   C516    1.398   .     A
C506   C517    1.398   .     A
C506   H539    1.083   .     S
C506   C509    1.380   .     A
C507   H540    1.084   .     S
C507   C510    1.400   .     A
C508   O549    1.289   .     A
C508   C511    1.440   .     S
C508   O551    1.292   .     A
C509   H541    1.083   .     S
C509   C511    1.400   .     A
C510   C512    1.398   .     A
C511   C513    1.398   .     A
C512   C514    1.381   .     A
C512   H542    1.084   .     S
C513   C515    1.381   .     A
C513   H543    1.082   .     S
C514   C516    1.400   .     A
C514   H544    1.083   .     S
C515   H528    1.083   .     S
C515   C517    1.400   .     A
C516   C703    1.445   1_545 S
C517   C702    1.445   .     S
C518   O556    1.221   .     D
C518   H535    1.077   .     S
C518   C522    1.477   .     S
C519   C522    1.410   .     A
C519   H529    1.082   .     S
C520   C523    1.480   .     S
C520   O548    1.222   .     D
C520   H536    1.074   .     S
C521   C523    1.410   .     A
C521   H530    1.081   .     S
C522   N545    1.377   .     A
C523   N546    1.378   .     A
C524   C526    1.409   .     A
C524   H531    1.082   .     S
C524   N545    1.363   .     A
C525   H532    1.082   .     S
C525   N546    1.364   .     A
C526   H533    1.081   .     S
H527   C379    1.088   1_655 S
N545   Zn558   2.014   .     S
N546   Zn557   2.014   .     S
O547   Zn557   1.995   .     S
O549   Zn558   1.995   .     S
O550   Zn558   2.005   .     S
O551   Zn557   2.005   .     S
O552   Zn557   1.965   .     S
O553   Zn558   1.965   .     S
O554   Zn558   1.983   .     S
O555   Zn557   1.983   .     S
C559   O612    1.290   .     A
C559   C572    1.438   .     S
C559   O609    1.289   .     A
C560   C562    1.414   .     A
C560   H596    1.081   .     S
C560   C587    1.410   .     A
C561   C588    1.414   .     A
C561   C581    1.401   .     A
C562   C583    1.400   .     A
C562   C189    1.517   1_556 S
C563   O614    1.277   .     A
C563   C565    1.404   .     S
C563   O616    1.285   .     A
C564   O615    1.277   .     A
C564   C566    1.404   .     S
C564   O617    1.285   .     A
C565   C690    1.334   1_455 S
C565   H713    1.088   1_455 S
C566   C627    1.334   .     S
C566   H661    1.088   .     S
C567   C569    1.380   .     A
C567   H600    1.083   .     S
C567   C578    1.398   .     A
C568   C579    1.398   .     A
C568   H601    1.083   .     S
C568   C571    1.380   .     A
C569   H602    1.084   .     S
C569   C572    1.400   .     A
C570   O611    1.289   .     A
C570   C573    1.440   .     S
C570   O613    1.292   .     A
C571   H603    1.083   .     S
C571   C573    1.400   .     A
C572   C574    1.398   .     A
C573   C575    1.398   .     A
C574   C576    1.381   .     A
C574   H604    1.084   .     S
C575   C577    1.381   .     A
C575   H605    1.082   .     S
C576   C578    1.400   .     A
C576   H606    1.083   .     S
C577   H590    1.083   .     S
C577   C579    1.400   .     A
C579   C392    1.445   1_565 S
C580   O618    1.221   .     D
C580   H597    1.077   .     S
C580   C584    1.477   .     S
C581   C584    1.410   .     A
C581   H591    1.082   .     S
C582   C585    1.480   .     S
C582   O610    1.222   .     D
C582   H598    1.074   .     S
C583   C585    1.410   .     A
C583   H592    1.081   .     S
C584   N607    1.377   .     A
C585   N608    1.378   .     A
C586   C588    1.409   .     A
C586   H593    1.082   .     S
C586   N607    1.363   .     A
C587   H594    1.082   .     S
C587   N608    1.364   .     A
C588   H595    1.081   .     S
H589   C627    1.088   .     S
H599   C690    1.088   1_455 S
N607   Zn620   2.014   .     S
N608   Zn619   2.014   .     S
O609   Zn619   1.995   .     S
O611   Zn620   1.995   .     S
O612   Zn620   2.005   .     S
O613   Zn619   2.005   .     S
O614   Zn619   1.965   .     S
O615   Zn620   1.965   .     S
O616   Zn620   1.983   .     S
O617   Zn619   1.983   .     S
C621   O674    1.290   .     A
C621   C634    1.438   .     S
C621   O671    1.289   .     A
C622   C624    1.414   .     A
C622   H658    1.081   .     S
C622   C649    1.410   .     A
C623   C650    1.414   .     A
C623   C643    1.401   .     A
C624   C645    1.400   .     A
C624   C251    1.517   1_556 S
C625   O676    1.277   .     A
C625   C627    1.404   .     S
C625   O678    1.285   .     A
C626   O677    1.277   .     A
C626   C628    1.404   .     S
C626   O679    1.285   .     A
C628   C689    1.334   .     S
C628   H723    1.088   .     S
C629   C631    1.380   .     A
C629   H662    1.083   .     S
C629   C640    1.398   .     A
C630   C641    1.398   .     A
C630   H663    1.083   .     S
C630   C633    1.380   .     A
C631   H664    1.084   .     S
C631   C634    1.400   .     A
C632   O673    1.289   .     A
C632   C635    1.440   .     S
C632   O675    1.292   .     A
C633   H665    1.083   .     S
C633   C635    1.400   .     A
C634   C636    1.398   .     A
C635   C637    1.398   .     A
C636   C638    1.381   .     A
C636   H666    1.084   .     S
C637   C639    1.381   .     A
C637   H667    1.082   .     S
C638   C640    1.400   .     A
C638   H668    1.083   .     S
C639   H652    1.083   .     S
C639   C641    1.400   .     A
C641   C454    1.445   1_565 S
C642   O680    1.221   .     D
C642   H659    1.077   .     S
C642   C646    1.477   .     S
C643   C646    1.410   .     A
C643   H653    1.082   .     S
C644   C647    1.480   .     S
C644   O672    1.222   .     D
C644   H660    1.074   .     S
C645   C647    1.410   .     A
C645   H654    1.081   .     S
C646   N669    1.377   .     A
C647   N670    1.378   .     A
C648   C650    1.409   .     A
C648   H655    1.082   .     S
C648   N669    1.363   .     A
C649   H656    1.082   .     S
C649   N670    1.364   .     A
C650   H657    1.081   .     S
H651   C689    1.088   .     S
N669   Zn682   2.014   .     S
N670   Zn681   2.014   .     S
O671   Zn681   1.995   .     S
O673   Zn682   1.995   .     S
O674   Zn682   2.005   .     S
O675   Zn681   2.005   .     S
O676   Zn681   1.965   .     S
O677   Zn682   1.965   .     S
O678   Zn682   1.983   .     S
O679   Zn681   1.983   .     S
C683   O736    1.290   .     A
C683   C696    1.438   .     S
C683   O733    1.289   .     A
C684   C686    1.414   .     A
C684   H720    1.081   .     S
C684   C711    1.410   .     A
C685   C712    1.414   .     A
C685   C705    1.401   .     A
C686   C707    1.400   .     A
C686   C313    1.517   1_556 S
C687   O738    1.277   .     A
C687   C689    1.404   .     S
C687   O740    1.285   .     A
C688   O739    1.277   .     A
C688   C690    1.404   .     S
C688   O741    1.285   .     A
C690   C565    1.334   1_655 S
C690   H599    1.088   1_655 S
C691   C693    1.380   .     A
C691   H724    1.083   .     S
C691   C702    1.398   .     A
C692   C703    1.398   .     A
C692   H725    1.083   .     S
C692   C695    1.380   .     A
C693   H726    1.084   .     S
C693   C696    1.400   .     A
C694   O735    1.289   .     A
C694   C697    1.440   .     S
C694   O737    1.292   .     A
C695   H727    1.083   .     S
C695   C697    1.400   .     A
C696   C698    1.398   .     A
C697   C699    1.398   .     A
C698   C700    1.381   .     A
C698   H728    1.084   .     S
C699   C701    1.381   .     A
C699   H729    1.082   .     S
C700   C702    1.400   .     A
C700   H730    1.083   .     S
C701   H714    1.083   .     S
C701   C703    1.400   .     A
C703   C516    1.445   1_565 S
C704   O742    1.221   .     D
C704   H721    1.077   .     S
C704   C708    1.477   .     S
C705   C708    1.410   .     A
C705   H715    1.082   .     S
C706   C709    1.480   .     S
C706   O734    1.222   .     D
C706   H722    1.074   .     S
C707   C709    1.410   .     A
C707   H716    1.081   .     S
C708   N731    1.377   .     A
C709   N732    1.378   .     A
C710   C712    1.409   .     A
C710   H717    1.082   .     S
C710   N731    1.363   .     A
C711   H718    1.082   .     S
C711   N732    1.364   .     A
C712   H719    1.081   .     S
H713   C565    1.088   1_655 S
N731   Zn744   2.014   .     S
N732   Zn743   2.014   .     S
O733   Zn743   1.995   .     S
O735   Zn744   1.995   .     S
O736   Zn744   2.005   .     S
O737   Zn743   2.005   .     S
O738   Zn743   1.965   .     S
O739   Zn744   1.965   .     S
O740   Zn744   1.983   .     S
O741   Zn743   1.983   .     S
