data_str_m2_o1_o16_pcu_sym.137
_audit_creation_date              2020-01-03
_audit_creation_method            'Materials Studio'
_symmetry_space_group_name_H-M    'P1'
_symmetry_Int_Tables_number       1
_symmetry_cell_setting            triclinic
loop_
_symmetry_equiv_pos_as_xyz
  x,y,z
_cell_length_a                    28.6157
_cell_length_b                    32.6549
_cell_length_c                    27.3786
_cell_angle_alpha                 89.6260
_cell_angle_beta                  73.5104
_cell_angle_gamma                 91.4775
loop_
_atom_site_label
_atom_site_type_symbol
_atom_site_fract_x
_atom_site_fract_y
_atom_site_fract_z
_atom_site_U_iso_or_equiv
_atom_site_adp_type
_atom_site_occupancy
O1     O     0.12708   0.22678   0.25000   0.00000  Uiso   1.00
O2     O     0.20627   0.22679   0.25000   0.00000  Uiso   1.00
C3     C     0.16761   0.24582   0.24861   0.00000  Uiso   1.00
O4     O     0.10775   0.16665   0.32549   0.00000  Uiso   1.00
O5     O     0.18694   0.16666   0.32549   0.00000  Uiso   1.00
C6     C     0.14116   0.16363   0.34990   0.00000  Uiso   1.00
Cu7    Cu    0.11978   0.16666   0.25000   0.00000  Uiso   1.00
Cu8    Cu    0.21355   0.16667   0.25000   0.00000  Uiso   1.00
O9     O     0.12706   0.10654   0.24999   0.00000  Uiso   1.00
O10    O     0.20625   0.10655   0.25000   0.00000  Uiso   1.00
O11    O     0.14640   0.16667   0.17451   0.00000  Uiso   1.00
O12    O     0.22559   0.16668   0.17451   0.00000  Uiso   1.00
C13    C     0.16602   0.08724   0.24885   0.00000  Uiso   1.00
C14    C     0.19262   0.16653   0.15032   0.00000  Uiso   1.00
C15    C     0.26661   0.19271   0.01507   0.00000  Uiso   1.00
H16    H     0.28551   0.18721   0.41593   0.00000  Uiso   1.00
H17    H     0.30344   0.20220   0.49412   0.00000  Uiso   1.00
C18    C     0.20765   0.17077   0.09424   0.00000  Uiso   1.00
C19    C     0.07902   0.15279   0.43614   0.00000  Uiso   1.00
C20    C     0.06473   0.16313   0.48731   0.00000  Uiso   1.00
C21    C     0.09870   0.17532   0.01172   0.00000  Uiso   1.00
C22    C     0.14855   0.17197   0.48761   0.00000  Uiso   1.00
C23    C     0.16422   0.16683   0.43402   0.00000  Uiso   1.00
C24    C     0.18347   0.17474   0.01552   0.00000  Uiso   1.00
C25    C     0.23216   0.18511   0.48906   0.00000  Uiso   1.00
C26    C     0.24746   0.18246   0.43652   0.00000  Uiso   1.00
C27    C     0.21537   0.16794   0.41082   0.00000  Uiso   1.00
C28    C     0.17253   0.16338   0.06752   0.00000  Uiso   1.00
C29    C     0.25532   0.18529   0.06723   0.00000  Uiso   1.00
C30    C     0.12821   0.16028   0.40686   0.00000  Uiso   1.00
H31    H     0.08560   0.18623   0.05009   0.00000  Uiso   1.00
H32    H     0.02720   0.15961   0.00950   0.00000  Uiso   1.00
H33    H     0.23326   0.15673   0.37373   0.00000  Uiso   1.00
C34    C     0.20799   0.31311   0.21372   0.00000  Uiso   1.00
C35    C     0.20786   0.02270   0.21671   0.00000  Uiso   1.00
C36    C     0.16488   0.04237   0.24446   0.00000  Uiso   1.00
C37    C     0.12200   0.01811   0.26742   0.00000  Uiso   1.00
C38    C     0.12677   0.30970   0.27280   0.00000  Uiso   1.00
H39    H     0.09554   0.29116   0.29391   0.00000  Uiso   1.00
C40    C     0.16891   0.29032   0.24629   0.00000  Uiso   1.00
C41    C     0.30411   0.19790   0.27246   0.00000  Uiso   1.00
C42    C     0.02001   0.19710   0.27290   0.00000  Uiso   1.00
H43    H     0.03479   0.22133   0.29137   0.00000  Uiso   1.00
N44    N     0.04931   0.16666   0.24998   0.00000  Uiso   1.00
C45    C     0.03026   0.13670   0.22613   0.00000  Uiso   1.00
H46    H     0.05337   0.11279   0.20668   0.00000  Uiso   1.00
C47    C     0.31411   0.13662   0.22630   0.00000  Uiso   1.00
H48    H     0.30034   0.11300   0.20651   0.00000  Uiso   1.00
N49    N     0.28402   0.16669   0.25000   0.00000  Uiso   1.00
N50    N     0.29400   0.18958   0.09081   0.00000  Uiso   1.00
O51    O     0.32183   0.22251   0.08189   0.00000  Uiso   1.00
O52    O     0.30991   0.15700   0.10778   0.00000  Uiso   1.00
N53    N     0.24999   0.04618   0.18833   0.00000  Uiso   1.00
O54    O     0.24642   0.07256   0.15381   0.00000  Uiso   1.00
O55    O     0.29287   0.03747   0.19238   0.00000  Uiso   1.00
S56    S     0.06080   0.03352   0.27624   0.00000  Uiso   1.00
O57    O     0.05294   0.03678   0.22440   0.00000  Uiso   1.00
O58    O     0.02571   0.00139   0.30669   0.00000  Uiso   1.00
O59    O     0.04732   0.07816   0.30586   0.00000  Uiso   1.00
H60    H     0.01162   0.08032   0.31222   0.00000  Uiso   1.00
N61    N     0.27760   0.23359   0.29265   0.00000  Uiso   1.00
O62    O     0.24053   0.23076   0.33301   0.00000  Uiso   1.00
O63    O     0.29783   0.26961   0.27921   0.00000  Uiso   1.00
N64    N     0.13301   0.13442   0.08837   0.00000  Uiso   1.00
O65    O     0.13677   0.09677   0.07283   0.00000  Uiso   1.00
O66    O     0.09181   0.14606   0.11850   0.00000  Uiso   1.00
S67    S     0.03770   0.12128   0.41518   0.00000  Uiso   1.00
O68    O     0.02079   0.14262   0.37480   0.00000  Uiso   1.00
O69    O     0.06354   0.08293   0.39451   0.00000  Uiso   1.00
O70    O     0.32202   0.10838   0.46406   0.00000  Uiso   1.00
H71    H     0.29953   0.09341   0.44838   0.00000  Uiso   1.00
S72    S     0.25028   0.28901   0.16208   0.00000  Uiso   1.00
O73    O     0.28984   0.27026   0.18021   0.00000  Uiso   1.00
O74    O     0.22360   0.25611   0.14185   0.00000  Uiso   1.00
O75    O     0.27563   0.32223   0.11405   0.00000  Uiso   1.00
H76    H     0.29733   0.30561   0.08731   0.00000  Uiso   1.00
O77    O     0.46042   0.22678   0.25000   0.00000  Uiso   1.00
O78    O     0.53961   0.22679   0.25000   0.00000  Uiso   1.00
C79    C     0.50094   0.24582   0.24861   0.00000  Uiso   1.00
O80    O     0.44108   0.16665   0.32549   0.00000  Uiso   1.00
O81    O     0.52027   0.16666   0.32549   0.00000  Uiso   1.00
C82    C     0.47450   0.16363   0.34990   0.00000  Uiso   1.00
Cu83   Cu    0.45311   0.16666   0.25000   0.00000  Uiso   1.00
Cu84   Cu    0.54689   0.16667   0.25000   0.00000  Uiso   1.00
O85    O     0.46039   0.10654   0.24999   0.00000  Uiso   1.00
O86    O     0.53958   0.10655   0.25000   0.00000  Uiso   1.00
O87    O     0.47973   0.16667   0.17451   0.00000  Uiso   1.00
O88    O     0.55892   0.16668   0.17451   0.00000  Uiso   1.00
C89    C     0.49936   0.08724   0.24885   0.00000  Uiso   1.00
C90    C     0.52595   0.16653   0.15032   0.00000  Uiso   1.00
C91    C     0.59995   0.19271   0.01507   0.00000  Uiso   1.00
H92    H     0.61884   0.18721   0.41593   0.00000  Uiso   1.00
H93    H     0.63678   0.20220   0.49412   0.00000  Uiso   1.00
C94    C     0.54098   0.17077   0.09424   0.00000  Uiso   1.00
C95    C     0.41236   0.15279   0.43614   0.00000  Uiso   1.00
C96    C     0.39806   0.16313   0.48731   0.00000  Uiso   1.00
C97    C     0.43204   0.17532   0.01172   0.00000  Uiso   1.00
C98    C     0.48189   0.17197   0.48761   0.00000  Uiso   1.00
C99    C     0.49755   0.16683   0.43402   0.00000  Uiso   1.00
C100   C     0.51680   0.17474   0.01552   0.00000  Uiso   1.00
C101   C     0.56550   0.18511   0.48906   0.00000  Uiso   1.00
C102   C     0.58079   0.18246   0.43652   0.00000  Uiso   1.00
C103   C     0.54870   0.16794   0.41082   0.00000  Uiso   1.00
C104   C     0.50587   0.16338   0.06752   0.00000  Uiso   1.00
C105   C     0.58865   0.18529   0.06723   0.00000  Uiso   1.00
C106   C     0.46154   0.16028   0.40686   0.00000  Uiso   1.00
H107   H     0.41893   0.18623   0.05009   0.00000  Uiso   1.00
H108   H     0.36053   0.15961   0.00950   0.00000  Uiso   1.00
H109   H     0.56660   0.15673   0.37373   0.00000  Uiso   1.00
C110   C     0.54132   0.31311   0.21372   0.00000  Uiso   1.00
C111   C     0.54120   0.02270   0.21671   0.00000  Uiso   1.00
C112   C     0.49821   0.04237   0.24446   0.00000  Uiso   1.00
C113   C     0.45533   0.01811   0.26742   0.00000  Uiso   1.00
C114   C     0.46010   0.30970   0.27280   0.00000  Uiso   1.00
H115   H     0.42887   0.29116   0.29391   0.00000  Uiso   1.00
C116   C     0.50224   0.29032   0.24629   0.00000  Uiso   1.00
C117   C     0.63744   0.19790   0.27246   0.00000  Uiso   1.00
C118   C     0.35334   0.19710   0.27290   0.00000  Uiso   1.00
H119   H     0.36813   0.22133   0.29137   0.00000  Uiso   1.00
N120   N     0.38265   0.16666   0.24998   0.00000  Uiso   1.00
C121   C     0.36359   0.13670   0.22613   0.00000  Uiso   1.00
H122   H     0.38670   0.11279   0.20668   0.00000  Uiso   1.00
C123   C     0.64744   0.13662   0.22630   0.00000  Uiso   1.00
H124   H     0.63368   0.11300   0.20651   0.00000  Uiso   1.00
N125   N     0.61735   0.16669   0.25000   0.00000  Uiso   1.00
N126   N     0.62734   0.18958   0.09081   0.00000  Uiso   1.00
O127   O     0.65516   0.22251   0.08189   0.00000  Uiso   1.00
O128   O     0.64325   0.15700   0.10778   0.00000  Uiso   1.00
N129   N     0.58332   0.04618   0.18833   0.00000  Uiso   1.00
O130   O     0.57975   0.07256   0.15381   0.00000  Uiso   1.00
O131   O     0.62620   0.03747   0.19238   0.00000  Uiso   1.00
S132   S     0.39413   0.03352   0.27624   0.00000  Uiso   1.00
O133   O     0.38628   0.03678   0.22440   0.00000  Uiso   1.00
O134   O     0.35905   0.00139   0.30669   0.00000  Uiso   1.00
O135   O     0.38066   0.07816   0.30586   0.00000  Uiso   1.00
H136   H     0.34495   0.08032   0.31222   0.00000  Uiso   1.00
N137   N     0.61093   0.23359   0.29265   0.00000  Uiso   1.00
O138   O     0.57387   0.23076   0.33301   0.00000  Uiso   1.00
O139   O     0.63116   0.26961   0.27921   0.00000  Uiso   1.00
N140   N     0.46634   0.13442   0.08837   0.00000  Uiso   1.00
O141   O     0.47010   0.09677   0.07283   0.00000  Uiso   1.00
O142   O     0.42514   0.14606   0.11850   0.00000  Uiso   1.00
S143   S     0.37103   0.12128   0.41518   0.00000  Uiso   1.00
O144   O     0.35412   0.14262   0.37480   0.00000  Uiso   1.00
O145   O     0.39687   0.08293   0.39451   0.00000  Uiso   1.00
O146   O     0.65535   0.10838   0.46406   0.00000  Uiso   1.00
H147   H     0.63286   0.09341   0.44838   0.00000  Uiso   1.00
S148   S     0.58362   0.28901   0.16208   0.00000  Uiso   1.00
O149   O     0.62318   0.27026   0.18021   0.00000  Uiso   1.00
O150   O     0.55693   0.25611   0.14185   0.00000  Uiso   1.00
O151   O     0.60896   0.32223   0.11405   0.00000  Uiso   1.00
H152   H     0.63066   0.30561   0.08731   0.00000  Uiso   1.00
O153   O     0.79375   0.22678   0.25000   0.00000  Uiso   1.00
O154   O     0.87294   0.22679   0.25000   0.00000  Uiso   1.00
C155   C     0.83427   0.24582   0.24861   0.00000  Uiso   1.00
O156   O     0.77441   0.16665   0.32549   0.00000  Uiso   1.00
O157   O     0.85360   0.16666   0.32549   0.00000  Uiso   1.00
C158   C     0.80783   0.16363   0.34990   0.00000  Uiso   1.00
Cu159  Cu    0.78645   0.16666   0.25000   0.00000  Uiso   1.00
Cu160  Cu    0.88022   0.16667   0.25000   0.00000  Uiso   1.00
O161   O     0.79373   0.10654   0.24999   0.00000  Uiso   1.00
O162   O     0.87292   0.10655   0.25000   0.00000  Uiso   1.00
O163   O     0.81306   0.16667   0.17451   0.00000  Uiso   1.00
O164   O     0.89225   0.16668   0.17451   0.00000  Uiso   1.00
C165   C     0.83269   0.08724   0.24885   0.00000  Uiso   1.00
C166   C     0.85929   0.16653   0.15032   0.00000  Uiso   1.00
C167   C     0.93328   0.19271   0.01507   0.00000  Uiso   1.00
H168   H     0.95218   0.18721   0.41593   0.00000  Uiso   1.00
H169   H     0.97011   0.20220   0.49412   0.00000  Uiso   1.00
C170   C     0.87431   0.17077   0.09424   0.00000  Uiso   1.00
C171   C     0.74569   0.15279   0.43614   0.00000  Uiso   1.00
C172   C     0.73139   0.16313   0.48731   0.00000  Uiso   1.00
C173   C     0.76537   0.17532   0.01172   0.00000  Uiso   1.00
C174   C     0.81522   0.17197   0.48761   0.00000  Uiso   1.00
C175   C     0.83088   0.16683   0.43402   0.00000  Uiso   1.00
C176   C     0.85014   0.17474   0.01552   0.00000  Uiso   1.00
C177   C     0.89883   0.18511   0.48906   0.00000  Uiso   1.00
C178   C     0.91412   0.18246   0.43652   0.00000  Uiso   1.00
C179   C     0.88204   0.16794   0.41082   0.00000  Uiso   1.00
C180   C     0.83920   0.16338   0.06752   0.00000  Uiso   1.00
C181   C     0.92199   0.18529   0.06723   0.00000  Uiso   1.00
C182   C     0.79488   0.16028   0.40686   0.00000  Uiso   1.00
H183   H     0.75227   0.18623   0.05009   0.00000  Uiso   1.00
H184   H     0.69387   0.15961   0.00950   0.00000  Uiso   1.00
H185   H     0.89993   0.15673   0.37373   0.00000  Uiso   1.00
C186   C     0.87466   0.31311   0.21372   0.00000  Uiso   1.00
C187   C     0.87453   0.02270   0.21671   0.00000  Uiso   1.00
C188   C     0.83155   0.04237   0.24446   0.00000  Uiso   1.00
C189   C     0.78866   0.01811   0.26742   0.00000  Uiso   1.00
C190   C     0.79344   0.30970   0.27280   0.00000  Uiso   1.00
H191   H     0.76221   0.29116   0.29391   0.00000  Uiso   1.00
C192   C     0.83558   0.29032   0.24629   0.00000  Uiso   1.00
C193   C     0.97078   0.19790   0.27246   0.00000  Uiso   1.00
C194   C     0.68667   0.19710   0.27290   0.00000  Uiso   1.00
H195   H     0.70146   0.22133   0.29137   0.00000  Uiso   1.00
N196   N     0.71598   0.16666   0.24998   0.00000  Uiso   1.00
C197   C     0.69693   0.13670   0.22613   0.00000  Uiso   1.00
H198   H     0.72004   0.11279   0.20668   0.00000  Uiso   1.00
C199   C     0.98078   0.13662   0.22630   0.00000  Uiso   1.00
H200   H     0.96701   0.11300   0.20651   0.00000  Uiso   1.00
N201   N     0.95069   0.16669   0.25000   0.00000  Uiso   1.00
N202   N     0.96067   0.18958   0.09081   0.00000  Uiso   1.00
O203   O     0.98849   0.22251   0.08189   0.00000  Uiso   1.00
O204   O     0.97658   0.15700   0.10778   0.00000  Uiso   1.00
N205   N     0.91665   0.04618   0.18833   0.00000  Uiso   1.00
O206   O     0.91308   0.07256   0.15381   0.00000  Uiso   1.00
O207   O     0.95954   0.03747   0.19238   0.00000  Uiso   1.00
S208   S     0.72746   0.03352   0.27624   0.00000  Uiso   1.00
O209   O     0.71961   0.03678   0.22440   0.00000  Uiso   1.00
O210   O     0.69238   0.00139   0.30669   0.00000  Uiso   1.00
O211   O     0.71399   0.07816   0.30586   0.00000  Uiso   1.00
H212   H     0.67829   0.08032   0.31222   0.00000  Uiso   1.00
N213   N     0.94427   0.23359   0.29265   0.00000  Uiso   1.00
O214   O     0.90720   0.23076   0.33301   0.00000  Uiso   1.00
O215   O     0.96450   0.26961   0.27921   0.00000  Uiso   1.00
N216   N     0.79967   0.13442   0.08837   0.00000  Uiso   1.00
O217   O     0.80343   0.09677   0.07283   0.00000  Uiso   1.00
O218   O     0.75847   0.14606   0.11850   0.00000  Uiso   1.00
S219   S     0.70436   0.12128   0.41518   0.00000  Uiso   1.00
O220   O     0.68745   0.14262   0.37480   0.00000  Uiso   1.00
O221   O     0.73020   0.08293   0.39451   0.00000  Uiso   1.00
O222   O     0.98868   0.10838   0.46406   0.00000  Uiso   1.00
H223   H     0.96619   0.09341   0.44838   0.00000  Uiso   1.00
S224   S     0.91695   0.28901   0.16208   0.00000  Uiso   1.00
O225   O     0.95651   0.27026   0.18021   0.00000  Uiso   1.00
O226   O     0.89026   0.25611   0.14185   0.00000  Uiso   1.00
O227   O     0.94230   0.32223   0.11405   0.00000  Uiso   1.00
H228   H     0.96400   0.30561   0.08731   0.00000  Uiso   1.00
O229   O     0.12708   0.56011   0.25000   0.00000  Uiso   1.00
O230   O     0.20627   0.56012   0.25000   0.00000  Uiso   1.00
C231   C     0.16761   0.57916   0.24861   0.00000  Uiso   1.00
O232   O     0.10775   0.49998   0.32549   0.00000  Uiso   1.00
O233   O     0.18694   0.49999   0.32549   0.00000  Uiso   1.00
C234   C     0.14116   0.49696   0.34990   0.00000  Uiso   1.00
Cu235  Cu    0.11978   0.49999   0.25000   0.00000  Uiso   1.00
Cu236  Cu    0.21355   0.50001   0.25000   0.00000  Uiso   1.00
O237   O     0.12706   0.43988   0.24999   0.00000  Uiso   1.00
O238   O     0.20625   0.43989   0.25000   0.00000  Uiso   1.00
O239   O     0.14640   0.50001   0.17451   0.00000  Uiso   1.00
O240   O     0.22559   0.50002   0.17451   0.00000  Uiso   1.00
C241   C     0.16602   0.42057   0.24885   0.00000  Uiso   1.00
C242   C     0.19262   0.49986   0.15032   0.00000  Uiso   1.00
C243   C     0.26661   0.52604   0.01507   0.00000  Uiso   1.00
H244   H     0.28551   0.52054   0.41593   0.00000  Uiso   1.00
H245   H     0.30344   0.53554   0.49412   0.00000  Uiso   1.00
C246   C     0.20765   0.50411   0.09424   0.00000  Uiso   1.00
C247   C     0.07902   0.48612   0.43614   0.00000  Uiso   1.00
C248   C     0.06473   0.49646   0.48731   0.00000  Uiso   1.00
C249   C     0.09870   0.50866   0.01172   0.00000  Uiso   1.00
C250   C     0.14855   0.50531   0.48761   0.00000  Uiso   1.00
C251   C     0.16422   0.50016   0.43402   0.00000  Uiso   1.00
C252   C     0.18347   0.50807   0.01552   0.00000  Uiso   1.00
C253   C     0.23216   0.51844   0.48906   0.00000  Uiso   1.00
C254   C     0.24746   0.51579   0.43652   0.00000  Uiso   1.00
C255   C     0.21537   0.50127   0.41082   0.00000  Uiso   1.00
C256   C     0.17253   0.49671   0.06752   0.00000  Uiso   1.00
C257   C     0.25532   0.51862   0.06723   0.00000  Uiso   1.00
C258   C     0.12821   0.49361   0.40686   0.00000  Uiso   1.00
H259   H     0.08560   0.51956   0.05009   0.00000  Uiso   1.00
H260   H     0.02720   0.49294   0.00950   0.00000  Uiso   1.00
H261   H     0.23326   0.49006   0.37373   0.00000  Uiso   1.00
C262   C     0.20799   0.64645   0.21372   0.00000  Uiso   1.00
C263   C     0.20786   0.35604   0.21671   0.00000  Uiso   1.00
C264   C     0.16488   0.37570   0.24446   0.00000  Uiso   1.00
C265   C     0.12200   0.35145   0.26742   0.00000  Uiso   1.00
C266   C     0.12677   0.64303   0.27280   0.00000  Uiso   1.00
H267   H     0.09554   0.62450   0.29391   0.00000  Uiso   1.00
C268   C     0.16891   0.62366   0.24629   0.00000  Uiso   1.00
C269   C     0.30411   0.53124   0.27246   0.00000  Uiso   1.00
C270   C     0.02001   0.53043   0.27290   0.00000  Uiso   1.00
H271   H     0.03479   0.55466   0.29137   0.00000  Uiso   1.00
N272   N     0.04931   0.49999   0.24998   0.00000  Uiso   1.00
C273   C     0.03026   0.47003   0.22613   0.00000  Uiso   1.00
H274   H     0.05337   0.44613   0.20668   0.00000  Uiso   1.00
C275   C     0.31411   0.46996   0.22630   0.00000  Uiso   1.00
H276   H     0.30034   0.44634   0.20651   0.00000  Uiso   1.00
N277   N     0.28402   0.50002   0.25000   0.00000  Uiso   1.00
N278   N     0.29400   0.52291   0.09081   0.00000  Uiso   1.00
O279   O     0.32183   0.55585   0.08189   0.00000  Uiso   1.00
O280   O     0.30991   0.49033   0.10778   0.00000  Uiso   1.00
N281   N     0.24999   0.37952   0.18833   0.00000  Uiso   1.00
O282   O     0.24642   0.40589   0.15381   0.00000  Uiso   1.00
O283   O     0.29287   0.37080   0.19238   0.00000  Uiso   1.00
S284   S     0.06080   0.36685   0.27624   0.00000  Uiso   1.00
O285   O     0.05294   0.37011   0.22440   0.00000  Uiso   1.00
O286   O     0.02571   0.33473   0.30669   0.00000  Uiso   1.00
O287   O     0.04732   0.41149   0.30586   0.00000  Uiso   1.00
H288   H     0.01162   0.41365   0.31222   0.00000  Uiso   1.00
N289   N     0.27760   0.56692   0.29265   0.00000  Uiso   1.00
O290   O     0.24053   0.56409   0.33301   0.00000  Uiso   1.00
O291   O     0.29783   0.60294   0.27921   0.00000  Uiso   1.00
N292   N     0.13301   0.46775   0.08837   0.00000  Uiso   1.00
O293   O     0.13677   0.43010   0.07283   0.00000  Uiso   1.00
O294   O     0.09181   0.47940   0.11850   0.00000  Uiso   1.00
S295   S     0.03770   0.45461   0.41518   0.00000  Uiso   1.00
O296   O     0.02079   0.47595   0.37480   0.00000  Uiso   1.00
O297   O     0.06354   0.41626   0.39451   0.00000  Uiso   1.00
O298   O     0.32202   0.44172   0.46406   0.00000  Uiso   1.00
H299   H     0.29953   0.42674   0.44838   0.00000  Uiso   1.00
S300   S     0.25028   0.62234   0.16208   0.00000  Uiso   1.00
O301   O     0.28984   0.60359   0.18021   0.00000  Uiso   1.00
O302   O     0.22360   0.58944   0.14185   0.00000  Uiso   1.00
O303   O     0.27563   0.65556   0.11405   0.00000  Uiso   1.00
H304   H     0.29733   0.63894   0.08731   0.00000  Uiso   1.00
O305   O     0.46042   0.56011   0.25000   0.00000  Uiso   1.00
O306   O     0.53961   0.56012   0.25000   0.00000  Uiso   1.00
C307   C     0.50094   0.57916   0.24861   0.00000  Uiso   1.00
O308   O     0.44108   0.49998   0.32549   0.00000  Uiso   1.00
O309   O     0.52027   0.49999   0.32549   0.00000  Uiso   1.00
C310   C     0.47450   0.49696   0.34990   0.00000  Uiso   1.00
Cu311  Cu    0.45311   0.49999   0.25000   0.00000  Uiso   1.00
Cu312  Cu    0.54689   0.50001   0.25000   0.00000  Uiso   1.00
O313   O     0.46039   0.43988   0.24999   0.00000  Uiso   1.00
O314   O     0.53958   0.43989   0.25000   0.00000  Uiso   1.00
O315   O     0.47973   0.50001   0.17451   0.00000  Uiso   1.00
O316   O     0.55892   0.50002   0.17451   0.00000  Uiso   1.00
C317   C     0.49936   0.42057   0.24885   0.00000  Uiso   1.00
C318   C     0.52595   0.49986   0.15032   0.00000  Uiso   1.00
C319   C     0.59995   0.52604   0.01507   0.00000  Uiso   1.00
H320   H     0.61884   0.52054   0.41593   0.00000  Uiso   1.00
H321   H     0.63678   0.53554   0.49412   0.00000  Uiso   1.00
C322   C     0.54098   0.50411   0.09424   0.00000  Uiso   1.00
C323   C     0.41236   0.48612   0.43614   0.00000  Uiso   1.00
C324   C     0.39806   0.49646   0.48731   0.00000  Uiso   1.00
C325   C     0.43204   0.50866   0.01172   0.00000  Uiso   1.00
C326   C     0.48189   0.50531   0.48761   0.00000  Uiso   1.00
C327   C     0.49755   0.50016   0.43402   0.00000  Uiso   1.00
C328   C     0.51680   0.50807   0.01552   0.00000  Uiso   1.00
C329   C     0.56550   0.51844   0.48906   0.00000  Uiso   1.00
C330   C     0.58079   0.51579   0.43652   0.00000  Uiso   1.00
C331   C     0.54870   0.50127   0.41082   0.00000  Uiso   1.00
C332   C     0.50587   0.49671   0.06752   0.00000  Uiso   1.00
C333   C     0.58865   0.51862   0.06723   0.00000  Uiso   1.00
C334   C     0.46154   0.49361   0.40686   0.00000  Uiso   1.00
H335   H     0.41893   0.51956   0.05009   0.00000  Uiso   1.00
H336   H     0.36053   0.49294   0.00950   0.00000  Uiso   1.00
H337   H     0.56660   0.49006   0.37373   0.00000  Uiso   1.00
C338   C     0.54132   0.64645   0.21372   0.00000  Uiso   1.00
C339   C     0.54120   0.35604   0.21671   0.00000  Uiso   1.00
C340   C     0.49821   0.37570   0.24446   0.00000  Uiso   1.00
C341   C     0.45533   0.35145   0.26742   0.00000  Uiso   1.00
C342   C     0.46010   0.64303   0.27280   0.00000  Uiso   1.00
H343   H     0.42887   0.62450   0.29391   0.00000  Uiso   1.00
C344   C     0.50224   0.62366   0.24629   0.00000  Uiso   1.00
C345   C     0.63744   0.53124   0.27246   0.00000  Uiso   1.00
C346   C     0.35334   0.53043   0.27290   0.00000  Uiso   1.00
H347   H     0.36813   0.55466   0.29137   0.00000  Uiso   1.00
N348   N     0.38265   0.49999   0.24998   0.00000  Uiso   1.00
C349   C     0.36359   0.47003   0.22613   0.00000  Uiso   1.00
H350   H     0.38670   0.44613   0.20668   0.00000  Uiso   1.00
C351   C     0.64744   0.46996   0.22630   0.00000  Uiso   1.00
H352   H     0.63368   0.44634   0.20651   0.00000  Uiso   1.00
N353   N     0.61735   0.50002   0.25000   0.00000  Uiso   1.00
N354   N     0.62734   0.52291   0.09081   0.00000  Uiso   1.00
O355   O     0.65516   0.55585   0.08189   0.00000  Uiso   1.00
O356   O     0.64325   0.49033   0.10778   0.00000  Uiso   1.00
N357   N     0.58332   0.37952   0.18833   0.00000  Uiso   1.00
O358   O     0.57975   0.40589   0.15381   0.00000  Uiso   1.00
O359   O     0.62620   0.37080   0.19238   0.00000  Uiso   1.00
S360   S     0.39413   0.36685   0.27624   0.00000  Uiso   1.00
O361   O     0.38628   0.37011   0.22440   0.00000  Uiso   1.00
O362   O     0.35905   0.33473   0.30669   0.00000  Uiso   1.00
O363   O     0.38066   0.41149   0.30586   0.00000  Uiso   1.00
H364   H     0.34495   0.41365   0.31222   0.00000  Uiso   1.00
N365   N     0.61093   0.56692   0.29265   0.00000  Uiso   1.00
O366   O     0.57387   0.56409   0.33301   0.00000  Uiso   1.00
O367   O     0.63116   0.60294   0.27921   0.00000  Uiso   1.00
N368   N     0.46634   0.46775   0.08837   0.00000  Uiso   1.00
O369   O     0.47010   0.43010   0.07283   0.00000  Uiso   1.00
O370   O     0.42514   0.47940   0.11850   0.00000  Uiso   1.00
S371   S     0.37103   0.45461   0.41518   0.00000  Uiso   1.00
O372   O     0.35412   0.47595   0.37480   0.00000  Uiso   1.00
O373   O     0.39687   0.41626   0.39451   0.00000  Uiso   1.00
O374   O     0.65535   0.44172   0.46406   0.00000  Uiso   1.00
H375   H     0.63286   0.42674   0.44838   0.00000  Uiso   1.00
S376   S     0.58362   0.62234   0.16208   0.00000  Uiso   1.00
O377   O     0.62318   0.60359   0.18021   0.00000  Uiso   1.00
O378   O     0.55693   0.58944   0.14185   0.00000  Uiso   1.00
O379   O     0.60896   0.65556   0.11405   0.00000  Uiso   1.00
H380   H     0.63066   0.63894   0.08731   0.00000  Uiso   1.00
O381   O     0.79375   0.56011   0.25000   0.00000  Uiso   1.00
O382   O     0.87294   0.56012   0.25000   0.00000  Uiso   1.00
C383   C     0.83427   0.57916   0.24861   0.00000  Uiso   1.00
O384   O     0.77441   0.49998   0.32549   0.00000  Uiso   1.00
O385   O     0.85360   0.49999   0.32549   0.00000  Uiso   1.00
C386   C     0.80783   0.49696   0.34990   0.00000  Uiso   1.00
Cu387  Cu    0.78645   0.49999   0.25000   0.00000  Uiso   1.00
Cu388  Cu    0.88022   0.50001   0.25000   0.00000  Uiso   1.00
O389   O     0.79373   0.43988   0.24999   0.00000  Uiso   1.00
O390   O     0.87292   0.43989   0.25000   0.00000  Uiso   1.00
O391   O     0.81306   0.50001   0.17451   0.00000  Uiso   1.00
O392   O     0.89225   0.50002   0.17451   0.00000  Uiso   1.00
C393   C     0.83269   0.42057   0.24885   0.00000  Uiso   1.00
C394   C     0.85929   0.49986   0.15032   0.00000  Uiso   1.00
C395   C     0.93328   0.52604   0.01507   0.00000  Uiso   1.00
H396   H     0.95218   0.52054   0.41593   0.00000  Uiso   1.00
H397   H     0.97011   0.53554   0.49412   0.00000  Uiso   1.00
C398   C     0.87431   0.50411   0.09424   0.00000  Uiso   1.00
C399   C     0.74569   0.48612   0.43614   0.00000  Uiso   1.00
C400   C     0.73139   0.49646   0.48731   0.00000  Uiso   1.00
C401   C     0.76537   0.50866   0.01172   0.00000  Uiso   1.00
C402   C     0.81522   0.50531   0.48761   0.00000  Uiso   1.00
C403   C     0.83088   0.50016   0.43402   0.00000  Uiso   1.00
C404   C     0.85014   0.50807   0.01552   0.00000  Uiso   1.00
C405   C     0.89883   0.51844   0.48906   0.00000  Uiso   1.00
C406   C     0.91412   0.51579   0.43652   0.00000  Uiso   1.00
C407   C     0.88204   0.50127   0.41082   0.00000  Uiso   1.00
C408   C     0.83920   0.49671   0.06752   0.00000  Uiso   1.00
C409   C     0.92199   0.51862   0.06723   0.00000  Uiso   1.00
C410   C     0.79488   0.49361   0.40686   0.00000  Uiso   1.00
H411   H     0.75227   0.51956   0.05009   0.00000  Uiso   1.00
H412   H     0.69387   0.49294   0.00950   0.00000  Uiso   1.00
H413   H     0.89993   0.49006   0.37373   0.00000  Uiso   1.00
C414   C     0.87466   0.64645   0.21372   0.00000  Uiso   1.00
C415   C     0.87453   0.35604   0.21671   0.00000  Uiso   1.00
C416   C     0.83155   0.37570   0.24446   0.00000  Uiso   1.00
C417   C     0.78866   0.35145   0.26742   0.00000  Uiso   1.00
C418   C     0.79344   0.64303   0.27280   0.00000  Uiso   1.00
H419   H     0.76221   0.62450   0.29391   0.00000  Uiso   1.00
C420   C     0.83558   0.62366   0.24629   0.00000  Uiso   1.00
C421   C     0.97078   0.53124   0.27246   0.00000  Uiso   1.00
C422   C     0.68667   0.53043   0.27290   0.00000  Uiso   1.00
H423   H     0.70146   0.55466   0.29137   0.00000  Uiso   1.00
N424   N     0.71598   0.49999   0.24998   0.00000  Uiso   1.00
C425   C     0.69693   0.47003   0.22613   0.00000  Uiso   1.00
H426   H     0.72004   0.44613   0.20668   0.00000  Uiso   1.00
C427   C     0.98078   0.46996   0.22630   0.00000  Uiso   1.00
H428   H     0.96701   0.44634   0.20651   0.00000  Uiso   1.00
N429   N     0.95069   0.50002   0.25000   0.00000  Uiso   1.00
N430   N     0.96067   0.52291   0.09081   0.00000  Uiso   1.00
O431   O     0.98849   0.55585   0.08189   0.00000  Uiso   1.00
O432   O     0.97658   0.49033   0.10778   0.00000  Uiso   1.00
N433   N     0.91665   0.37952   0.18833   0.00000  Uiso   1.00
O434   O     0.91308   0.40589   0.15381   0.00000  Uiso   1.00
O435   O     0.95954   0.37080   0.19238   0.00000  Uiso   1.00
S436   S     0.72746   0.36685   0.27624   0.00000  Uiso   1.00
O437   O     0.71961   0.37011   0.22440   0.00000  Uiso   1.00
O438   O     0.69238   0.33473   0.30669   0.00000  Uiso   1.00
O439   O     0.71399   0.41149   0.30586   0.00000  Uiso   1.00
H440   H     0.67829   0.41365   0.31222   0.00000  Uiso   1.00
N441   N     0.94427   0.56692   0.29265   0.00000  Uiso   1.00
O442   O     0.90720   0.56409   0.33301   0.00000  Uiso   1.00
O443   O     0.96450   0.60294   0.27921   0.00000  Uiso   1.00
N444   N     0.79967   0.46775   0.08837   0.00000  Uiso   1.00
O445   O     0.80343   0.43010   0.07283   0.00000  Uiso   1.00
O446   O     0.75847   0.47940   0.11850   0.00000  Uiso   1.00
S447   S     0.70436   0.45461   0.41518   0.00000  Uiso   1.00
O448   O     0.68745   0.47595   0.37480   0.00000  Uiso   1.00
O449   O     0.73020   0.41626   0.39451   0.00000  Uiso   1.00
O450   O     0.98868   0.44172   0.46406   0.00000  Uiso   1.00
H451   H     0.96619   0.42674   0.44838   0.00000  Uiso   1.00
S452   S     0.91695   0.62234   0.16208   0.00000  Uiso   1.00
O453   O     0.95651   0.60359   0.18021   0.00000  Uiso   1.00
O454   O     0.89026   0.58944   0.14185   0.00000  Uiso   1.00
O455   O     0.94230   0.65556   0.11405   0.00000  Uiso   1.00
H456   H     0.96400   0.63894   0.08731   0.00000  Uiso   1.00
O457   O     0.12708   0.89345   0.25000   0.00000  Uiso   1.00
O458   O     0.20627   0.89346   0.25000   0.00000  Uiso   1.00
C459   C     0.16761   0.91249   0.24861   0.00000  Uiso   1.00
O460   O     0.10775   0.83332   0.32549   0.00000  Uiso   1.00
O461   O     0.18694   0.83333   0.32549   0.00000  Uiso   1.00
C462   C     0.14116   0.83030   0.34990   0.00000  Uiso   1.00
Cu463  Cu    0.11978   0.83333   0.25000   0.00000  Uiso   1.00
Cu464  Cu    0.21355   0.83334   0.25000   0.00000  Uiso   1.00
O465   O     0.12706   0.77321   0.24999   0.00000  Uiso   1.00
O466   O     0.20625   0.77322   0.25000   0.00000  Uiso   1.00
O467   O     0.14640   0.83334   0.17451   0.00000  Uiso   1.00
O468   O     0.22559   0.83335   0.17451   0.00000  Uiso   1.00
C469   C     0.16602   0.75390   0.24885   0.00000  Uiso   1.00
C470   C     0.19262   0.83320   0.15032   0.00000  Uiso   1.00
C471   C     0.26661   0.85938   0.01507   0.00000  Uiso   1.00
H472   H     0.28551   0.85387   0.41593   0.00000  Uiso   1.00
H473   H     0.30344   0.86887   0.49412   0.00000  Uiso   1.00
C474   C     0.20765   0.83744   0.09424   0.00000  Uiso   1.00
C475   C     0.07902   0.81946   0.43614   0.00000  Uiso   1.00
C476   C     0.06473   0.82980   0.48731   0.00000  Uiso   1.00
C477   C     0.09870   0.84199   0.01172   0.00000  Uiso   1.00
C478   C     0.14855   0.83864   0.48761   0.00000  Uiso   1.00
C479   C     0.16422   0.83349   0.43402   0.00000  Uiso   1.00
C480   C     0.18347   0.84140   0.01552   0.00000  Uiso   1.00
C481   C     0.23216   0.85178   0.48906   0.00000  Uiso   1.00
C482   C     0.24746   0.84912   0.43652   0.00000  Uiso   1.00
C483   C     0.21537   0.83460   0.41082   0.00000  Uiso   1.00
C484   C     0.17253   0.83005   0.06752   0.00000  Uiso   1.00
C485   C     0.25532   0.85196   0.06723   0.00000  Uiso   1.00
C486   C     0.12821   0.82695   0.40686   0.00000  Uiso   1.00
H487   H     0.08560   0.85289   0.05009   0.00000  Uiso   1.00
H488   H     0.02720   0.82628   0.00950   0.00000  Uiso   1.00
H489   H     0.23326   0.82340   0.37373   0.00000  Uiso   1.00
C490   C     0.20799   0.97978   0.21372   0.00000  Uiso   1.00
C491   C     0.20786   0.68937   0.21671   0.00000  Uiso   1.00
C492   C     0.16488   0.70904   0.24446   0.00000  Uiso   1.00
C493   C     0.12200   0.68478   0.26742   0.00000  Uiso   1.00
C494   C     0.12677   0.97636   0.27280   0.00000  Uiso   1.00
H495   H     0.09554   0.95783   0.29391   0.00000  Uiso   1.00
C496   C     0.16891   0.95699   0.24629   0.00000  Uiso   1.00
C497   C     0.30411   0.86457   0.27246   0.00000  Uiso   1.00
C498   C     0.02001   0.86377   0.27290   0.00000  Uiso   1.00
H499   H     0.03479   0.88800   0.29137   0.00000  Uiso   1.00
N500   N     0.04931   0.83332   0.24998   0.00000  Uiso   1.00
C501   C     0.03026   0.80337   0.22613   0.00000  Uiso   1.00
H502   H     0.05337   0.77946   0.20668   0.00000  Uiso   1.00
C503   C     0.31411   0.80329   0.22630   0.00000  Uiso   1.00
H504   H     0.30034   0.77967   0.20651   0.00000  Uiso   1.00
N505   N     0.28402   0.83335   0.25000   0.00000  Uiso   1.00
N506   N     0.29400   0.85624   0.09081   0.00000  Uiso   1.00
O507   O     0.32183   0.88918   0.08189   0.00000  Uiso   1.00
O508   O     0.30991   0.82366   0.10778   0.00000  Uiso   1.00
N509   N     0.24999   0.71285   0.18833   0.00000  Uiso   1.00
O510   O     0.24642   0.73923   0.15381   0.00000  Uiso   1.00
O511   O     0.29287   0.70414   0.19238   0.00000  Uiso   1.00
S512   S     0.06080   0.70018   0.27624   0.00000  Uiso   1.00
O513   O     0.05294   0.70344   0.22440   0.00000  Uiso   1.00
O514   O     0.02571   0.66806   0.30669   0.00000  Uiso   1.00
O515   O     0.04732   0.74483   0.30586   0.00000  Uiso   1.00
H516   H     0.01162   0.74699   0.31222   0.00000  Uiso   1.00
N517   N     0.27760   0.90025   0.29265   0.00000  Uiso   1.00
O518   O     0.24053   0.89743   0.33301   0.00000  Uiso   1.00
O519   O     0.29783   0.93627   0.27921   0.00000  Uiso   1.00
N520   N     0.13301   0.80109   0.08837   0.00000  Uiso   1.00
O521   O     0.13677   0.76343   0.07283   0.00000  Uiso   1.00
O522   O     0.09181   0.81273   0.11850   0.00000  Uiso   1.00
S523   S     0.03770   0.78795   0.41518   0.00000  Uiso   1.00
O524   O     0.02079   0.80928   0.37480   0.00000  Uiso   1.00
O525   O     0.06354   0.74959   0.39451   0.00000  Uiso   1.00
O526   O     0.32202   0.77505   0.46406   0.00000  Uiso   1.00
H527   H     0.29953   0.76007   0.44838   0.00000  Uiso   1.00
S528   S     0.25028   0.95568   0.16208   0.00000  Uiso   1.00
O529   O     0.28984   0.93692   0.18021   0.00000  Uiso   1.00
O530   O     0.22360   0.92277   0.14185   0.00000  Uiso   1.00
O531   O     0.27563   0.98889   0.11405   0.00000  Uiso   1.00
H532   H     0.29733   0.97227   0.08731   0.00000  Uiso   1.00
O533   O     0.46042   0.89345   0.25000   0.00000  Uiso   1.00
O534   O     0.53961   0.89346   0.25000   0.00000  Uiso   1.00
C535   C     0.50094   0.91249   0.24861   0.00000  Uiso   1.00
O536   O     0.44108   0.83332   0.32549   0.00000  Uiso   1.00
O537   O     0.52027   0.83333   0.32549   0.00000  Uiso   1.00
C538   C     0.47450   0.83030   0.34990   0.00000  Uiso   1.00
Cu539  Cu    0.45311   0.83333   0.25000   0.00000  Uiso   1.00
Cu540  Cu    0.54689   0.83334   0.25000   0.00000  Uiso   1.00
O541   O     0.46039   0.77321   0.24999   0.00000  Uiso   1.00
O542   O     0.53958   0.77322   0.25000   0.00000  Uiso   1.00
O543   O     0.47973   0.83334   0.17451   0.00000  Uiso   1.00
O544   O     0.55892   0.83335   0.17451   0.00000  Uiso   1.00
C545   C     0.49936   0.75390   0.24885   0.00000  Uiso   1.00
C546   C     0.52595   0.83320   0.15032   0.00000  Uiso   1.00
C547   C     0.59995   0.85938   0.01507   0.00000  Uiso   1.00
H548   H     0.61884   0.85387   0.41593   0.00000  Uiso   1.00
H549   H     0.63678   0.86887   0.49412   0.00000  Uiso   1.00
C550   C     0.54098   0.83744   0.09424   0.00000  Uiso   1.00
C551   C     0.41236   0.81946   0.43614   0.00000  Uiso   1.00
C552   C     0.39806   0.82980   0.48731   0.00000  Uiso   1.00
C553   C     0.43204   0.84199   0.01172   0.00000  Uiso   1.00
C554   C     0.48189   0.83864   0.48761   0.00000  Uiso   1.00
C555   C     0.49755   0.83349   0.43402   0.00000  Uiso   1.00
C556   C     0.51680   0.84140   0.01552   0.00000  Uiso   1.00
C557   C     0.56550   0.85178   0.48906   0.00000  Uiso   1.00
C558   C     0.58079   0.84912   0.43652   0.00000  Uiso   1.00
C559   C     0.54870   0.83460   0.41082   0.00000  Uiso   1.00
C560   C     0.50587   0.83005   0.06752   0.00000  Uiso   1.00
C561   C     0.58865   0.85196   0.06723   0.00000  Uiso   1.00
C562   C     0.46154   0.82695   0.40686   0.00000  Uiso   1.00
H563   H     0.41893   0.85289   0.05009   0.00000  Uiso   1.00
H564   H     0.36053   0.82628   0.00950   0.00000  Uiso   1.00
H565   H     0.56660   0.82340   0.37373   0.00000  Uiso   1.00
C566   C     0.54132   0.97978   0.21372   0.00000  Uiso   1.00
C567   C     0.54120   0.68937   0.21671   0.00000  Uiso   1.00
C568   C     0.49821   0.70904   0.24446   0.00000  Uiso   1.00
C569   C     0.45533   0.68478   0.26742   0.00000  Uiso   1.00
C570   C     0.46010   0.97636   0.27280   0.00000  Uiso   1.00
H571   H     0.42887   0.95783   0.29391   0.00000  Uiso   1.00
C572   C     0.50224   0.95699   0.24629   0.00000  Uiso   1.00
C573   C     0.63744   0.86457   0.27246   0.00000  Uiso   1.00
C574   C     0.35334   0.86377   0.27290   0.00000  Uiso   1.00
H575   H     0.36813   0.88800   0.29137   0.00000  Uiso   1.00
N576   N     0.38265   0.83332   0.24998   0.00000  Uiso   1.00
C577   C     0.36359   0.80337   0.22613   0.00000  Uiso   1.00
H578   H     0.38670   0.77946   0.20668   0.00000  Uiso   1.00
C579   C     0.64744   0.80329   0.22630   0.00000  Uiso   1.00
H580   H     0.63368   0.77967   0.20651   0.00000  Uiso   1.00
N581   N     0.61735   0.83335   0.25000   0.00000  Uiso   1.00
N582   N     0.62734   0.85624   0.09081   0.00000  Uiso   1.00
O583   O     0.65516   0.88918   0.08189   0.00000  Uiso   1.00
O584   O     0.64325   0.82366   0.10778   0.00000  Uiso   1.00
N585   N     0.58332   0.71285   0.18833   0.00000  Uiso   1.00
O586   O     0.57975   0.73923   0.15381   0.00000  Uiso   1.00
O587   O     0.62620   0.70414   0.19238   0.00000  Uiso   1.00
S588   S     0.39413   0.70018   0.27624   0.00000  Uiso   1.00
O589   O     0.38628   0.70344   0.22440   0.00000  Uiso   1.00
O590   O     0.35905   0.66806   0.30669   0.00000  Uiso   1.00
O591   O     0.38066   0.74483   0.30586   0.00000  Uiso   1.00
H592   H     0.34495   0.74699   0.31222   0.00000  Uiso   1.00
N593   N     0.61093   0.90025   0.29265   0.00000  Uiso   1.00
O594   O     0.57387   0.89743   0.33301   0.00000  Uiso   1.00
O595   O     0.63116   0.93627   0.27921   0.00000  Uiso   1.00
N596   N     0.46634   0.80109   0.08837   0.00000  Uiso   1.00
O597   O     0.47010   0.76343   0.07283   0.00000  Uiso   1.00
O598   O     0.42514   0.81273   0.11850   0.00000  Uiso   1.00
S599   S     0.37103   0.78795   0.41518   0.00000  Uiso   1.00
O600   O     0.35412   0.80928   0.37480   0.00000  Uiso   1.00
O601   O     0.39687   0.74959   0.39451   0.00000  Uiso   1.00
O602   O     0.65535   0.77505   0.46406   0.00000  Uiso   1.00
H603   H     0.63286   0.76007   0.44838   0.00000  Uiso   1.00
S604   S     0.58362   0.95568   0.16208   0.00000  Uiso   1.00
O605   O     0.62318   0.93692   0.18021   0.00000  Uiso   1.00
O606   O     0.55693   0.92277   0.14185   0.00000  Uiso   1.00
O607   O     0.60896   0.98889   0.11405   0.00000  Uiso   1.00
H608   H     0.63066   0.97227   0.08731   0.00000  Uiso   1.00
O609   O     0.79375   0.89345   0.25000   0.00000  Uiso   1.00
O610   O     0.87294   0.89346   0.25000   0.00000  Uiso   1.00
C611   C     0.83427   0.91249   0.24861   0.00000  Uiso   1.00
O612   O     0.77441   0.83332   0.32549   0.00000  Uiso   1.00
O613   O     0.85360   0.83333   0.32549   0.00000  Uiso   1.00
C614   C     0.80783   0.83030   0.34990   0.00000  Uiso   1.00
Cu615  Cu    0.78645   0.83333   0.25000   0.00000  Uiso   1.00
Cu616  Cu    0.88022   0.83334   0.25000   0.00000  Uiso   1.00
O617   O     0.79373   0.77321   0.24999   0.00000  Uiso   1.00
O618   O     0.87292   0.77322   0.25000   0.00000  Uiso   1.00
O619   O     0.81306   0.83334   0.17451   0.00000  Uiso   1.00
O620   O     0.89225   0.83335   0.17451   0.00000  Uiso   1.00
C621   C     0.83269   0.75390   0.24885   0.00000  Uiso   1.00
C622   C     0.85929   0.83320   0.15032   0.00000  Uiso   1.00
C623   C     0.93328   0.85938   0.01507   0.00000  Uiso   1.00
H624   H     0.95218   0.85387   0.41593   0.00000  Uiso   1.00
H625   H     0.97011   0.86887   0.49412   0.00000  Uiso   1.00
C626   C     0.87431   0.83744   0.09424   0.00000  Uiso   1.00
C627   C     0.74569   0.81946   0.43614   0.00000  Uiso   1.00
C628   C     0.73139   0.82980   0.48731   0.00000  Uiso   1.00
C629   C     0.76537   0.84199   0.01172   0.00000  Uiso   1.00
C630   C     0.81522   0.83864   0.48761   0.00000  Uiso   1.00
C631   C     0.83088   0.83349   0.43402   0.00000  Uiso   1.00
C632   C     0.85014   0.84140   0.01552   0.00000  Uiso   1.00
C633   C     0.89883   0.85178   0.48906   0.00000  Uiso   1.00
C634   C     0.91412   0.84912   0.43652   0.00000  Uiso   1.00
C635   C     0.88204   0.83460   0.41082   0.00000  Uiso   1.00
C636   C     0.83920   0.83005   0.06752   0.00000  Uiso   1.00
C637   C     0.92199   0.85196   0.06723   0.00000  Uiso   1.00
C638   C     0.79488   0.82695   0.40686   0.00000  Uiso   1.00
H639   H     0.75227   0.85289   0.05009   0.00000  Uiso   1.00
H640   H     0.69387   0.82628   0.00950   0.00000  Uiso   1.00
H641   H     0.89993   0.82340   0.37373   0.00000  Uiso   1.00
C642   C     0.87466   0.97978   0.21372   0.00000  Uiso   1.00
C643   C     0.87453   0.68937   0.21671   0.00000  Uiso   1.00
C644   C     0.83155   0.70904   0.24446   0.00000  Uiso   1.00
C645   C     0.78866   0.68478   0.26742   0.00000  Uiso   1.00
C646   C     0.79344   0.97636   0.27280   0.00000  Uiso   1.00
H647   H     0.76221   0.95783   0.29391   0.00000  Uiso   1.00
C648   C     0.83558   0.95699   0.24629   0.00000  Uiso   1.00
C649   C     0.97078   0.86457   0.27246   0.00000  Uiso   1.00
C650   C     0.68667   0.86377   0.27290   0.00000  Uiso   1.00
H651   H     0.70146   0.88800   0.29137   0.00000  Uiso   1.00
N652   N     0.71598   0.83332   0.24998   0.00000  Uiso   1.00
C653   C     0.69693   0.80337   0.22613   0.00000  Uiso   1.00
H654   H     0.72004   0.77946   0.20668   0.00000  Uiso   1.00
C655   C     0.98078   0.80329   0.22630   0.00000  Uiso   1.00
H656   H     0.96701   0.77967   0.20651   0.00000  Uiso   1.00
N657   N     0.95069   0.83335   0.25000   0.00000  Uiso   1.00
N658   N     0.96067   0.85624   0.09081   0.00000  Uiso   1.00
O659   O     0.98849   0.88918   0.08189   0.00000  Uiso   1.00
O660   O     0.97658   0.82366   0.10778   0.00000  Uiso   1.00
N661   N     0.91665   0.71285   0.18833   0.00000  Uiso   1.00
O662   O     0.91308   0.73923   0.15381   0.00000  Uiso   1.00
O663   O     0.95954   0.70414   0.19238   0.00000  Uiso   1.00
S664   S     0.72746   0.70018   0.27624   0.00000  Uiso   1.00
O665   O     0.71961   0.70344   0.22440   0.00000  Uiso   1.00
O666   O     0.69238   0.66806   0.30669   0.00000  Uiso   1.00
O667   O     0.71399   0.74483   0.30586   0.00000  Uiso   1.00
H668   H     0.67829   0.74699   0.31222   0.00000  Uiso   1.00
N669   N     0.94427   0.90025   0.29265   0.00000  Uiso   1.00
O670   O     0.90720   0.89743   0.33301   0.00000  Uiso   1.00
O671   O     0.96450   0.93627   0.27921   0.00000  Uiso   1.00
N672   N     0.79967   0.80109   0.08837   0.00000  Uiso   1.00
O673   O     0.80343   0.76343   0.07283   0.00000  Uiso   1.00
O674   O     0.75847   0.81273   0.11850   0.00000  Uiso   1.00
S675   S     0.70436   0.78795   0.41518   0.00000  Uiso   1.00
O676   O     0.68745   0.80928   0.37480   0.00000  Uiso   1.00
O677   O     0.73020   0.74959   0.39451   0.00000  Uiso   1.00
O678   O     0.98868   0.77505   0.46406   0.00000  Uiso   1.00
H679   H     0.96619   0.76007   0.44838   0.00000  Uiso   1.00
S680   S     0.91695   0.95568   0.16208   0.00000  Uiso   1.00
O681   O     0.95651   0.93692   0.18021   0.00000  Uiso   1.00
O682   O     0.89026   0.92277   0.14185   0.00000  Uiso   1.00
O683   O     0.94230   0.98889   0.11405   0.00000  Uiso   1.00
H684   H     0.96400   0.97227   0.08731   0.00000  Uiso   1.00
O685   O     0.12708   0.22678   0.75000   0.00000  Uiso   1.00
O686   O     0.20627   0.22679   0.75000   0.00000  Uiso   1.00
C687   C     0.16761   0.24582   0.74861   0.00000  Uiso   1.00
O688   O     0.10775   0.16665   0.82549   0.00000  Uiso   1.00
O689   O     0.18694   0.16666   0.82549   0.00000  Uiso   1.00
C690   C     0.14116   0.16363   0.84990   0.00000  Uiso   1.00
Cu691  Cu    0.11978   0.16666   0.75000   0.00000  Uiso   1.00
Cu692  Cu    0.21355   0.16667   0.75000   0.00000  Uiso   1.00
O693   O     0.12706   0.10654   0.74999   0.00000  Uiso   1.00
O694   O     0.20625   0.10655   0.75000   0.00000  Uiso   1.00
O695   O     0.14640   0.16667   0.67451   0.00000  Uiso   1.00
O696   O     0.22559   0.16668   0.67451   0.00000  Uiso   1.00
C697   C     0.16602   0.08724   0.74885   0.00000  Uiso   1.00
C698   C     0.19262   0.16653   0.65032   0.00000  Uiso   1.00
C699   C     0.26661   0.19271   0.51507   0.00000  Uiso   1.00
H700   H     0.28551   0.18721   0.91593   0.00000  Uiso   1.00
H701   H     0.30344   0.20220   0.99412   0.00000  Uiso   1.00
C702   C     0.20765   0.17077   0.59424   0.00000  Uiso   1.00
C703   C     0.07902   0.15279   0.93614   0.00000  Uiso   1.00
C704   C     0.06473   0.16313   0.98731   0.00000  Uiso   1.00
C705   C     0.09870   0.17532   0.51172   0.00000  Uiso   1.00
C706   C     0.14855   0.17197   0.98761   0.00000  Uiso   1.00
C707   C     0.16422   0.16683   0.93402   0.00000  Uiso   1.00
C708   C     0.18347   0.17474   0.51552   0.00000  Uiso   1.00
C709   C     0.23216   0.18511   0.98906   0.00000  Uiso   1.00
C710   C     0.24746   0.18246   0.93652   0.00000  Uiso   1.00
C711   C     0.21537   0.16794   0.91082   0.00000  Uiso   1.00
C712   C     0.17253   0.16338   0.56752   0.00000  Uiso   1.00
C713   C     0.25532   0.18529   0.56723   0.00000  Uiso   1.00
C714   C     0.12821   0.16028   0.90686   0.00000  Uiso   1.00
H715   H     0.08560   0.18623   0.55009   0.00000  Uiso   1.00
H716   H     0.02720   0.15961   0.50950   0.00000  Uiso   1.00
H717   H     0.23326   0.15673   0.87373   0.00000  Uiso   1.00
C718   C     0.20799   0.31311   0.71372   0.00000  Uiso   1.00
C719   C     0.20786   0.02270   0.71671   0.00000  Uiso   1.00
C720   C     0.16488   0.04237   0.74446   0.00000  Uiso   1.00
C721   C     0.12200   0.01811   0.76742   0.00000  Uiso   1.00
C722   C     0.12677   0.30970   0.77280   0.00000  Uiso   1.00
H723   H     0.09554   0.29116   0.79391   0.00000  Uiso   1.00
C724   C     0.16891   0.29032   0.74629   0.00000  Uiso   1.00
C725   C     0.30411   0.19790   0.77246   0.00000  Uiso   1.00
C726   C     0.02001   0.19710   0.77290   0.00000  Uiso   1.00
H727   H     0.03479   0.22133   0.79137   0.00000  Uiso   1.00
N728   N     0.04931   0.16666   0.74998   0.00000  Uiso   1.00
C729   C     0.03026   0.13670   0.72613   0.00000  Uiso   1.00
H730   H     0.05337   0.11279   0.70668   0.00000  Uiso   1.00
C731   C     0.31411   0.13662   0.72630   0.00000  Uiso   1.00
H732   H     0.30034   0.11300   0.70651   0.00000  Uiso   1.00
N733   N     0.28402   0.16669   0.75000   0.00000  Uiso   1.00
N734   N     0.29400   0.18958   0.59081   0.00000  Uiso   1.00
O735   O     0.32183   0.22251   0.58189   0.00000  Uiso   1.00
O736   O     0.30991   0.15700   0.60778   0.00000  Uiso   1.00
N737   N     0.24999   0.04618   0.68833   0.00000  Uiso   1.00
O738   O     0.24642   0.07256   0.65381   0.00000  Uiso   1.00
O739   O     0.29287   0.03747   0.69238   0.00000  Uiso   1.00
S740   S     0.06080   0.03352   0.77624   0.00000  Uiso   1.00
O741   O     0.05294   0.03678   0.72440   0.00000  Uiso   1.00
O742   O     0.02571   0.00139   0.80669   0.00000  Uiso   1.00
O743   O     0.04732   0.07816   0.80586   0.00000  Uiso   1.00
H744   H     0.01162   0.08032   0.81222   0.00000  Uiso   1.00
N745   N     0.27760   0.23359   0.79265   0.00000  Uiso   1.00
O746   O     0.24053   0.23076   0.83301   0.00000  Uiso   1.00
O747   O     0.29783   0.26961   0.77921   0.00000  Uiso   1.00
N748   N     0.13301   0.13442   0.58837   0.00000  Uiso   1.00
O749   O     0.13677   0.09677   0.57283   0.00000  Uiso   1.00
O750   O     0.09181   0.14606   0.61850   0.00000  Uiso   1.00
S751   S     0.03770   0.12128   0.91518   0.00000  Uiso   1.00
O752   O     0.02079   0.14262   0.87480   0.00000  Uiso   1.00
O753   O     0.06354   0.08293   0.89451   0.00000  Uiso   1.00
O754   O     0.32202   0.10838   0.96406   0.00000  Uiso   1.00
H755   H     0.29953   0.09341   0.94838   0.00000  Uiso   1.00
S756   S     0.25028   0.28901   0.66208   0.00000  Uiso   1.00
O757   O     0.28984   0.27026   0.68021   0.00000  Uiso   1.00
O758   O     0.22360   0.25611   0.64185   0.00000  Uiso   1.00
O759   O     0.27563   0.32223   0.61405   0.00000  Uiso   1.00
H760   H     0.29733   0.30561   0.58731   0.00000  Uiso   1.00
O761   O     0.46042   0.22678   0.75000   0.00000  Uiso   1.00
O762   O     0.53961   0.22679   0.75000   0.00000  Uiso   1.00
C763   C     0.50094   0.24582   0.74861   0.00000  Uiso   1.00
O764   O     0.44108   0.16665   0.82549   0.00000  Uiso   1.00
O765   O     0.52027   0.16666   0.82549   0.00000  Uiso   1.00
C766   C     0.47450   0.16363   0.84990   0.00000  Uiso   1.00
Cu767  Cu    0.45311   0.16666   0.75000   0.00000  Uiso   1.00
Cu768  Cu    0.54689   0.16667   0.75000   0.00000  Uiso   1.00
O769   O     0.46039   0.10654   0.74999   0.00000  Uiso   1.00
O770   O     0.53958   0.10655   0.75000   0.00000  Uiso   1.00
O771   O     0.47973   0.16667   0.67451   0.00000  Uiso   1.00
O772   O     0.55892   0.16668   0.67451   0.00000  Uiso   1.00
C773   C     0.49936   0.08724   0.74885   0.00000  Uiso   1.00
C774   C     0.52595   0.16653   0.65032   0.00000  Uiso   1.00
C775   C     0.59995   0.19271   0.51507   0.00000  Uiso   1.00
H776   H     0.61884   0.18721   0.91593   0.00000  Uiso   1.00
H777   H     0.63678   0.20220   0.99412   0.00000  Uiso   1.00
C778   C     0.54098   0.17077   0.59424   0.00000  Uiso   1.00
C779   C     0.41236   0.15279   0.93614   0.00000  Uiso   1.00
C780   C     0.39806   0.16313   0.98731   0.00000  Uiso   1.00
C781   C     0.43204   0.17532   0.51172   0.00000  Uiso   1.00
C782   C     0.48189   0.17197   0.98761   0.00000  Uiso   1.00
C783   C     0.49755   0.16683   0.93402   0.00000  Uiso   1.00
C784   C     0.51680   0.17474   0.51552   0.00000  Uiso   1.00
C785   C     0.56550   0.18511   0.98906   0.00000  Uiso   1.00
C786   C     0.58079   0.18246   0.93652   0.00000  Uiso   1.00
C787   C     0.54870   0.16794   0.91082   0.00000  Uiso   1.00
C788   C     0.50587   0.16338   0.56752   0.00000  Uiso   1.00
C789   C     0.58865   0.18529   0.56723   0.00000  Uiso   1.00
C790   C     0.46154   0.16028   0.90686   0.00000  Uiso   1.00
H791   H     0.41893   0.18623   0.55009   0.00000  Uiso   1.00
H792   H     0.36053   0.15961   0.50950   0.00000  Uiso   1.00
H793   H     0.56660   0.15673   0.87373   0.00000  Uiso   1.00
C794   C     0.54132   0.31311   0.71372   0.00000  Uiso   1.00
C795   C     0.54120   0.02270   0.71671   0.00000  Uiso   1.00
C796   C     0.49821   0.04237   0.74446   0.00000  Uiso   1.00
C797   C     0.45533   0.01811   0.76742   0.00000  Uiso   1.00
C798   C     0.46010   0.30970   0.77280   0.00000  Uiso   1.00
H799   H     0.42887   0.29116   0.79391   0.00000  Uiso   1.00
C800   C     0.50224   0.29032   0.74629   0.00000  Uiso   1.00
C801   C     0.63744   0.19790   0.77246   0.00000  Uiso   1.00
C802   C     0.35334   0.19710   0.77290   0.00000  Uiso   1.00
H803   H     0.36813   0.22133   0.79137   0.00000  Uiso   1.00
N804   N     0.38265   0.16666   0.74998   0.00000  Uiso   1.00
C805   C     0.36359   0.13670   0.72613   0.00000  Uiso   1.00
H806   H     0.38670   0.11279   0.70668   0.00000  Uiso   1.00
C807   C     0.64744   0.13662   0.72630   0.00000  Uiso   1.00
H808   H     0.63368   0.11300   0.70651   0.00000  Uiso   1.00
N809   N     0.61735   0.16669   0.75000   0.00000  Uiso   1.00
N810   N     0.62734   0.18958   0.59081   0.00000  Uiso   1.00
O811   O     0.65516   0.22251   0.58189   0.00000  Uiso   1.00
O812   O     0.64325   0.15700   0.60778   0.00000  Uiso   1.00
N813   N     0.58332   0.04618   0.68833   0.00000  Uiso   1.00
O814   O     0.57975   0.07256   0.65381   0.00000  Uiso   1.00
O815   O     0.62620   0.03747   0.69238   0.00000  Uiso   1.00
S816   S     0.39413   0.03352   0.77624   0.00000  Uiso   1.00
O817   O     0.38628   0.03678   0.72440   0.00000  Uiso   1.00
O818   O     0.35905   0.00139   0.80669   0.00000  Uiso   1.00
O819   O     0.38066   0.07816   0.80586   0.00000  Uiso   1.00
H820   H     0.34495   0.08032   0.81222   0.00000  Uiso   1.00
N821   N     0.61093   0.23359   0.79265   0.00000  Uiso   1.00
O822   O     0.57387   0.23076   0.83301   0.00000  Uiso   1.00
O823   O     0.63116   0.26961   0.77921   0.00000  Uiso   1.00
N824   N     0.46634   0.13442   0.58837   0.00000  Uiso   1.00
O825   O     0.47010   0.09677   0.57283   0.00000  Uiso   1.00
O826   O     0.42514   0.14606   0.61850   0.00000  Uiso   1.00
S827   S     0.37103   0.12128   0.91518   0.00000  Uiso   1.00
O828   O     0.35412   0.14262   0.87480   0.00000  Uiso   1.00
O829   O     0.39687   0.08293   0.89451   0.00000  Uiso   1.00
O830   O     0.65535   0.10838   0.96406   0.00000  Uiso   1.00
H831   H     0.63286   0.09341   0.94838   0.00000  Uiso   1.00
S832   S     0.58362   0.28901   0.66208   0.00000  Uiso   1.00
O833   O     0.62318   0.27026   0.68021   0.00000  Uiso   1.00
O834   O     0.55693   0.25611   0.64185   0.00000  Uiso   1.00
O835   O     0.60896   0.32223   0.61405   0.00000  Uiso   1.00
H836   H     0.63066   0.30561   0.58731   0.00000  Uiso   1.00
O837   O     0.79375   0.22678   0.75000   0.00000  Uiso   1.00
O838   O     0.87294   0.22679   0.75000   0.00000  Uiso   1.00
C839   C     0.83427   0.24582   0.74861   0.00000  Uiso   1.00
O840   O     0.77441   0.16665   0.82549   0.00000  Uiso   1.00
O841   O     0.85360   0.16666   0.82549   0.00000  Uiso   1.00
C842   C     0.80783   0.16363   0.84990   0.00000  Uiso   1.00
Cu843  Cu    0.78645   0.16666   0.75000   0.00000  Uiso   1.00
Cu844  Cu    0.88022   0.16667   0.75000   0.00000  Uiso   1.00
O845   O     0.79373   0.10654   0.74999   0.00000  Uiso   1.00
O846   O     0.87292   0.10655   0.75000   0.00000  Uiso   1.00
O847   O     0.81306   0.16667   0.67451   0.00000  Uiso   1.00
O848   O     0.89225   0.16668   0.67451   0.00000  Uiso   1.00
C849   C     0.83269   0.08724   0.74885   0.00000  Uiso   1.00
C850   C     0.85929   0.16653   0.65032   0.00000  Uiso   1.00
C851   C     0.93328   0.19271   0.51507   0.00000  Uiso   1.00
H852   H     0.95218   0.18721   0.91593   0.00000  Uiso   1.00
H853   H     0.97011   0.20220   0.99412   0.00000  Uiso   1.00
C854   C     0.87431   0.17077   0.59424   0.00000  Uiso   1.00
C855   C     0.74569   0.15279   0.93614   0.00000  Uiso   1.00
C856   C     0.73139   0.16313   0.98731   0.00000  Uiso   1.00
C857   C     0.76537   0.17532   0.51172   0.00000  Uiso   1.00
C858   C     0.81522   0.17197   0.98761   0.00000  Uiso   1.00
C859   C     0.83088   0.16683   0.93402   0.00000  Uiso   1.00
C860   C     0.85014   0.17474   0.51552   0.00000  Uiso   1.00
C861   C     0.89883   0.18511   0.98906   0.00000  Uiso   1.00
C862   C     0.91412   0.18246   0.93652   0.00000  Uiso   1.00
C863   C     0.88204   0.16794   0.91082   0.00000  Uiso   1.00
C864   C     0.83920   0.16338   0.56752   0.00000  Uiso   1.00
C865   C     0.92199   0.18529   0.56723   0.00000  Uiso   1.00
C866   C     0.79488   0.16028   0.90686   0.00000  Uiso   1.00
H867   H     0.75227   0.18623   0.55009   0.00000  Uiso   1.00
H868   H     0.69387   0.15961   0.50950   0.00000  Uiso   1.00
H869   H     0.89993   0.15673   0.87373   0.00000  Uiso   1.00
C870   C     0.87466   0.31311   0.71372   0.00000  Uiso   1.00
C871   C     0.87453   0.02270   0.71671   0.00000  Uiso   1.00
C872   C     0.83155   0.04237   0.74446   0.00000  Uiso   1.00
C873   C     0.78866   0.01811   0.76742   0.00000  Uiso   1.00
C874   C     0.79344   0.30970   0.77280   0.00000  Uiso   1.00
H875   H     0.76221   0.29116   0.79391   0.00000  Uiso   1.00
C876   C     0.83558   0.29032   0.74629   0.00000  Uiso   1.00
C877   C     0.97078   0.19790   0.77246   0.00000  Uiso   1.00
C878   C     0.68667   0.19710   0.77290   0.00000  Uiso   1.00
H879   H     0.70146   0.22133   0.79137   0.00000  Uiso   1.00
N880   N     0.71598   0.16666   0.74998   0.00000  Uiso   1.00
C881   C     0.69693   0.13670   0.72613   0.00000  Uiso   1.00
H882   H     0.72004   0.11279   0.70668   0.00000  Uiso   1.00
C883   C     0.98078   0.13662   0.72630   0.00000  Uiso   1.00
H884   H     0.96701   0.11300   0.70651   0.00000  Uiso   1.00
N885   N     0.95069   0.16669   0.75000   0.00000  Uiso   1.00
N886   N     0.96067   0.18958   0.59081   0.00000  Uiso   1.00
O887   O     0.98849   0.22251   0.58189   0.00000  Uiso   1.00
O888   O     0.97658   0.15700   0.60778   0.00000  Uiso   1.00
N889   N     0.91665   0.04618   0.68833   0.00000  Uiso   1.00
O890   O     0.91308   0.07256   0.65381   0.00000  Uiso   1.00
O891   O     0.95954   0.03747   0.69238   0.00000  Uiso   1.00
S892   S     0.72746   0.03352   0.77624   0.00000  Uiso   1.00
O893   O     0.71961   0.03678   0.72440   0.00000  Uiso   1.00
O894   O     0.69238   0.00139   0.80669   0.00000  Uiso   1.00
O895   O     0.71399   0.07816   0.80586   0.00000  Uiso   1.00
H896   H     0.67829   0.08032   0.81222   0.00000  Uiso   1.00
N897   N     0.94427   0.23359   0.79265   0.00000  Uiso   1.00
O898   O     0.90720   0.23076   0.83301   0.00000  Uiso   1.00
O899   O     0.96450   0.26961   0.77921   0.00000  Uiso   1.00
N900   N     0.79967   0.13442   0.58837   0.00000  Uiso   1.00
O901   O     0.80343   0.09677   0.57283   0.00000  Uiso   1.00
O902   O     0.75847   0.14606   0.61850   0.00000  Uiso   1.00
S903   S     0.70436   0.12128   0.91518   0.00000  Uiso   1.00
O904   O     0.68745   0.14262   0.87480   0.00000  Uiso   1.00
O905   O     0.73020   0.08293   0.89451   0.00000  Uiso   1.00
O906   O     0.98868   0.10838   0.96406   0.00000  Uiso   1.00
H907   H     0.96619   0.09341   0.94838   0.00000  Uiso   1.00
S908   S     0.91695   0.28901   0.66208   0.00000  Uiso   1.00
O909   O     0.95651   0.27026   0.68021   0.00000  Uiso   1.00
O910   O     0.89026   0.25611   0.64185   0.00000  Uiso   1.00
O911   O     0.94230   0.32223   0.61405   0.00000  Uiso   1.00
H912   H     0.96400   0.30561   0.58731   0.00000  Uiso   1.00
O913   O     0.12708   0.56011   0.75000   0.00000  Uiso   1.00
O914   O     0.20627   0.56012   0.75000   0.00000  Uiso   1.00
C915   C     0.16761   0.57916   0.74861   0.00000  Uiso   1.00
O916   O     0.10775   0.49998   0.82549   0.00000  Uiso   1.00
O917   O     0.18694   0.49999   0.82549   0.00000  Uiso   1.00
C918   C     0.14116   0.49696   0.84990   0.00000  Uiso   1.00
Cu919  Cu    0.11978   0.49999   0.75000   0.00000  Uiso   1.00
Cu920  Cu    0.21355   0.50001   0.75000   0.00000  Uiso   1.00
O921   O     0.12706   0.43988   0.74999   0.00000  Uiso   1.00
O922   O     0.20625   0.43989   0.75000   0.00000  Uiso   1.00
O923   O     0.14640   0.50001   0.67451   0.00000  Uiso   1.00
O924   O     0.22559   0.50002   0.67451   0.00000  Uiso   1.00
C925   C     0.16602   0.42057   0.74885   0.00000  Uiso   1.00
C926   C     0.19262   0.49986   0.65032   0.00000  Uiso   1.00
C927   C     0.26661   0.52604   0.51507   0.00000  Uiso   1.00
H928   H     0.28551   0.52054   0.91593   0.00000  Uiso   1.00
H929   H     0.30344   0.53554   0.99412   0.00000  Uiso   1.00
C930   C     0.20765   0.50411   0.59424   0.00000  Uiso   1.00
C931   C     0.07902   0.48612   0.93614   0.00000  Uiso   1.00
C932   C     0.06473   0.49646   0.98731   0.00000  Uiso   1.00
C933   C     0.09870   0.50866   0.51172   0.00000  Uiso   1.00
C934   C     0.14855   0.50531   0.98761   0.00000  Uiso   1.00
C935   C     0.16422   0.50016   0.93402   0.00000  Uiso   1.00
C936   C     0.18347   0.50807   0.51552   0.00000  Uiso   1.00
C937   C     0.23216   0.51844   0.98906   0.00000  Uiso   1.00
C938   C     0.24746   0.51579   0.93652   0.00000  Uiso   1.00
C939   C     0.21537   0.50127   0.91082   0.00000  Uiso   1.00
C940   C     0.17253   0.49671   0.56752   0.00000  Uiso   1.00
C941   C     0.25532   0.51862   0.56723   0.00000  Uiso   1.00
C942   C     0.12821   0.49361   0.90686   0.00000  Uiso   1.00
H943   H     0.08560   0.51956   0.55009   0.00000  Uiso   1.00
H944   H     0.02720   0.49294   0.50950   0.00000  Uiso   1.00
H945   H     0.23326   0.49006   0.87373   0.00000  Uiso   1.00
C946   C     0.20799   0.64645   0.71372   0.00000  Uiso   1.00
C947   C     0.20786   0.35604   0.71671   0.00000  Uiso   1.00
C948   C     0.16488   0.37570   0.74446   0.00000  Uiso   1.00
C949   C     0.12200   0.35145   0.76742   0.00000  Uiso   1.00
C950   C     0.12677   0.64303   0.77280   0.00000  Uiso   1.00
H951   H     0.09554   0.62450   0.79391   0.00000  Uiso   1.00
C952   C     0.16891   0.62366   0.74629   0.00000  Uiso   1.00
C953   C     0.30411   0.53124   0.77246   0.00000  Uiso   1.00
C954   C     0.02001   0.53043   0.77290   0.00000  Uiso   1.00
H955   H     0.03479   0.55466   0.79137   0.00000  Uiso   1.00
N956   N     0.04931   0.49999   0.74998   0.00000  Uiso   1.00
C957   C     0.03026   0.47003   0.72613   0.00000  Uiso   1.00
H958   H     0.05337   0.44613   0.70668   0.00000  Uiso   1.00
C959   C     0.31411   0.46996   0.72630   0.00000  Uiso   1.00
H960   H     0.30034   0.44634   0.70651   0.00000  Uiso   1.00
N961   N     0.28402   0.50002   0.75000   0.00000  Uiso   1.00
N962   N     0.29400   0.52291   0.59081   0.00000  Uiso   1.00
O963   O     0.32183   0.55585   0.58189   0.00000  Uiso   1.00
O964   O     0.30991   0.49033   0.60778   0.00000  Uiso   1.00
N965   N     0.24999   0.37952   0.68833   0.00000  Uiso   1.00
O966   O     0.24642   0.40589   0.65381   0.00000  Uiso   1.00
O967   O     0.29287   0.37080   0.69238   0.00000  Uiso   1.00
S968   S     0.06080   0.36685   0.77624   0.00000  Uiso   1.00
O969   O     0.05294   0.37011   0.72440   0.00000  Uiso   1.00
O970   O     0.02571   0.33473   0.80669   0.00000  Uiso   1.00
O971   O     0.04732   0.41149   0.80586   0.00000  Uiso   1.00
H972   H     0.01162   0.41365   0.81222   0.00000  Uiso   1.00
N973   N     0.27760   0.56692   0.79265   0.00000  Uiso   1.00
O974   O     0.24053   0.56409   0.83301   0.00000  Uiso   1.00
O975   O     0.29783   0.60294   0.77921   0.00000  Uiso   1.00
N976   N     0.13301   0.46775   0.58837   0.00000  Uiso   1.00
O977   O     0.13677   0.43010   0.57283   0.00000  Uiso   1.00
O978   O     0.09181   0.47940   0.61850   0.00000  Uiso   1.00
S979   S     0.03770   0.45461   0.91518   0.00000  Uiso   1.00
O980   O     0.02079   0.47595   0.87480   0.00000  Uiso   1.00
O981   O     0.06354   0.41626   0.89451   0.00000  Uiso   1.00
O982   O     0.32202   0.44172   0.96406   0.00000  Uiso   1.00
H983   H     0.29953   0.42674   0.94838   0.00000  Uiso   1.00
S984   S     0.25028   0.62234   0.66208   0.00000  Uiso   1.00
O985   O     0.28984   0.60359   0.68021   0.00000  Uiso   1.00
O986   O     0.22360   0.58944   0.64185   0.00000  Uiso   1.00
O987   O     0.27563   0.65556   0.61405   0.00000  Uiso   1.00
H988   H     0.29733   0.63894   0.58731   0.00000  Uiso   1.00
O989   O     0.46042   0.56011   0.75000   0.00000  Uiso   1.00
O990   O     0.53961   0.56012   0.75000   0.00000  Uiso   1.00
C991   C     0.50094   0.57916   0.74861   0.00000  Uiso   1.00
O992   O     0.44108   0.49998   0.82549   0.00000  Uiso   1.00
O993   O     0.52027   0.49999   0.82549   0.00000  Uiso   1.00
C994   C     0.47450   0.49696   0.84990   0.00000  Uiso   1.00
Cu995  Cu    0.45311   0.49999   0.75000   0.00000  Uiso   1.00
Cu996  Cu    0.54689   0.50001   0.75000   0.00000  Uiso   1.00
O997   O     0.46039   0.43988   0.74999   0.00000  Uiso   1.00
O998   O     0.53958   0.43989   0.75000   0.00000  Uiso   1.00
O999   O     0.47973   0.50001   0.67451   0.00000  Uiso   1.00
O1000  O     0.55892   0.50002   0.67451   0.00000  Uiso   1.00
C1001  C     0.49936   0.42057   0.74885   0.00000  Uiso   1.00
C1002  C     0.52595   0.49986   0.65032   0.00000  Uiso   1.00
C1003  C     0.59995   0.52604   0.51507   0.00000  Uiso   1.00
H1004  H     0.61884   0.52054   0.91593   0.00000  Uiso   1.00
H1005  H     0.63678   0.53554   0.99412   0.00000  Uiso   1.00
C1006  C     0.54098   0.50411   0.59424   0.00000  Uiso   1.00
C1007  C     0.41236   0.48612   0.93614   0.00000  Uiso   1.00
C1008  C     0.39806   0.49646   0.98731   0.00000  Uiso   1.00
C1009  C     0.43204   0.50866   0.51172   0.00000  Uiso   1.00
C1010  C     0.48189   0.50531   0.98761   0.00000  Uiso   1.00
C1011  C     0.49755   0.50016   0.93402   0.00000  Uiso   1.00
C1012  C     0.51680   0.50807   0.51552   0.00000  Uiso   1.00
C1013  C     0.56550   0.51844   0.98906   0.00000  Uiso   1.00
C1014  C     0.58079   0.51579   0.93652   0.00000  Uiso   1.00
C1015  C     0.54870   0.50127   0.91082   0.00000  Uiso   1.00
C1016  C     0.50587   0.49671   0.56752   0.00000  Uiso   1.00
C1017  C     0.58865   0.51862   0.56723   0.00000  Uiso   1.00
C1018  C     0.46154   0.49361   0.90686   0.00000  Uiso   1.00
H1019  H     0.41893   0.51956   0.55009   0.00000  Uiso   1.00
H1020  H     0.36053   0.49294   0.50950   0.00000  Uiso   1.00
H1021  H     0.56660   0.49006   0.87373   0.00000  Uiso   1.00
C1022  C     0.54132   0.64645   0.71372   0.00000  Uiso   1.00
C1023  C     0.54120   0.35604   0.71671   0.00000  Uiso   1.00
C1024  C     0.49821   0.37570   0.74446   0.00000  Uiso   1.00
C1025  C     0.45533   0.35145   0.76742   0.00000  Uiso   1.00
C1026  C     0.46010   0.64303   0.77280   0.00000  Uiso   1.00
H1027  H     0.42887   0.62450   0.79391   0.00000  Uiso   1.00
C1028  C     0.50224   0.62366   0.74629   0.00000  Uiso   1.00
C1029  C     0.63744   0.53124   0.77246   0.00000  Uiso   1.00
C1030  C     0.35334   0.53043   0.77290   0.00000  Uiso   1.00
H1031  H     0.36813   0.55466   0.79137   0.00000  Uiso   1.00
N1032  N     0.38265   0.49999   0.74998   0.00000  Uiso   1.00
C1033  C     0.36359   0.47003   0.72613   0.00000  Uiso   1.00
H1034  H     0.38670   0.44613   0.70668   0.00000  Uiso   1.00
C1035  C     0.64744   0.46996   0.72630   0.00000  Uiso   1.00
H1036  H     0.63368   0.44634   0.70651   0.00000  Uiso   1.00
N1037  N     0.61735   0.50002   0.75000   0.00000  Uiso   1.00
N1038  N     0.62734   0.52291   0.59081   0.00000  Uiso   1.00
O1039  O     0.65516   0.55585   0.58189   0.00000  Uiso   1.00
O1040  O     0.64325   0.49033   0.60778   0.00000  Uiso   1.00
N1041  N     0.58332   0.37952   0.68833   0.00000  Uiso   1.00
O1042  O     0.57975   0.40589   0.65381   0.00000  Uiso   1.00
O1043  O     0.62620   0.37080   0.69238   0.00000  Uiso   1.00
S1044  S     0.39413   0.36685   0.77624   0.00000  Uiso   1.00
O1045  O     0.38628   0.37011   0.72440   0.00000  Uiso   1.00
O1046  O     0.35905   0.33473   0.80669   0.00000  Uiso   1.00
O1047  O     0.38066   0.41149   0.80586   0.00000  Uiso   1.00
H1048  H     0.34495   0.41365   0.81222   0.00000  Uiso   1.00
N1049  N     0.61093   0.56692   0.79265   0.00000  Uiso   1.00
O1050  O     0.57387   0.56409   0.83301   0.00000  Uiso   1.00
O1051  O     0.63116   0.60294   0.77921   0.00000  Uiso   1.00
N1052  N     0.46634   0.46775   0.58837   0.00000  Uiso   1.00
O1053  O     0.47010   0.43010   0.57283   0.00000  Uiso   1.00
O1054  O     0.42514   0.47940   0.61850   0.00000  Uiso   1.00
S1055  S     0.37103   0.45461   0.91518   0.00000  Uiso   1.00
O1056  O     0.35412   0.47595   0.87480   0.00000  Uiso   1.00
O1057  O     0.39687   0.41626   0.89451   0.00000  Uiso   1.00
O1058  O     0.65535   0.44172   0.96406   0.00000  Uiso   1.00
H1059  H     0.63286   0.42674   0.94838   0.00000  Uiso   1.00
S1060  S     0.58362   0.62234   0.66208   0.00000  Uiso   1.00
O1061  O     0.62318   0.60359   0.68021   0.00000  Uiso   1.00
O1062  O     0.55693   0.58944   0.64185   0.00000  Uiso   1.00
O1063  O     0.60896   0.65556   0.61405   0.00000  Uiso   1.00
H1064  H     0.63066   0.63894   0.58731   0.00000  Uiso   1.00
O1065  O     0.79375   0.56011   0.75000   0.00000  Uiso   1.00
O1066  O     0.87294   0.56012   0.75000   0.00000  Uiso   1.00
C1067  C     0.83427   0.57916   0.74861   0.00000  Uiso   1.00
O1068  O     0.77441   0.49998   0.82549   0.00000  Uiso   1.00
O1069  O     0.85360   0.49999   0.82549   0.00000  Uiso   1.00
C1070  C     0.80783   0.49696   0.84990   0.00000  Uiso   1.00
Cu1071 Cu    0.78645   0.49999   0.75000   0.00000  Uiso   1.00
Cu1072 Cu    0.88022   0.50001   0.75000   0.00000  Uiso   1.00
O1073  O     0.79373   0.43988   0.74999   0.00000  Uiso   1.00
O1074  O     0.87292   0.43989   0.75000   0.00000  Uiso   1.00
O1075  O     0.81306   0.50001   0.67451   0.00000  Uiso   1.00
O1076  O     0.89225   0.50002   0.67451   0.00000  Uiso   1.00
C1077  C     0.83269   0.42057   0.74885   0.00000  Uiso   1.00
C1078  C     0.85929   0.49986   0.65032   0.00000  Uiso   1.00
C1079  C     0.93328   0.52604   0.51507   0.00000  Uiso   1.00
H1080  H     0.95218   0.52054   0.91593   0.00000  Uiso   1.00
H1081  H     0.97011   0.53554   0.99412   0.00000  Uiso   1.00
C1082  C     0.87431   0.50411   0.59424   0.00000  Uiso   1.00
C1083  C     0.74569   0.48612   0.93614   0.00000  Uiso   1.00
C1084  C     0.73139   0.49646   0.98731   0.00000  Uiso   1.00
C1085  C     0.76537   0.50866   0.51172   0.00000  Uiso   1.00
C1086  C     0.81522   0.50531   0.98761   0.00000  Uiso   1.00
C1087  C     0.83088   0.50016   0.93402   0.00000  Uiso   1.00
C1088  C     0.85014   0.50807   0.51552   0.00000  Uiso   1.00
C1089  C     0.89883   0.51844   0.98906   0.00000  Uiso   1.00
C1090  C     0.91412   0.51579   0.93652   0.00000  Uiso   1.00
C1091  C     0.88204   0.50127   0.91082   0.00000  Uiso   1.00
C1092  C     0.83920   0.49671   0.56752   0.00000  Uiso   1.00
C1093  C     0.92199   0.51862   0.56723   0.00000  Uiso   1.00
C1094  C     0.79488   0.49361   0.90686   0.00000  Uiso   1.00
H1095  H     0.75227   0.51956   0.55009   0.00000  Uiso   1.00
H1096  H     0.69387   0.49294   0.50950   0.00000  Uiso   1.00
H1097  H     0.89993   0.49006   0.87373   0.00000  Uiso   1.00
C1098  C     0.87466   0.64645   0.71372   0.00000  Uiso   1.00
C1099  C     0.87453   0.35604   0.71671   0.00000  Uiso   1.00
C1100  C     0.83155   0.37570   0.74446   0.00000  Uiso   1.00
C1101  C     0.78866   0.35145   0.76742   0.00000  Uiso   1.00
C1102  C     0.79344   0.64303   0.77280   0.00000  Uiso   1.00
H1103  H     0.76221   0.62450   0.79391   0.00000  Uiso   1.00
C1104  C     0.83558   0.62366   0.74629   0.00000  Uiso   1.00
C1105  C     0.97078   0.53124   0.77246   0.00000  Uiso   1.00
C1106  C     0.68667   0.53043   0.77290   0.00000  Uiso   1.00
H1107  H     0.70146   0.55466   0.79137   0.00000  Uiso   1.00
N1108  N     0.71598   0.49999   0.74998   0.00000  Uiso   1.00
C1109  C     0.69693   0.47003   0.72613   0.00000  Uiso   1.00
H1110  H     0.72004   0.44613   0.70668   0.00000  Uiso   1.00
C1111  C     0.98078   0.46996   0.72630   0.00000  Uiso   1.00
H1112  H     0.96701   0.44634   0.70651   0.00000  Uiso   1.00
N1113  N     0.95069   0.50002   0.75000   0.00000  Uiso   1.00
N1114  N     0.96067   0.52291   0.59081   0.00000  Uiso   1.00
O1115  O     0.98849   0.55585   0.58189   0.00000  Uiso   1.00
O1116  O     0.97658   0.49033   0.60778   0.00000  Uiso   1.00
N1117  N     0.91665   0.37952   0.68833   0.00000  Uiso   1.00
O1118  O     0.91308   0.40589   0.65381   0.00000  Uiso   1.00
O1119  O     0.95954   0.37080   0.69238   0.00000  Uiso   1.00
S1120  S     0.72746   0.36685   0.77624   0.00000  Uiso   1.00
O1121  O     0.71961   0.37011   0.72440   0.00000  Uiso   1.00
O1122  O     0.69238   0.33473   0.80669   0.00000  Uiso   1.00
O1123  O     0.71399   0.41149   0.80586   0.00000  Uiso   1.00
H1124  H     0.67829   0.41365   0.81222   0.00000  Uiso   1.00
N1125  N     0.94427   0.56692   0.79265   0.00000  Uiso   1.00
O1126  O     0.90720   0.56409   0.83301   0.00000  Uiso   1.00
O1127  O     0.96450   0.60294   0.77921   0.00000  Uiso   1.00
N1128  N     0.79967   0.46775   0.58837   0.00000  Uiso   1.00
O1129  O     0.80343   0.43010   0.57283   0.00000  Uiso   1.00
O1130  O     0.75847   0.47940   0.61850   0.00000  Uiso   1.00
S1131  S     0.70436   0.45461   0.91518   0.00000  Uiso   1.00
O1132  O     0.68745   0.47595   0.87480   0.00000  Uiso   1.00
O1133  O     0.73020   0.41626   0.89451   0.00000  Uiso   1.00
O1134  O     0.98868   0.44172   0.96406   0.00000  Uiso   1.00
H1135  H     0.96619   0.42674   0.94838   0.00000  Uiso   1.00
S1136  S     0.91695   0.62234   0.66208   0.00000  Uiso   1.00
O1137  O     0.95651   0.60359   0.68021   0.00000  Uiso   1.00
O1138  O     0.89026   0.58944   0.64185   0.00000  Uiso   1.00
O1139  O     0.94230   0.65556   0.61405   0.00000  Uiso   1.00
H1140  H     0.96400   0.63894   0.58731   0.00000  Uiso   1.00
O1141  O     0.12708   0.89345   0.75000   0.00000  Uiso   1.00
O1142  O     0.20627   0.89346   0.75000   0.00000  Uiso   1.00
C1143  C     0.16761   0.91249   0.74861   0.00000  Uiso   1.00
O1144  O     0.10775   0.83332   0.82549   0.00000  Uiso   1.00
O1145  O     0.18694   0.83333   0.82549   0.00000  Uiso   1.00
C1146  C     0.14116   0.83030   0.84990   0.00000  Uiso   1.00
Cu1147 Cu    0.11978   0.83333   0.75000   0.00000  Uiso   1.00
Cu1148 Cu    0.21355   0.83334   0.75000   0.00000  Uiso   1.00
O1149  O     0.12706   0.77321   0.74999   0.00000  Uiso   1.00
O1150  O     0.20625   0.77322   0.75000   0.00000  Uiso   1.00
O1151  O     0.14640   0.83334   0.67451   0.00000  Uiso   1.00
O1152  O     0.22559   0.83335   0.67451   0.00000  Uiso   1.00
C1153  C     0.16602   0.75390   0.74885   0.00000  Uiso   1.00
C1154  C     0.19262   0.83320   0.65032   0.00000  Uiso   1.00
C1155  C     0.26661   0.85938   0.51507   0.00000  Uiso   1.00
H1156  H     0.28551   0.85387   0.91593   0.00000  Uiso   1.00
H1157  H     0.30344   0.86887   0.99412   0.00000  Uiso   1.00
C1158  C     0.20765   0.83744   0.59424   0.00000  Uiso   1.00
C1159  C     0.07902   0.81946   0.93614   0.00000  Uiso   1.00
C1160  C     0.06473   0.82980   0.98731   0.00000  Uiso   1.00
C1161  C     0.09870   0.84199   0.51172   0.00000  Uiso   1.00
C1162  C     0.14855   0.83864   0.98761   0.00000  Uiso   1.00
C1163  C     0.16422   0.83349   0.93402   0.00000  Uiso   1.00
C1164  C     0.18347   0.84140   0.51552   0.00000  Uiso   1.00
C1165  C     0.23216   0.85178   0.98906   0.00000  Uiso   1.00
C1166  C     0.24746   0.84912   0.93652   0.00000  Uiso   1.00
C1167  C     0.21537   0.83460   0.91082   0.00000  Uiso   1.00
C1168  C     0.17253   0.83005   0.56752   0.00000  Uiso   1.00
C1169  C     0.25532   0.85196   0.56723   0.00000  Uiso   1.00
C1170  C     0.12821   0.82695   0.90686   0.00000  Uiso   1.00
H1171  H     0.08560   0.85289   0.55009   0.00000  Uiso   1.00
H1172  H     0.02720   0.82628   0.50950   0.00000  Uiso   1.00
H1173  H     0.23326   0.82340   0.87373   0.00000  Uiso   1.00
C1174  C     0.20799   0.97978   0.71372   0.00000  Uiso   1.00
C1175  C     0.20786   0.68937   0.71671   0.00000  Uiso   1.00
C1176  C     0.16488   0.70904   0.74446   0.00000  Uiso   1.00
C1177  C     0.12200   0.68478   0.76742   0.00000  Uiso   1.00
C1178  C     0.12677   0.97636   0.77280   0.00000  Uiso   1.00
H1179  H     0.09554   0.95783   0.79391   0.00000  Uiso   1.00
C1180  C     0.16891   0.95699   0.74629   0.00000  Uiso   1.00
C1181  C     0.30411   0.86457   0.77246   0.00000  Uiso   1.00
C1182  C     0.02001   0.86377   0.77290   0.00000  Uiso   1.00
H1183  H     0.03479   0.88800   0.79137   0.00000  Uiso   1.00
N1184  N     0.04931   0.83332   0.74998   0.00000  Uiso   1.00
C1185  C     0.03026   0.80337   0.72613   0.00000  Uiso   1.00
H1186  H     0.05337   0.77946   0.70668   0.00000  Uiso   1.00
C1187  C     0.31411   0.80329   0.72630   0.00000  Uiso   1.00
H1188  H     0.30034   0.77967   0.70651   0.00000  Uiso   1.00
N1189  N     0.28402   0.83335   0.75000   0.00000  Uiso   1.00
N1190  N     0.29400   0.85624   0.59081   0.00000  Uiso   1.00
O1191  O     0.32183   0.88918   0.58189   0.00000  Uiso   1.00
O1192  O     0.30991   0.82366   0.60778   0.00000  Uiso   1.00
N1193  N     0.24999   0.71285   0.68833   0.00000  Uiso   1.00
O1194  O     0.24642   0.73923   0.65381   0.00000  Uiso   1.00
O1195  O     0.29287   0.70414   0.69238   0.00000  Uiso   1.00
S1196  S     0.06080   0.70018   0.77624   0.00000  Uiso   1.00
O1197  O     0.05294   0.70344   0.72440   0.00000  Uiso   1.00
O1198  O     0.02571   0.66806   0.80669   0.00000  Uiso   1.00
O1199  O     0.04732   0.74483   0.80586   0.00000  Uiso   1.00
H1200  H     0.01162   0.74699   0.81222   0.00000  Uiso   1.00
N1201  N     0.27760   0.90025   0.79265   0.00000  Uiso   1.00
O1202  O     0.24053   0.89743   0.83301   0.00000  Uiso   1.00
O1203  O     0.29783   0.93627   0.77921   0.00000  Uiso   1.00
N1204  N     0.13301   0.80109   0.58837   0.00000  Uiso   1.00
O1205  O     0.13677   0.76343   0.57283   0.00000  Uiso   1.00
O1206  O     0.09181   0.81273   0.61850   0.00000  Uiso   1.00
S1207  S     0.03770   0.78795   0.91518   0.00000  Uiso   1.00
O1208  O     0.02079   0.80928   0.87480   0.00000  Uiso   1.00
O1209  O     0.06354   0.74959   0.89451   0.00000  Uiso   1.00
O1210  O     0.32202   0.77505   0.96406   0.00000  Uiso   1.00
H1211  H     0.29953   0.76007   0.94838   0.00000  Uiso   1.00
S1212  S     0.25028   0.95568   0.66208   0.00000  Uiso   1.00
O1213  O     0.28984   0.93692   0.68021   0.00000  Uiso   1.00
O1214  O     0.22360   0.92277   0.64185   0.00000  Uiso   1.00
O1215  O     0.27563   0.98889   0.61405   0.00000  Uiso   1.00
H1216  H     0.29733   0.97227   0.58731   0.00000  Uiso   1.00
O1217  O     0.46042   0.89345   0.75000   0.00000  Uiso   1.00
O1218  O     0.53961   0.89346   0.75000   0.00000  Uiso   1.00
C1219  C     0.50094   0.91249   0.74861   0.00000  Uiso   1.00
O1220  O     0.44108   0.83332   0.82549   0.00000  Uiso   1.00
O1221  O     0.52027   0.83333   0.82549   0.00000  Uiso   1.00
C1222  C     0.47450   0.83030   0.84990   0.00000  Uiso   1.00
Cu1223 Cu    0.45311   0.83333   0.75000   0.00000  Uiso   1.00
Cu1224 Cu    0.54689   0.83334   0.75000   0.00000  Uiso   1.00
O1225  O     0.46039   0.77321   0.74999   0.00000  Uiso   1.00
O1226  O     0.53958   0.77322   0.75000   0.00000  Uiso   1.00
O1227  O     0.47973   0.83334   0.67451   0.00000  Uiso   1.00
O1228  O     0.55892   0.83335   0.67451   0.00000  Uiso   1.00
C1229  C     0.49936   0.75390   0.74885   0.00000  Uiso   1.00
C1230  C     0.52595   0.83320   0.65032   0.00000  Uiso   1.00
C1231  C     0.59995   0.85938   0.51507   0.00000  Uiso   1.00
H1232  H     0.61884   0.85387   0.91593   0.00000  Uiso   1.00
H1233  H     0.63678   0.86887   0.99412   0.00000  Uiso   1.00
C1234  C     0.54098   0.83744   0.59424   0.00000  Uiso   1.00
C1235  C     0.41236   0.81946   0.93614   0.00000  Uiso   1.00
C1236  C     0.39806   0.82980   0.98731   0.00000  Uiso   1.00
C1237  C     0.43204   0.84199   0.51172   0.00000  Uiso   1.00
C1238  C     0.48189   0.83864   0.98761   0.00000  Uiso   1.00
C1239  C     0.49755   0.83349   0.93402   0.00000  Uiso   1.00
C1240  C     0.51680   0.84140   0.51552   0.00000  Uiso   1.00
C1241  C     0.56550   0.85178   0.98906   0.00000  Uiso   1.00
C1242  C     0.58079   0.84912   0.93652   0.00000  Uiso   1.00
C1243  C     0.54870   0.83460   0.91082   0.00000  Uiso   1.00
C1244  C     0.50587   0.83005   0.56752   0.00000  Uiso   1.00
C1245  C     0.58865   0.85196   0.56723   0.00000  Uiso   1.00
C1246  C     0.46154   0.82695   0.90686   0.00000  Uiso   1.00
H1247  H     0.41893   0.85289   0.55009   0.00000  Uiso   1.00
H1248  H     0.36053   0.82628   0.50950   0.00000  Uiso   1.00
H1249  H     0.56660   0.82340   0.87373   0.00000  Uiso   1.00
C1250  C     0.54132   0.97978   0.71372   0.00000  Uiso   1.00
C1251  C     0.54120   0.68937   0.71671   0.00000  Uiso   1.00
C1252  C     0.49821   0.70904   0.74446   0.00000  Uiso   1.00
C1253  C     0.45533   0.68478   0.76742   0.00000  Uiso   1.00
C1254  C     0.46010   0.97636   0.77280   0.00000  Uiso   1.00
H1255  H     0.42887   0.95783   0.79391   0.00000  Uiso   1.00
C1256  C     0.50224   0.95699   0.74629   0.00000  Uiso   1.00
C1257  C     0.63744   0.86457   0.77246   0.00000  Uiso   1.00
C1258  C     0.35334   0.86377   0.77290   0.00000  Uiso   1.00
H1259  H     0.36813   0.88800   0.79137   0.00000  Uiso   1.00
N1260  N     0.38265   0.83332   0.74998   0.00000  Uiso   1.00
C1261  C     0.36359   0.80337   0.72613   0.00000  Uiso   1.00
H1262  H     0.38670   0.77946   0.70668   0.00000  Uiso   1.00
C1263  C     0.64744   0.80329   0.72630   0.00000  Uiso   1.00
H1264  H     0.63368   0.77967   0.70651   0.00000  Uiso   1.00
N1265  N     0.61735   0.83335   0.75000   0.00000  Uiso   1.00
N1266  N     0.62734   0.85624   0.59081   0.00000  Uiso   1.00
O1267  O     0.65516   0.88918   0.58189   0.00000  Uiso   1.00
O1268  O     0.64325   0.82366   0.60778   0.00000  Uiso   1.00
N1269  N     0.58332   0.71285   0.68833   0.00000  Uiso   1.00
O1270  O     0.57975   0.73923   0.65381   0.00000  Uiso   1.00
O1271  O     0.62620   0.70414   0.69238   0.00000  Uiso   1.00
S1272  S     0.39413   0.70018   0.77624   0.00000  Uiso   1.00
O1273  O     0.38628   0.70344   0.72440   0.00000  Uiso   1.00
O1274  O     0.35905   0.66806   0.80669   0.00000  Uiso   1.00
O1275  O     0.38066   0.74483   0.80586   0.00000  Uiso   1.00
H1276  H     0.34495   0.74699   0.81222   0.00000  Uiso   1.00
N1277  N     0.61093   0.90025   0.79265   0.00000  Uiso   1.00
O1278  O     0.57387   0.89743   0.83301   0.00000  Uiso   1.00
O1279  O     0.63116   0.93627   0.77921   0.00000  Uiso   1.00
N1280  N     0.46634   0.80109   0.58837   0.00000  Uiso   1.00
O1281  O     0.47010   0.76343   0.57283   0.00000  Uiso   1.00
O1282  O     0.42514   0.81273   0.61850   0.00000  Uiso   1.00
S1283  S     0.37103   0.78795   0.91518   0.00000  Uiso   1.00
O1284  O     0.35412   0.80928   0.87480   0.00000  Uiso   1.00
O1285  O     0.39687   0.74959   0.89451   0.00000  Uiso   1.00
O1286  O     0.65535   0.77505   0.96406   0.00000  Uiso   1.00
H1287  H     0.63286   0.76007   0.94838   0.00000  Uiso   1.00
S1288  S     0.58362   0.95568   0.66208   0.00000  Uiso   1.00
O1289  O     0.62318   0.93692   0.68021   0.00000  Uiso   1.00
O1290  O     0.55693   0.92277   0.64185   0.00000  Uiso   1.00
O1291  O     0.60896   0.98889   0.61405   0.00000  Uiso   1.00
H1292  H     0.63066   0.97227   0.58731   0.00000  Uiso   1.00
O1293  O     0.79375   0.89345   0.75000   0.00000  Uiso   1.00
O1294  O     0.87294   0.89346   0.75000   0.00000  Uiso   1.00
C1295  C     0.83427   0.91249   0.74861   0.00000  Uiso   1.00
O1296  O     0.77441   0.83332   0.82549   0.00000  Uiso   1.00
O1297  O     0.85360   0.83333   0.82549   0.00000  Uiso   1.00
C1298  C     0.80783   0.83030   0.84990   0.00000  Uiso   1.00
Cu1299 Cu    0.78645   0.83333   0.75000   0.00000  Uiso   1.00
Cu1300 Cu    0.88022   0.83334   0.75000   0.00000  Uiso   1.00
O1301  O     0.79373   0.77321   0.74999   0.00000  Uiso   1.00
O1302  O     0.87292   0.77322   0.75000   0.00000  Uiso   1.00
O1303  O     0.81306   0.83334   0.67451   0.00000  Uiso   1.00
O1304  O     0.89225   0.83335   0.67451   0.00000  Uiso   1.00
C1305  C     0.83269   0.75390   0.74885   0.00000  Uiso   1.00
C1306  C     0.85929   0.83320   0.65032   0.00000  Uiso   1.00
C1307  C     0.93328   0.85938   0.51507   0.00000  Uiso   1.00
H1308  H     0.95218   0.85387   0.91593   0.00000  Uiso   1.00
H1309  H     0.97011   0.86887   0.99412   0.00000  Uiso   1.00
C1310  C     0.87431   0.83744   0.59424   0.00000  Uiso   1.00
C1311  C     0.74569   0.81946   0.93614   0.00000  Uiso   1.00
C1312  C     0.73139   0.82980   0.98731   0.00000  Uiso   1.00
C1313  C     0.76537   0.84199   0.51172   0.00000  Uiso   1.00
C1314  C     0.81522   0.83864   0.98761   0.00000  Uiso   1.00
C1315  C     0.83088   0.83349   0.93402   0.00000  Uiso   1.00
C1316  C     0.85014   0.84140   0.51552   0.00000  Uiso   1.00
C1317  C     0.89883   0.85178   0.98906   0.00000  Uiso   1.00
C1318  C     0.91412   0.84912   0.93652   0.00000  Uiso   1.00
C1319  C     0.88204   0.83460   0.91082   0.00000  Uiso   1.00
C1320  C     0.83920   0.83005   0.56752   0.00000  Uiso   1.00
C1321  C     0.92199   0.85196   0.56723   0.00000  Uiso   1.00
C1322  C     0.79488   0.82695   0.90686   0.00000  Uiso   1.00
H1323  H     0.75227   0.85289   0.55009   0.00000  Uiso   1.00
H1324  H     0.69387   0.82628   0.50950   0.00000  Uiso   1.00
H1325  H     0.89993   0.82340   0.87373   0.00000  Uiso   1.00
C1326  C     0.87466   0.97978   0.71372   0.00000  Uiso   1.00
C1327  C     0.87453   0.68937   0.71671   0.00000  Uiso   1.00
C1328  C     0.83155   0.70904   0.74446   0.00000  Uiso   1.00
C1329  C     0.78866   0.68478   0.76742   0.00000  Uiso   1.00
C1330  C     0.79344   0.97636   0.77280   0.00000  Uiso   1.00
H1331  H     0.76221   0.95783   0.79391   0.00000  Uiso   1.00
C1332  C     0.83558   0.95699   0.74629   0.00000  Uiso   1.00
C1333  C     0.97078   0.86457   0.77246   0.00000  Uiso   1.00
C1334  C     0.68667   0.86377   0.77290   0.00000  Uiso   1.00
H1335  H     0.70146   0.88800   0.79137   0.00000  Uiso   1.00
N1336  N     0.71598   0.83332   0.74998   0.00000  Uiso   1.00
C1337  C     0.69693   0.80337   0.72613   0.00000  Uiso   1.00
H1338  H     0.72004   0.77946   0.70668   0.00000  Uiso   1.00
C1339  C     0.98078   0.80329   0.72630   0.00000  Uiso   1.00
H1340  H     0.96701   0.77967   0.70651   0.00000  Uiso   1.00
N1341  N     0.95069   0.83335   0.75000   0.00000  Uiso   1.00
N1342  N     0.96067   0.85624   0.59081   0.00000  Uiso   1.00
O1343  O     0.98849   0.88918   0.58189   0.00000  Uiso   1.00
O1344  O     0.97658   0.82366   0.60778   0.00000  Uiso   1.00
N1345  N     0.91665   0.71285   0.68833   0.00000  Uiso   1.00
O1346  O     0.91308   0.73923   0.65381   0.00000  Uiso   1.00
O1347  O     0.95954   0.70414   0.69238   0.00000  Uiso   1.00
S1348  S     0.72746   0.70018   0.77624   0.00000  Uiso   1.00
O1349  O     0.71961   0.70344   0.72440   0.00000  Uiso   1.00
O1350  O     0.69238   0.66806   0.80669   0.00000  Uiso   1.00
O1351  O     0.71399   0.74483   0.80586   0.00000  Uiso   1.00
H1352  H     0.67829   0.74699   0.81222   0.00000  Uiso   1.00
N1353  N     0.94427   0.90025   0.79265   0.00000  Uiso   1.00
O1354  O     0.90720   0.89743   0.83301   0.00000  Uiso   1.00
O1355  O     0.96450   0.93627   0.77921   0.00000  Uiso   1.00
N1356  N     0.79967   0.80109   0.58837   0.00000  Uiso   1.00
O1357  O     0.80343   0.76343   0.57283   0.00000  Uiso   1.00
O1358  O     0.75847   0.81273   0.61850   0.00000  Uiso   1.00
S1359  S     0.70436   0.78795   0.91518   0.00000  Uiso   1.00
O1360  O     0.68745   0.80928   0.87480   0.00000  Uiso   1.00
O1361  O     0.73020   0.74959   0.89451   0.00000  Uiso   1.00
O1362  O     0.98868   0.77505   0.96406   0.00000  Uiso   1.00
H1363  H     0.96619   0.76007   0.94838   0.00000  Uiso   1.00
S1364  S     0.91695   0.95568   0.66208   0.00000  Uiso   1.00
O1365  O     0.95651   0.93692   0.68021   0.00000  Uiso   1.00
O1366  O     0.89026   0.92277   0.64185   0.00000  Uiso   1.00
O1367  O     0.94230   0.98889   0.61405   0.00000  Uiso   1.00
H1368  H     0.96400   0.97227   0.58731   0.00000  Uiso   1.00
loop_
_geom_bond_atom_site_label_1
_geom_bond_atom_site_label_2
_geom_bond_distance
_geom_bond_site_symmetry_2
_ccdc_geom_bond_type
O1     C3      1.292   .     A
O1     Cu7     1.969   .     S
O2     Cu8     1.979   .     S
O2     C3      1.293   .     A
C3     C40     1.453   .     S
O4     Cu7     1.997   .     S
O4     C6      1.318   .     A
O5     C6      1.291   .     A
O5     Cu8     1.990   .     S
C6     C30     1.500   .     S
Cu7    Cu8     2.683   .     S
Cu7    O11     1.990   .     S
Cu7    N44     2.017   .     S
Cu7    O9      1.979   .     S
Cu8    O12     1.997   .     S
Cu8    O10     1.969   .     S
Cu8    N49     2.016   .     S
O9     C13     1.288   .     A
O10    C13     1.307   .     A
O11    C14     1.300   .     A
O12    C14     1.297   .     A
C13    C36     1.471   .     S
C14    C18     1.477   .     S
C15    C29     1.390   .     A
C15    H701    1.083   1_554 S
C15    C709    1.389   1_554 S
H16    C26     1.081   .     S
H17    C699    1.083   .     S
C18    C28     1.418   .     A
C18    C29     1.422   .     A
C19    C20     1.390   .     A
C19    S67     1.765   .     S
C19    C30     1.422   .     A
C20    C705    1.379   .     S
C20    H716    1.076   .     S
C21    H31     1.077   .     S
C21    C704    1.379   1_554 S
C21    C706    1.399   1_554 S
C22    C23     1.420   .     A
C22    C705    1.399   .     S
C22    C708    1.421   .     S
C23    C27     1.420   .     A
C23    C30     1.444   .     A
C24    C28     1.413   .     A
C24    C706    1.421   1_554 S
C24    C709    1.407   1_554 S
C25    C26     1.384   .     A
C25    C699    1.389   .     S
C25    C708    1.407   .     S
C26    C27     1.383   .     A
C27    H33     1.071   .     S
C28    N64     1.439   .     S
C29    N50     1.435   .     S
H32    C704    1.076   1_554 S
C34    C40     1.408   .     A
C34    S72     1.782   .     S
C34    C263    1.405   .     S
C35    N53     1.434   .     S
C35    C36     1.421   .     A
C35    C490    1.405   1_545 S
C36    C37     1.426   .     A
C37    S56     1.785   .     S
C37    C494    1.385   1_545 S
C38    C40     1.389   .     A
C38    H39     1.083   .     S
C38    C265    1.385   .     S
C41    N61     1.433   .     S
C41    N49     1.388   .     A
C41    C118    1.413   .     S
C42    N44     1.356   .     A
C42    H43     1.082   .     S
C42    C193    1.413   1_455 S
N44    C45     1.365   .     A
C45    H46     1.078   .     S
C45    C199    1.415   1_455 S
C47    N49     1.364   .     A
C47    H48     1.075   .     S
C47    C121    1.415   .     S
N50    O52     1.301   .     A
N50    O51     1.301   .     A
N53    O54     1.302   .     A
N53    O55     1.301   .     A
S56    O57     1.502   .     D
S56    O59     1.673   .     S
S56    O58     1.504   .     D
O59    H60     0.991   .     S
N61    O63     1.301   .     A
N61    O62     1.297   .     A
N64    O66     1.300   .     A
N64    O65     1.301   .     A
S67    O68     1.501   .     D
S67    O69     1.502   .     D
S67    O222    1.683   1_455 S
O70    H71     0.991   .     S
O70    S143    1.683   .     S
S72    O75     1.682   .     S
S72    O74     1.500   .     D
S72    O73     1.501   .     D
O75    H76     0.990   .     S
O77    C79     1.292   .     A
O77    Cu83    1.969   .     S
O78    Cu84    1.979   .     S
O78    C79     1.293   .     A
C79    C116    1.453   .     S
O80    Cu83    1.997   .     S
O80    C82     1.318   .     A
O81    C82     1.291   .     A
O81    Cu84    1.990   .     S
C82    C106    1.500   .     S
Cu83   Cu84    2.683   .     S
Cu83   O87     1.990   .     S
Cu83   N120    2.017   .     S
Cu83   O85     1.979   .     S
Cu84   O88     1.997   .     S
Cu84   O86     1.969   .     S
Cu84   N125    2.016   .     S
O85    C89     1.288   .     A
O86    C89     1.307   .     A
O87    C90     1.300   .     A
O88    C90     1.297   .     A
C89    C112    1.471   .     S
C90    C94     1.477   .     S
C91    C105    1.390   .     A
C91    H777    1.083   1_554 S
C91    C785    1.389   1_554 S
H92    C102    1.081   .     S
H93    C775    1.083   .     S
C94    C104    1.418   .     A
C94    C105    1.422   .     A
C95    C96     1.390   .     A
C95    S143    1.765   .     S
C95    C106    1.422   .     A
C96    C781    1.379   .     S
C96    H792    1.076   .     S
C97    H107    1.077   .     S
C97    C780    1.379   1_554 S
C97    C782    1.399   1_554 S
C98    C99     1.420   .     A
C98    C781    1.399   .     S
C98    C784    1.421   .     S
C99    C103    1.420   .     A
C99    C106    1.444   .     A
C100   C104    1.413   .     A
C100   C782    1.421   1_554 S
C100   C785    1.407   1_554 S
C101   C102    1.384   .     A
C101   C775    1.389   .     S
C101   C784    1.407   .     S
C102   C103    1.383   .     A
C103   H109    1.071   .     S
C104   N140    1.439   .     S
C105   N126    1.435   .     S
H108   C780    1.076   1_554 S
C110   C116    1.408   .     A
C110   S148    1.782   .     S
C110   C339    1.405   .     S
C111   N129    1.434   .     S
C111   C112    1.421   .     A
C111   C566    1.405   1_545 S
C112   C113    1.426   .     A
C113   S132    1.785   .     S
C113   C570    1.385   1_545 S
C114   C116    1.389   .     A
C114   H115    1.083   .     S
C114   C341    1.385   .     S
C117   N137    1.433   .     S
C117   N125    1.388   .     A
C117   C194    1.413   .     S
C118   N120    1.356   .     A
C118   H119    1.082   .     S
N120   C121    1.365   .     A
C121   H122    1.078   .     S
C123   N125    1.364   .     A
C123   H124    1.075   .     S
C123   C197    1.415   .     S
N126   O128    1.301   .     A
N126   O127    1.301   .     A
N129   O130    1.302   .     A
N129   O131    1.301   .     A
S132   O133    1.502   .     D
S132   O135    1.673   .     S
S132   O134    1.504   .     D
O135   H136    0.991   .     S
N137   O139    1.301   .     A
N137   O138    1.297   .     A
N140   O142    1.300   .     A
N140   O141    1.301   .     A
S143   O144    1.501   .     D
S143   O145    1.502   .     D
O146   H147    0.991   .     S
O146   S219    1.683   .     S
S148   O151    1.682   .     S
S148   O150    1.500   .     D
S148   O149    1.501   .     D
O151   H152    0.990   .     S
O153   C155    1.292   .     A
O153   Cu159   1.969   .     S
O154   Cu160   1.979   .     S
O154   C155    1.293   .     A
C155   C192    1.453   .     S
O156   Cu159   1.997   .     S
O156   C158    1.318   .     A
O157   C158    1.291   .     A
O157   Cu160   1.990   .     S
C158   C182    1.500   .     S
Cu159  Cu160   2.683   .     S
Cu159  O163    1.990   .     S
Cu159  N196    2.017   .     S
Cu159  O161    1.979   .     S
Cu160  O164    1.997   .     S
Cu160  O162    1.969   .     S
Cu160  N201    2.016   .     S
O161   C165    1.288   .     A
O162   C165    1.307   .     A
O163   C166    1.300   .     A
O164   C166    1.297   .     A
C165   C188    1.471   .     S
C166   C170    1.477   .     S
C167   C181    1.390   .     A
C167   H853    1.083   1_554 S
C167   C861    1.389   1_554 S
H168   C178    1.081   .     S
H169   C851    1.083   .     S
C170   C180    1.418   .     A
C170   C181    1.422   .     A
C171   C172    1.390   .     A
C171   S219    1.765   .     S
C171   C182    1.422   .     A
C172   C857    1.379   .     S
C172   H868    1.076   .     S
C173   H183    1.077   .     S
C173   C856    1.379   1_554 S
C173   C858    1.399   1_554 S
C174   C175    1.420   .     A
C174   C857    1.399   .     S
C174   C860    1.421   .     S
C175   C179    1.420   .     A
C175   C182    1.444   .     A
C176   C180    1.413   .     A
C176   C858    1.421   1_554 S
C176   C861    1.407   1_554 S
C177   C178    1.384   .     A
C177   C851    1.389   .     S
C177   C860    1.407   .     S
C178   C179    1.383   .     A
C179   H185    1.071   .     S
C180   N216    1.439   .     S
C181   N202    1.435   .     S
H184   C856    1.076   1_554 S
C186   C192    1.408   .     A
C186   S224    1.782   .     S
C186   C415    1.405   .     S
C187   N205    1.434   .     S
C187   C188    1.421   .     A
C187   C642    1.405   1_545 S
C188   C189    1.426   .     A
C189   S208    1.785   .     S
C189   C646    1.385   1_545 S
C190   C192    1.389   .     A
C190   H191    1.083   .     S
C190   C417    1.385   .     S
C193   N213    1.433   .     S
C193   N201    1.388   .     A
C193   C42     1.413   1_655 S
C194   N196    1.356   .     A
C194   H195    1.082   .     S
N196   C197    1.365   .     A
C197   H198    1.078   .     S
C199   N201    1.364   .     A
C199   H200    1.075   .     S
C199   C45     1.415   1_655 S
N202   O204    1.301   .     A
N202   O203    1.301   .     A
N205   O206    1.302   .     A
N205   O207    1.301   .     A
S208   O209    1.502   .     D
S208   O211    1.673   .     S
S208   O210    1.504   .     D
O211   H212    0.991   .     S
N213   O215    1.301   .     A
N213   O214    1.297   .     A
N216   O218    1.300   .     A
N216   O217    1.301   .     A
S219   O220    1.501   .     D
S219   O221    1.502   .     D
O222   H223    0.991   .     S
O222   S67     1.683   1_655 S
S224   O227    1.682   .     S
S224   O226    1.500   .     D
S224   O225    1.501   .     D
O227   H228    0.990   .     S
O229   C231    1.292   .     A
O229   Cu235   1.969   .     S
O230   Cu236   1.979   .     S
O230   C231    1.293   .     A
C231   C268    1.453   .     S
O232   Cu235   1.997   .     S
O232   C234    1.318   .     A
O233   C234    1.291   .     A
O233   Cu236   1.990   .     S
C234   C258    1.500   .     S
Cu235  Cu236   2.683   .     S
Cu235  O239    1.990   .     S
Cu235  N272    2.017   .     S
Cu235  O237    1.979   .     S
Cu236  O240    1.997   .     S
Cu236  O238    1.969   .     S
Cu236  N277    2.016   .     S
O237   C241    1.288   .     A
O238   C241    1.307   .     A
O239   C242    1.300   .     A
O240   C242    1.297   .     A
C241   C264    1.471   .     S
C242   C246    1.477   .     S
C243   C257    1.390   .     A
C243   H929    1.083   1_554 S
C243   C937    1.389   1_554 S
H244   C254    1.081   .     S
H245   C927    1.083   .     S
C246   C256    1.418   .     A
C246   C257    1.422   .     A
C247   C248    1.390   .     A
C247   S295    1.765   .     S
C247   C258    1.422   .     A
C248   C933    1.379   .     S
C248   H944    1.076   .     S
C249   H259    1.077   .     S
C249   C932    1.379   1_554 S
C249   C934    1.399   1_554 S
C250   C251    1.420   .     A
C250   C933    1.399   .     S
C250   C936    1.421   .     S
C251   C255    1.420   .     A
C251   C258    1.444   .     A
C252   C256    1.413   .     A
C252   C934    1.421   1_554 S
C252   C937    1.407   1_554 S
C253   C254    1.384   .     A
C253   C927    1.389   .     S
C253   C936    1.407   .     S
C254   C255    1.383   .     A
C255   H261    1.071   .     S
C256   N292    1.439   .     S
C257   N278    1.435   .     S
H260   C932    1.076   1_554 S
C262   C268    1.408   .     A
C262   S300    1.782   .     S
C262   C491    1.405   .     S
C263   N281    1.434   .     S
C263   C264    1.421   .     A
C264   C265    1.426   .     A
C265   S284    1.785   .     S
C266   C268    1.389   .     A
C266   H267    1.083   .     S
C266   C493    1.385   .     S
C269   N289    1.433   .     S
C269   N277    1.388   .     A
C269   C346    1.413   .     S
C270   N272    1.356   .     A
C270   H271    1.082   .     S
C270   C421    1.413   1_455 S
N272   C273    1.365   .     A
C273   H274    1.078   .     S
C273   C427    1.415   1_455 S
C275   N277    1.364   .     A
C275   H276    1.075   .     S
C275   C349    1.415   .     S
N278   O280    1.301   .     A
N278   O279    1.301   .     A
N281   O282    1.302   .     A
N281   O283    1.301   .     A
S284   O285    1.502   .     D
S284   O287    1.673   .     S
S284   O286    1.504   .     D
O287   H288    0.991   .     S
N289   O291    1.301   .     A
N289   O290    1.297   .     A
N292   O294    1.300   .     A
N292   O293    1.301   .     A
S295   O296    1.501   .     D
S295   O297    1.502   .     D
S295   O450    1.683   1_455 S
O298   H299    0.991   .     S
O298   S371    1.683   .     S
S300   O303    1.682   .     S
S300   O302    1.500   .     D
S300   O301    1.501   .     D
O303   H304    0.990   .     S
O305   C307    1.292   .     A
O305   Cu311   1.969   .     S
O306   Cu312   1.979   .     S
O306   C307    1.293   .     A
C307   C344    1.453   .     S
O308   Cu311   1.997   .     S
O308   C310    1.318   .     A
O309   C310    1.291   .     A
O309   Cu312   1.990   .     S
C310   C334    1.500   .     S
Cu311  Cu312   2.683   .     S
Cu311  O315    1.990   .     S
Cu311  N348    2.017   .     S
Cu311  O313    1.979   .     S
Cu312  O316    1.997   .     S
Cu312  O314    1.969   .     S
Cu312  N353    2.016   .     S
O313   C317    1.288   .     A
O314   C317    1.307   .     A
O315   C318    1.300   .     A
O316   C318    1.297   .     A
C317   C340    1.471   .     S
C318   C322    1.477   .     S
C319   C333    1.390   .     A
C319   H1005   1.083   1_554 S
C319   C1013   1.389   1_554 S
H320   C330    1.081   .     S
H321   C1003   1.083   .     S
C322   C332    1.418   .     A
C322   C333    1.422   .     A
C323   C324    1.390   .     A
C323   S371    1.765   .     S
C323   C334    1.422   .     A
C324   C1009   1.379   .     S
C324   H1020   1.076   .     S
C325   H335    1.077   .     S
C325   C1008   1.379   1_554 S
C325   C1010   1.399   1_554 S
C326   C327    1.420   .     A
C326   C1009   1.399   .     S
C326   C1012   1.421   .     S
C327   C331    1.420   .     A
C327   C334    1.444   .     A
C328   C332    1.413   .     A
C328   C1010   1.421   1_554 S
C328   C1013   1.407   1_554 S
C329   C330    1.384   .     A
C329   C1003   1.389   .     S
C329   C1012   1.407   .     S
C330   C331    1.383   .     A
C331   H337    1.071   .     S
C332   N368    1.439   .     S
C333   N354    1.435   .     S
H336   C1008   1.076   1_554 S
C338   C344    1.408   .     A
C338   S376    1.782   .     S
C338   C567    1.405   .     S
C339   N357    1.434   .     S
C339   C340    1.421   .     A
C340   C341    1.426   .     A
C341   S360    1.785   .     S
C342   C344    1.389   .     A
C342   H343    1.083   .     S
C342   C569    1.385   .     S
C345   N365    1.433   .     S
C345   N353    1.388   .     A
C345   C422    1.413   .     S
C346   N348    1.356   .     A
C346   H347    1.082   .     S
N348   C349    1.365   .     A
C349   H350    1.078   .     S
C351   N353    1.364   .     A
C351   H352    1.075   .     S
C351   C425    1.415   .     S
N354   O356    1.301   .     A
N354   O355    1.301   .     A
N357   O358    1.302   .     A
N357   O359    1.301   .     A
S360   O361    1.502   .     D
S360   O363    1.673   .     S
S360   O362    1.504   .     D
O363   H364    0.991   .     S
N365   O367    1.301   .     A
N365   O366    1.297   .     A
N368   O370    1.300   .     A
N368   O369    1.301   .     A
S371   O372    1.501   .     D
S371   O373    1.502   .     D
O374   H375    0.991   .     S
O374   S447    1.683   .     S
S376   O379    1.682   .     S
S376   O378    1.500   .     D
S376   O377    1.501   .     D
O379   H380    0.990   .     S
O381   C383    1.292   .     A
O381   Cu387   1.969   .     S
O382   Cu388   1.979   .     S
O382   C383    1.293   .     A
C383   C420    1.453   .     S
O384   Cu387   1.997   .     S
O384   C386    1.318   .     A
O385   C386    1.291   .     A
O385   Cu388   1.990   .     S
C386   C410    1.500   .     S
Cu387  Cu388   2.683   .     S
Cu387  O391    1.990   .     S
Cu387  N424    2.017   .     S
Cu387  O389    1.979   .     S
Cu388  O392    1.997   .     S
Cu388  O390    1.969   .     S
Cu388  N429    2.016   .     S
O389   C393    1.288   .     A
O390   C393    1.307   .     A
O391   C394    1.300   .     A
O392   C394    1.297   .     A
C393   C416    1.471   .     S
C394   C398    1.477   .     S
C395   C409    1.390   .     A
C395   H1081   1.083   1_554 S
C395   C1089   1.389   1_554 S
H396   C406    1.081   .     S
H397   C1079   1.083   .     S
C398   C408    1.418   .     A
C398   C409    1.422   .     A
C399   C400    1.390   .     A
C399   S447    1.765   .     S
C399   C410    1.422   .     A
C400   C1085   1.379   .     S
C400   H1096   1.076   .     S
C401   H411    1.077   .     S
C401   C1084   1.379   1_554 S
C401   C1086   1.399   1_554 S
C402   C403    1.420   .     A
C402   C1085   1.399   .     S
C402   C1088   1.421   .     S
C403   C407    1.420   .     A
C403   C410    1.444   .     A
C404   C408    1.413   .     A
C404   C1086   1.421   1_554 S
C404   C1089   1.407   1_554 S
C405   C406    1.384   .     A
C405   C1079   1.389   .     S
C405   C1088   1.407   .     S
C406   C407    1.383   .     A
C407   H413    1.071   .     S
C408   N444    1.439   .     S
C409   N430    1.435   .     S
H412   C1084   1.076   1_554 S
C414   C420    1.408   .     A
C414   S452    1.782   .     S
C414   C643    1.405   .     S
C415   N433    1.434   .     S
C415   C416    1.421   .     A
C416   C417    1.426   .     A
C417   S436    1.785   .     S
C418   C420    1.389   .     A
C418   H419    1.083   .     S
C418   C645    1.385   .     S
C421   N441    1.433   .     S
C421   N429    1.388   .     A
C421   C270    1.413   1_655 S
C422   N424    1.356   .     A
C422   H423    1.082   .     S
N424   C425    1.365   .     A
C425   H426    1.078   .     S
C427   N429    1.364   .     A
C427   H428    1.075   .     S
C427   C273    1.415   1_655 S
N430   O432    1.301   .     A
N430   O431    1.301   .     A
N433   O434    1.302   .     A
N433   O435    1.301   .     A
S436   O437    1.502   .     D
S436   O439    1.673   .     S
S436   O438    1.504   .     D
O439   H440    0.991   .     S
N441   O443    1.301   .     A
N441   O442    1.297   .     A
N444   O446    1.300   .     A
N444   O445    1.301   .     A
S447   O448    1.501   .     D
S447   O449    1.502   .     D
O450   H451    0.991   .     S
O450   S295    1.683   1_655 S
S452   O455    1.682   .     S
S452   O454    1.500   .     D
S452   O453    1.501   .     D
O455   H456    0.990   .     S
O457   C459    1.292   .     A
O457   Cu463   1.969   .     S
O458   Cu464   1.979   .     S
O458   C459    1.293   .     A
C459   C496    1.453   .     S
O460   Cu463   1.997   .     S
O460   C462    1.318   .     A
O461   C462    1.291   .     A
O461   Cu464   1.990   .     S
C462   C486    1.500   .     S
Cu463  Cu464   2.683   .     S
Cu463  O467    1.990   .     S
Cu463  N500    2.017   .     S
Cu463  O465    1.979   .     S
Cu464  O468    1.997   .     S
Cu464  O466    1.969   .     S
Cu464  N505    2.016   .     S
O465   C469    1.288   .     A
O466   C469    1.307   .     A
O467   C470    1.300   .     A
O468   C470    1.297   .     A
C469   C492    1.471   .     S
C470   C474    1.477   .     S
C471   C485    1.390   .     A
C471   H1157   1.083   1_554 S
C471   C1165   1.389   1_554 S
H472   C482    1.081   .     S
H473   C1155   1.083   .     S
C474   C484    1.418   .     A
C474   C485    1.422   .     A
C475   C476    1.390   .     A
C475   S523    1.765   .     S
C475   C486    1.422   .     A
C476   C1161   1.379   .     S
C476   H1172   1.076   .     S
C477   H487    1.077   .     S
C477   C1160   1.379   1_554 S
C477   C1162   1.399   1_554 S
C478   C479    1.420   .     A
C478   C1161   1.399   .     S
C478   C1164   1.421   .     S
C479   C483    1.420   .     A
C479   C486    1.444   .     A
C480   C484    1.413   .     A
C480   C1162   1.421   1_554 S
C480   C1165   1.407   1_554 S
C481   C482    1.384   .     A
C481   C1155   1.389   .     S
C481   C1164   1.407   .     S
C482   C483    1.383   .     A
C483   H489    1.071   .     S
C484   N520    1.439   .     S
C485   N506    1.435   .     S
H488   C1160   1.076   1_554 S
C490   C496    1.408   .     A
C490   S528    1.782   .     S
C490   C35     1.405   1_565 S
C491   N509    1.434   .     S
C491   C492    1.421   .     A
C492   C493    1.426   .     A
C493   S512    1.785   .     S
C494   C496    1.389   .     A
C494   H495    1.083   .     S
C494   C37     1.385   1_565 S
C497   N517    1.433   .     S
C497   N505    1.388   .     A
C497   C574    1.413   .     S
C498   N500    1.356   .     A
C498   H499    1.082   .     S
C498   C649    1.413   1_455 S
N500   C501    1.365   .     A
C501   H502    1.078   .     S
C501   C655    1.415   1_455 S
C503   N505    1.364   .     A
C503   H504    1.075   .     S
C503   C577    1.415   .     S
N506   O508    1.301   .     A
N506   O507    1.301   .     A
N509   O510    1.302   .     A
N509   O511    1.301   .     A
S512   O513    1.502   .     D
S512   O515    1.673   .     S
S512   O514    1.504   .     D
O515   H516    0.991   .     S
N517   O519    1.301   .     A
N517   O518    1.297   .     A
N520   O522    1.300   .     A
N520   O521    1.301   .     A
S523   O524    1.501   .     D
S523   O525    1.502   .     D
S523   O678    1.683   1_455 S
O526   H527    0.991   .     S
O526   S599    1.683   .     S
S528   O531    1.682   .     S
S528   O530    1.500   .     D
S528   O529    1.501   .     D
O531   H532    0.990   .     S
O533   C535    1.292   .     A
O533   Cu539   1.969   .     S
O534   Cu540   1.979   .     S
O534   C535    1.293   .     A
C535   C572    1.453   .     S
O536   Cu539   1.997   .     S
O536   C538    1.318   .     A
O537   C538    1.291   .     A
O537   Cu540   1.990   .     S
C538   C562    1.500   .     S
Cu539  Cu540   2.683   .     S
Cu539  O543    1.990   .     S
Cu539  N576    2.017   .     S
Cu539  O541    1.979   .     S
Cu540  O544    1.997   .     S
Cu540  O542    1.969   .     S
Cu540  N581    2.016   .     S
O541   C545    1.288   .     A
O542   C545    1.307   .     A
O543   C546    1.300   .     A
O544   C546    1.297   .     A
C545   C568    1.471   .     S
C546   C550    1.477   .     S
C547   C561    1.390   .     A
C547   H1233   1.083   1_554 S
C547   C1241   1.389   1_554 S
H548   C558    1.081   .     S
H549   C1231   1.083   .     S
C550   C560    1.418   .     A
C550   C561    1.422   .     A
C551   C552    1.390   .     A
C551   S599    1.765   .     S
C551   C562    1.422   .     A
C552   C1237   1.379   .     S
C552   H1248   1.076   .     S
C553   H563    1.077   .     S
C553   C1236   1.379   1_554 S
C553   C1238   1.399   1_554 S
C554   C555    1.420   .     A
C554   C1237   1.399   .     S
C554   C1240   1.421   .     S
C555   C559    1.420   .     A
C555   C562    1.444   .     A
C556   C560    1.413   .     A
C556   C1238   1.421   1_554 S
C556   C1241   1.407   1_554 S
C557   C558    1.384   .     A
C557   C1231   1.389   .     S
C557   C1240   1.407   .     S
C558   C559    1.383   .     A
C559   H565    1.071   .     S
C560   N596    1.439   .     S
C561   N582    1.435   .     S
H564   C1236   1.076   1_554 S
C566   C572    1.408   .     A
C566   S604    1.782   .     S
C566   C111    1.405   1_565 S
C567   N585    1.434   .     S
C567   C568    1.421   .     A
C568   C569    1.426   .     A
C569   S588    1.785   .     S
C570   C572    1.389   .     A
C570   H571    1.083   .     S
C570   C113    1.385   1_565 S
C573   N593    1.433   .     S
C573   N581    1.388   .     A
C573   C650    1.413   .     S
C574   N576    1.356   .     A
C574   H575    1.082   .     S
N576   C577    1.365   .     A
C577   H578    1.078   .     S
C579   N581    1.364   .     A
C579   H580    1.075   .     S
C579   C653    1.415   .     S
N582   O584    1.301   .     A
N582   O583    1.301   .     A
N585   O586    1.302   .     A
N585   O587    1.301   .     A
S588   O589    1.502   .     D
S588   O591    1.673   .     S
S588   O590    1.504   .     D
O591   H592    0.991   .     S
N593   O595    1.301   .     A
N593   O594    1.297   .     A
N596   O598    1.300   .     A
N596   O597    1.301   .     A
S599   O600    1.501   .     D
S599   O601    1.502   .     D
O602   H603    0.991   .     S
O602   S675    1.683   .     S
S604   O607    1.682   .     S
S604   O606    1.500   .     D
S604   O605    1.501   .     D
O607   H608    0.990   .     S
O609   C611    1.292   .     A
O609   Cu615   1.969   .     S
O610   Cu616   1.979   .     S
O610   C611    1.293   .     A
C611   C648    1.453   .     S
O612   Cu615   1.997   .     S
O612   C614    1.318   .     A
O613   C614    1.291   .     A
O613   Cu616   1.990   .     S
C614   C638    1.500   .     S
Cu615  Cu616   2.683   .     S
Cu615  O619    1.990   .     S
Cu615  N652    2.017   .     S
Cu615  O617    1.979   .     S
Cu616  O620    1.997   .     S
Cu616  O618    1.969   .     S
Cu616  N657    2.016   .     S
O617   C621    1.288   .     A
O618   C621    1.307   .     A
O619   C622    1.300   .     A
O620   C622    1.297   .     A
C621   C644    1.471   .     S
C622   C626    1.477   .     S
C623   C637    1.390   .     A
C623   H1309   1.083   1_554 S
C623   C1317   1.389   1_554 S
H624   C634    1.081   .     S
H625   C1307   1.083   .     S
C626   C636    1.418   .     A
C626   C637    1.422   .     A
C627   C628    1.390   .     A
C627   S675    1.765   .     S
C627   C638    1.422   .     A
C628   C1313   1.379   .     S
C628   H1324   1.076   .     S
C629   H639    1.077   .     S
C629   C1312   1.379   1_554 S
C629   C1314   1.399   1_554 S
C630   C631    1.420   .     A
C630   C1313   1.399   .     S
C630   C1316   1.421   .     S
C631   C635    1.420   .     A
C631   C638    1.444   .     A
C632   C636    1.413   .     A
C632   C1314   1.421   1_554 S
C632   C1317   1.407   1_554 S
C633   C634    1.384   .     A
C633   C1307   1.389   .     S
C633   C1316   1.407   .     S
C634   C635    1.383   .     A
C635   H641    1.071   .     S
C636   N672    1.439   .     S
C637   N658    1.435   .     S
H640   C1312   1.076   1_554 S
C642   C648    1.408   .     A
C642   S680    1.782   .     S
C642   C187    1.405   1_565 S
C643   N661    1.434   .     S
C643   C644    1.421   .     A
C644   C645    1.426   .     A
C645   S664    1.785   .     S
C646   C648    1.389   .     A
C646   H647    1.083   .     S
C646   C189    1.385   1_565 S
C649   N669    1.433   .     S
C649   N657    1.388   .     A
C649   C498    1.413   1_655 S
C650   N652    1.356   .     A
C650   H651    1.082   .     S
N652   C653    1.365   .     A
C653   H654    1.078   .     S
C655   N657    1.364   .     A
C655   H656    1.075   .     S
C655   C501    1.415   1_655 S
N658   O660    1.301   .     A
N658   O659    1.301   .     A
N661   O662    1.302   .     A
N661   O663    1.301   .     A
S664   O665    1.502   .     D
S664   O667    1.673   .     S
S664   O666    1.504   .     D
O667   H668    0.991   .     S
N669   O671    1.301   .     A
N669   O670    1.297   .     A
N672   O674    1.300   .     A
N672   O673    1.301   .     A
S675   O676    1.501   .     D
S675   O677    1.502   .     D
O678   H679    0.991   .     S
O678   S523    1.683   1_655 S
S680   O683    1.682   .     S
S680   O682    1.500   .     D
S680   O681    1.501   .     D
O683   H684    0.990   .     S
O685   C687    1.292   .     A
O685   Cu691   1.969   .     S
O686   Cu692   1.979   .     S
O686   C687    1.293   .     A
C687   C724    1.453   .     S
O688   Cu691   1.997   .     S
O688   C690    1.318   .     A
O689   C690    1.291   .     A
O689   Cu692   1.990   .     S
C690   C714    1.500   .     S
Cu691  Cu692   2.683   .     S
Cu691  O695    1.990   .     S
Cu691  N728    2.017   .     S
Cu691  O693    1.979   .     S
Cu692  O696    1.997   .     S
Cu692  O694    1.969   .     S
Cu692  N733    2.016   .     S
O693   C697    1.288   .     A
O694   C697    1.307   .     A
O695   C698    1.300   .     A
O696   C698    1.297   .     A
C697   C720    1.471   .     S
C698   C702    1.477   .     S
C699   C713    1.390   .     A
H700   C710    1.081   .     S
H701   C15     1.083   1_556 S
C702   C712    1.418   .     A
C702   C713    1.422   .     A
C703   C704    1.390   .     A
C703   S751    1.765   .     S
C703   C714    1.422   .     A
C704   C21     1.379   1_556 S
C704   H32     1.076   1_556 S
C705   H715    1.077   .     S
C706   C707    1.420   .     A
C706   C21     1.399   1_556 S
C706   C24     1.421   1_556 S
C707   C711    1.420   .     A
C707   C714    1.444   .     A
C708   C712    1.413   .     A
C709   C710    1.384   .     A
C709   C15     1.389   1_556 S
C709   C24     1.407   1_556 S
C710   C711    1.383   .     A
C711   H717    1.071   .     S
C712   N748    1.439   .     S
C713   N734    1.435   .     S
C718   C724    1.408   .     A
C718   S756    1.782   .     S
C718   C947    1.405   .     S
C719   N737    1.434   .     S
C719   C720    1.421   .     A
C719   C1174   1.405   1_545 S
C720   C721    1.426   .     A
C721   S740    1.785   .     S
C721   C1178   1.385   1_545 S
C722   C724    1.389   .     A
C722   H723    1.083   .     S
C722   C949    1.385   .     S
C725   N745    1.433   .     S
C725   N733    1.388   .     A
C725   C802    1.413   .     S
C726   N728    1.356   .     A
C726   H727    1.082   .     S
C726   C877    1.413   1_455 S
N728   C729    1.365   .     A
C729   H730    1.078   .     S
C729   C883    1.415   1_455 S
C731   N733    1.364   .     A
C731   H732    1.075   .     S
C731   C805    1.415   .     S
N734   O736    1.301   .     A
N734   O735    1.301   .     A
N737   O738    1.302   .     A
N737   O739    1.301   .     A
S740   O741    1.502   .     D
S740   O743    1.673   .     S
S740   O742    1.504   .     D
O743   H744    0.991   .     S
N745   O747    1.301   .     A
N745   O746    1.297   .     A
N748   O750    1.300   .     A
N748   O749    1.301   .     A
S751   O752    1.501   .     D
S751   O753    1.502   .     D
S751   O906    1.683   1_455 S
O754   H755    0.991   .     S
O754   S827    1.683   .     S
S756   O759    1.682   .     S
S756   O758    1.500   .     D
S756   O757    1.501   .     D
O759   H760    0.990   .     S
O761   C763    1.292   .     A
O761   Cu767   1.969   .     S
O762   Cu768   1.979   .     S
O762   C763    1.293   .     A
C763   C800    1.453   .     S
O764   Cu767   1.997   .     S
O764   C766    1.318   .     A
O765   C766    1.291   .     A
O765   Cu768   1.990   .     S
C766   C790    1.500   .     S
Cu767  Cu768   2.683   .     S
Cu767  O771    1.990   .     S
Cu767  N804    2.017   .     S
Cu767  O769    1.979   .     S
Cu768  O772    1.997   .     S
Cu768  O770    1.969   .     S
Cu768  N809    2.016   .     S
O769   C773    1.288   .     A
O770   C773    1.307   .     A
O771   C774    1.300   .     A
O772   C774    1.297   .     A
C773   C796    1.471   .     S
C774   C778    1.477   .     S
C775   C789    1.390   .     A
H776   C786    1.081   .     S
H777   C91     1.083   1_556 S
C778   C788    1.418   .     A
C778   C789    1.422   .     A
C779   C780    1.390   .     A
C779   S827    1.765   .     S
C779   C790    1.422   .     A
C780   C97     1.379   1_556 S
C780   H108    1.076   1_556 S
C781   H791    1.077   .     S
C782   C783    1.420   .     A
C782   C97     1.399   1_556 S
C782   C100    1.421   1_556 S
C783   C787    1.420   .     A
C783   C790    1.444   .     A
C784   C788    1.413   .     A
C785   C786    1.384   .     A
C785   C91     1.389   1_556 S
C785   C100    1.407   1_556 S
C786   C787    1.383   .     A
C787   H793    1.071   .     S
C788   N824    1.439   .     S
C789   N810    1.435   .     S
C794   C800    1.408   .     A
C794   S832    1.782   .     S
C794   C1023   1.405   .     S
C795   N813    1.434   .     S
C795   C796    1.421   .     A
C795   C1250   1.405   1_545 S
C796   C797    1.426   .     A
C797   S816    1.785   .     S
C797   C1254   1.385   1_545 S
C798   C800    1.389   .     A
C798   H799    1.083   .     S
C798   C1025   1.385   .     S
C801   N821    1.433   .     S
C801   N809    1.388   .     A
C801   C878    1.413   .     S
C802   N804    1.356   .     A
C802   H803    1.082   .     S
N804   C805    1.365   .     A
C805   H806    1.078   .     S
C807   N809    1.364   .     A
C807   H808    1.075   .     S
C807   C881    1.415   .     S
N810   O812    1.301   .     A
N810   O811    1.301   .     A
N813   O814    1.302   .     A
N813   O815    1.301   .     A
S816   O817    1.502   .     D
S816   O819    1.673   .     S
S816   O818    1.504   .     D
O819   H820    0.991   .     S
N821   O823    1.301   .     A
N821   O822    1.297   .     A
N824   O826    1.300   .     A
N824   O825    1.301   .     A
S827   O828    1.501   .     D
S827   O829    1.502   .     D
O830   H831    0.991   .     S
O830   S903    1.683   .     S
S832   O835    1.682   .     S
S832   O834    1.500   .     D
S832   O833    1.501   .     D
O835   H836    0.990   .     S
O837   C839    1.292   .     A
O837   Cu843   1.969   .     S
O838   Cu844   1.979   .     S
O838   C839    1.293   .     A
C839   C876    1.453   .     S
O840   Cu843   1.997   .     S
O840   C842    1.318   .     A
O841   C842    1.291   .     A
O841   Cu844   1.990   .     S
C842   C866    1.500   .     S
Cu843  Cu844   2.683   .     S
Cu843  O847    1.990   .     S
Cu843  N880    2.017   .     S
Cu843  O845    1.979   .     S
Cu844  O848    1.997   .     S
Cu844  O846    1.969   .     S
Cu844  N885    2.016   .     S
O845   C849    1.288   .     A
O846   C849    1.307   .     A
O847   C850    1.300   .     A
O848   C850    1.297   .     A
C849   C872    1.471   .     S
C850   C854    1.477   .     S
C851   C865    1.390   .     A
H852   C862    1.081   .     S
H853   C167    1.083   1_556 S
C854   C864    1.418   .     A
C854   C865    1.422   .     A
C855   C856    1.390   .     A
C855   S903    1.765   .     S
C855   C866    1.422   .     A
C856   C173    1.379   1_556 S
C856   H184    1.076   1_556 S
C857   H867    1.077   .     S
C858   C859    1.420   .     A
C858   C173    1.399   1_556 S
C858   C176    1.421   1_556 S
C859   C863    1.420   .     A
C859   C866    1.444   .     A
C860   C864    1.413   .     A
C861   C862    1.384   .     A
C861   C167    1.389   1_556 S
C861   C176    1.407   1_556 S
C862   C863    1.383   .     A
C863   H869    1.071   .     S
C864   N900    1.439   .     S
C865   N886    1.435   .     S
C870   C876    1.408   .     A
C870   S908    1.782   .     S
C870   C1099   1.405   .     S
C871   N889    1.434   .     S
C871   C872    1.421   .     A
C871   C1326   1.405   1_545 S
C872   C873    1.426   .     A
C873   S892    1.785   .     S
C873   C1330   1.385   1_545 S
C874   C876    1.389   .     A
C874   H875    1.083   .     S
C874   C1101   1.385   .     S
C877   N897    1.433   .     S
C877   N885    1.388   .     A
C877   C726    1.413   1_655 S
C878   N880    1.356   .     A
C878   H879    1.082   .     S
N880   C881    1.365   .     A
C881   H882    1.078   .     S
C883   N885    1.364   .     A
C883   H884    1.075   .     S
C883   C729    1.415   1_655 S
N886   O888    1.301   .     A
N886   O887    1.301   .     A
N889   O890    1.302   .     A
N889   O891    1.301   .     A
S892   O893    1.502   .     D
S892   O895    1.673   .     S
S892   O894    1.504   .     D
O895   H896    0.991   .     S
N897   O899    1.301   .     A
N897   O898    1.297   .     A
N900   O902    1.300   .     A
N900   O901    1.301   .     A
S903   O904    1.501   .     D
S903   O905    1.502   .     D
O906   H907    0.991   .     S
O906   S751    1.683   1_655 S
S908   O911    1.682   .     S
S908   O910    1.500   .     D
S908   O909    1.501   .     D
O911   H912    0.990   .     S
O913   C915    1.292   .     A
O913   Cu919   1.969   .     S
O914   Cu920   1.979   .     S
O914   C915    1.293   .     A
C915   C952    1.453   .     S
O916   Cu919   1.997   .     S
O916   C918    1.318   .     A
O917   C918    1.291   .     A
O917   Cu920   1.990   .     S
C918   C942    1.500   .     S
Cu919  Cu920   2.683   .     S
Cu919  O923    1.990   .     S
Cu919  N956    2.017   .     S
Cu919  O921    1.979   .     S
Cu920  O924    1.997   .     S
Cu920  O922    1.969   .     S
Cu920  N961    2.016   .     S
O921   C925    1.288   .     A
O922   C925    1.307   .     A
O923   C926    1.300   .     A
O924   C926    1.297   .     A
C925   C948    1.471   .     S
C926   C930    1.477   .     S
C927   C941    1.390   .     A
H928   C938    1.081   .     S
H929   C243    1.083   1_556 S
C930   C940    1.418   .     A
C930   C941    1.422   .     A
C931   C932    1.390   .     A
C931   S979    1.765   .     S
C931   C942    1.422   .     A
C932   C249    1.379   1_556 S
C932   H260    1.076   1_556 S
C933   H943    1.077   .     S
C934   C935    1.420   .     A
C934   C249    1.399   1_556 S
C934   C252    1.421   1_556 S
C935   C939    1.420   .     A
C935   C942    1.444   .     A
C936   C940    1.413   .     A
C937   C938    1.384   .     A
C937   C243    1.389   1_556 S
C937   C252    1.407   1_556 S
C938   C939    1.383   .     A
C939   H945    1.071   .     S
C940   N976    1.439   .     S
C941   N962    1.435   .     S
C946   C952    1.408   .     A
C946   S984    1.782   .     S
C946   C1175   1.405   .     S
C947   N965    1.434   .     S
C947   C948    1.421   .     A
C948   C949    1.426   .     A
C949   S968    1.785   .     S
C950   C952    1.389   .     A
C950   H951    1.083   .     S
C950   C1177   1.385   .     S
C953   N973    1.433   .     S
C953   N961    1.388   .     A
C953   C1030   1.413   .     S
C954   N956    1.356   .     A
C954   H955    1.082   .     S
C954   C1105   1.413   1_455 S
N956   C957    1.365   .     A
C957   H958    1.078   .     S
C957   C1111   1.415   1_455 S
C959   N961    1.364   .     A
C959   H960    1.075   .     S
C959   C1033   1.415   .     S
N962   O964    1.301   .     A
N962   O963    1.301   .     A
N965   O966    1.302   .     A
N965   O967    1.301   .     A
S968   O969    1.502   .     D
S968   O971    1.673   .     S
S968   O970    1.504   .     D
O971   H972    0.991   .     S
N973   O975    1.301   .     A
N973   O974    1.297   .     A
N976   O978    1.300   .     A
N976   O977    1.301   .     A
S979   O980    1.501   .     D
S979   O981    1.502   .     D
S979   O1134   1.683   1_455 S
O982   H983    0.991   .     S
O982   S1055   1.683   .     S
S984   O987    1.682   .     S
S984   O986    1.500   .     D
S984   O985    1.501   .     D
O987   H988    0.990   .     S
O989   C991    1.292   .     A
O989   Cu995   1.969   .     S
O990   Cu996   1.979   .     S
O990   C991    1.293   .     A
C991   C1028   1.453   .     S
O992   Cu995   1.997   .     S
O992   C994    1.318   .     A
O993   C994    1.291   .     A
O993   Cu996   1.990   .     S
C994   C1018   1.500   .     S
Cu995  Cu996   2.683   .     S
Cu995  O999    1.990   .     S
Cu995  N1032   2.017   .     S
Cu995  O997    1.979   .     S
Cu996  O1000   1.997   .     S
Cu996  O998    1.969   .     S
Cu996  N1037   2.016   .     S
O997   C1001   1.288   .     A
O998   C1001   1.307   .     A
O999   C1002   1.300   .     A
O1000  C1002   1.297   .     A
C1001  C1024   1.471   .     S
C1002  C1006   1.477   .     S
C1003  C1017   1.390   .     A
H1004  C1014   1.081   .     S
H1005  C319    1.083   1_556 S
C1006  C1016   1.418   .     A
C1006  C1017   1.422   .     A
C1007  C1008   1.390   .     A
C1007  S1055   1.765   .     S
C1007  C1018   1.422   .     A
C1008  C325    1.379   1_556 S
C1008  H336    1.076   1_556 S
C1009  H1019   1.077   .     S
C1010  C1011   1.420   .     A
C1010  C325    1.399   1_556 S
C1010  C328    1.421   1_556 S
C1011  C1015   1.420   .     A
C1011  C1018   1.444   .     A
C1012  C1016   1.413   .     A
C1013  C1014   1.384   .     A
C1013  C319    1.389   1_556 S
C1013  C328    1.407   1_556 S
C1014  C1015   1.383   .     A
C1015  H1021   1.071   .     S
C1016  N1052   1.439   .     S
C1017  N1038   1.435   .     S
C1022  C1028   1.408   .     A
C1022  S1060   1.782   .     S
C1022  C1251   1.405   .     S
C1023  N1041   1.434   .     S
C1023  C1024   1.421   .     A
C1024  C1025   1.426   .     A
C1025  S1044   1.785   .     S
C1026  C1028   1.389   .     A
C1026  H1027   1.083   .     S
C1026  C1253   1.385   .     S
C1029  N1049   1.433   .     S
C1029  N1037   1.388   .     A
C1029  C1106   1.413   .     S
C1030  N1032   1.356   .     A
C1030  H1031   1.082   .     S
N1032  C1033   1.365   .     A
C1033  H1034   1.078   .     S
C1035  N1037   1.364   .     A
C1035  H1036   1.075   .     S
C1035  C1109   1.415   .     S
N1038  O1040   1.301   .     A
N1038  O1039   1.301   .     A
N1041  O1042   1.302   .     A
N1041  O1043   1.301   .     A
S1044  O1045   1.502   .     D
S1044  O1047   1.673   .     S
S1044  O1046   1.504   .     D
O1047  H1048   0.991   .     S
N1049  O1051   1.301   .     A
N1049  O1050   1.297   .     A
N1052  O1054   1.300   .     A
N1052  O1053   1.301   .     A
S1055  O1056   1.501   .     D
S1055  O1057   1.502   .     D
O1058  H1059   0.991   .     S
O1058  S1131   1.683   .     S
S1060  O1063   1.682   .     S
S1060  O1062   1.500   .     D
S1060  O1061   1.501   .     D
O1063  H1064   0.990   .     S
O1065  C1067   1.292   .     A
O1065  Cu1071  1.969   .     S
O1066  Cu1072  1.979   .     S
O1066  C1067   1.293   .     A
C1067  C1104   1.453   .     S
O1068  Cu1071  1.997   .     S
O1068  C1070   1.318   .     A
O1069  C1070   1.291   .     A
O1069  Cu1072  1.990   .     S
C1070  C1094   1.500   .     S
Cu1071 Cu1072  2.683   .     S
Cu1071 O1075   1.990   .     S
Cu1071 N1108   2.017   .     S
Cu1071 O1073   1.979   .     S
Cu1072 O1076   1.997   .     S
Cu1072 O1074   1.969   .     S
Cu1072 N1113   2.016   .     S
O1073  C1077   1.288   .     A
O1074  C1077   1.307   .     A
O1075  C1078   1.300   .     A
O1076  C1078   1.297   .     A
C1077  C1100   1.471   .     S
C1078  C1082   1.477   .     S
C1079  C1093   1.390   .     A
H1080  C1090   1.081   .     S
H1081  C395    1.083   1_556 S
C1082  C1092   1.418   .     A
C1082  C1093   1.422   .     A
C1083  C1084   1.390   .     A
C1083  S1131   1.765   .     S
C1083  C1094   1.422   .     A
C1084  C401    1.379   1_556 S
C1084  H412    1.076   1_556 S
C1085  H1095   1.077   .     S
C1086  C1087   1.420   .     A
C1086  C401    1.399   1_556 S
C1086  C404    1.421   1_556 S
C1087  C1091   1.420   .     A
C1087  C1094   1.444   .     A
C1088  C1092   1.413   .     A
C1089  C1090   1.384   .     A
C1089  C395    1.389   1_556 S
C1089  C404    1.407   1_556 S
C1090  C1091   1.383   .     A
C1091  H1097   1.071   .     S
C1092  N1128   1.439   .     S
C1093  N1114   1.435   .     S
C1098  C1104   1.408   .     A
C1098  S1136   1.782   .     S
C1098  C1327   1.405   .     S
C1099  N1117   1.434   .     S
C1099  C1100   1.421   .     A
C1100  C1101   1.426   .     A
C1101  S1120   1.785   .     S
C1102  C1104   1.389   .     A
C1102  H1103   1.083   .     S
C1102  C1329   1.385   .     S
C1105  N1125   1.433   .     S
C1105  N1113   1.388   .     A
C1105  C954    1.413   1_655 S
C1106  N1108   1.356   .     A
C1106  H1107   1.082   .     S
N1108  C1109   1.365   .     A
C1109  H1110   1.078   .     S
C1111  N1113   1.364   .     A
C1111  H1112   1.075   .     S
C1111  C957    1.415   1_655 S
N1114  O1116   1.301   .     A
N1114  O1115   1.301   .     A
N1117  O1118   1.302   .     A
N1117  O1119   1.301   .     A
S1120  O1121   1.502   .     D
S1120  O1123   1.673   .     S
S1120  O1122   1.504   .     D
O1123  H1124   0.991   .     S
N1125  O1127   1.301   .     A
N1125  O1126   1.297   .     A
N1128  O1130   1.300   .     A
N1128  O1129   1.301   .     A
S1131  O1132   1.501   .     D
S1131  O1133   1.502   .     D
O1134  H1135   0.991   .     S
O1134  S979    1.683   1_655 S
S1136  O1139   1.682   .     S
S1136  O1138   1.500   .     D
S1136  O1137   1.501   .     D
O1139  H1140   0.990   .     S
O1141  C1143   1.292   .     A
O1141  Cu1147  1.969   .     S
O1142  Cu1148  1.979   .     S
O1142  C1143   1.293   .     A
C1143  C1180   1.453   .     S
O1144  Cu1147  1.997   .     S
O1144  C1146   1.318   .     A
O1145  C1146   1.291   .     A
O1145  Cu1148  1.990   .     S
C1146  C1170   1.500   .     S
Cu1147 Cu1148  2.683   .     S
Cu1147 O1151   1.990   .     S
Cu1147 N1184   2.017   .     S
Cu1147 O1149   1.979   .     S
Cu1148 O1152   1.997   .     S
Cu1148 O1150   1.969   .     S
Cu1148 N1189   2.016   .     S
O1149  C1153   1.288   .     A
O1150  C1153   1.307   .     A
O1151  C1154   1.300   .     A
O1152  C1154   1.297   .     A
C1153  C1176   1.471   .     S
C1154  C1158   1.477   .     S
C1155  C1169   1.390   .     A
H1156  C1166   1.081   .     S
H1157  C471    1.083   1_556 S
C1158  C1168   1.418   .     A
C1158  C1169   1.422   .     A
C1159  C1160   1.390   .     A
C1159  S1207   1.765   .     S
C1159  C1170   1.422   .     A
C1160  C477    1.379   1_556 S
C1160  H488    1.076   1_556 S
C1161  H1171   1.077   .     S
C1162  C1163   1.420   .     A
C1162  C477    1.399   1_556 S
C1162  C480    1.421   1_556 S
C1163  C1167   1.420   .     A
C1163  C1170   1.444   .     A
C1164  C1168   1.413   .     A
C1165  C1166   1.384   .     A
C1165  C471    1.389   1_556 S
C1165  C480    1.407   1_556 S
C1166  C1167   1.383   .     A
C1167  H1173   1.071   .     S
C1168  N1204   1.439   .     S
C1169  N1190   1.435   .     S
C1174  C1180   1.408   .     A
C1174  S1212   1.782   .     S
C1174  C719    1.405   1_565 S
C1175  N1193   1.434   .     S
C1175  C1176   1.421   .     A
C1176  C1177   1.426   .     A
C1177  S1196   1.785   .     S
C1178  C1180   1.389   .     A
C1178  H1179   1.083   .     S
C1178  C721    1.385   1_565 S
C1181  N1201   1.433   .     S
C1181  N1189   1.388   .     A
C1181  C1258   1.413   .     S
C1182  N1184   1.356   .     A
C1182  H1183   1.082   .     S
C1182  C1333   1.413   1_455 S
N1184  C1185   1.365   .     A
C1185  H1186   1.078   .     S
C1185  C1339   1.415   1_455 S
C1187  N1189   1.364   .     A
C1187  H1188   1.075   .     S
C1187  C1261   1.415   .     S
N1190  O1192   1.301   .     A
N1190  O1191   1.301   .     A
N1193  O1194   1.302   .     A
N1193  O1195   1.301   .     A
S1196  O1197   1.502   .     D
S1196  O1199   1.673   .     S
S1196  O1198   1.504   .     D
O1199  H1200   0.991   .     S
N1201  O1203   1.301   .     A
N1201  O1202   1.297   .     A
N1204  O1206   1.300   .     A
N1204  O1205   1.301   .     A
S1207  O1208   1.501   .     D
S1207  O1209   1.502   .     D
S1207  O1362   1.683   1_455 S
O1210  H1211   0.991   .     S
O1210  S1283   1.683   .     S
S1212  O1215   1.682   .     S
S1212  O1214   1.500   .     D
S1212  O1213   1.501   .     D
O1215  H1216   0.990   .     S
O1217  C1219   1.292   .     A
O1217  Cu1223  1.969   .     S
O1218  Cu1224  1.979   .     S
O1218  C1219   1.293   .     A
C1219  C1256   1.453   .     S
O1220  Cu1223  1.997   .     S
O1220  C1222   1.318   .     A
O1221  C1222   1.291   .     A
O1221  Cu1224  1.990   .     S
C1222  C1246   1.500   .     S
Cu1223 Cu1224  2.683   .     S
Cu1223 O1227   1.990   .     S
Cu1223 N1260   2.017   .     S
Cu1223 O1225   1.979   .     S
Cu1224 O1228   1.997   .     S
Cu1224 O1226   1.969   .     S
Cu1224 N1265   2.016   .     S
O1225  C1229   1.288   .     A
O1226  C1229   1.307   .     A
O1227  C1230   1.300   .     A
O1228  C1230   1.297   .     A
C1229  C1252   1.471   .     S
C1230  C1234   1.477   .     S
C1231  C1245   1.390   .     A
H1232  C1242   1.081   .     S
H1233  C547    1.083   1_556 S
C1234  C1244   1.418   .     A
C1234  C1245   1.422   .     A
C1235  C1236   1.390   .     A
C1235  S1283   1.765   .     S
C1235  C1246   1.422   .     A
C1236  C553    1.379   1_556 S
C1236  H564    1.076   1_556 S
C1237  H1247   1.077   .     S
C1238  C1239   1.420   .     A
C1238  C553    1.399   1_556 S
C1238  C556    1.421   1_556 S
C1239  C1243   1.420   .     A
C1239  C1246   1.444   .     A
C1240  C1244   1.413   .     A
C1241  C1242   1.384   .     A
C1241  C547    1.389   1_556 S
C1241  C556    1.407   1_556 S
C1242  C1243   1.383   .     A
C1243  H1249   1.071   .     S
C1244  N1280   1.439   .     S
C1245  N1266   1.435   .     S
C1250  C1256   1.408   .     A
C1250  S1288   1.782   .     S
C1250  C795    1.405   1_565 S
C1251  N1269   1.434   .     S
C1251  C1252   1.421   .     A
C1252  C1253   1.426   .     A
C1253  S1272   1.785   .     S
C1254  C1256   1.389   .     A
C1254  H1255   1.083   .     S
C1254  C797    1.385   1_565 S
C1257  N1277   1.433   .     S
C1257  N1265   1.388   .     A
C1257  C1334   1.413   .     S
C1258  N1260   1.356   .     A
C1258  H1259   1.082   .     S
N1260  C1261   1.365   .     A
C1261  H1262   1.078   .     S
C1263  N1265   1.364   .     A
C1263  H1264   1.075   .     S
C1263  C1337   1.415   .     S
N1266  O1268   1.301   .     A
N1266  O1267   1.301   .     A
N1269  O1270   1.302   .     A
N1269  O1271   1.301   .     A
S1272  O1273   1.502   .     D
S1272  O1275   1.673   .     S
S1272  O1274   1.504   .     D
O1275  H1276   0.991   .     S
N1277  O1279   1.301   .     A
N1277  O1278   1.297   .     A
N1280  O1282   1.300   .     A
N1280  O1281   1.301   .     A
S1283  O1284   1.501   .     D
S1283  O1285   1.502   .     D
O1286  H1287   0.991   .     S
O1286  S1359   1.683   .     S
S1288  O1291   1.682   .     S
S1288  O1290   1.500   .     D
S1288  O1289   1.501   .     D
O1291  H1292   0.990   .     S
O1293  C1295   1.292   .     A
O1293  Cu1299  1.969   .     S
O1294  Cu1300  1.979   .     S
O1294  C1295   1.293   .     A
C1295  C1332   1.453   .     S
O1296  Cu1299  1.997   .     S
O1296  C1298   1.318   .     A
O1297  C1298   1.291   .     A
O1297  Cu1300  1.990   .     S
C1298  C1322   1.500   .     S
Cu1299 Cu1300  2.683   .     S
Cu1299 O1303   1.990   .     S
Cu1299 N1336   2.017   .     S
Cu1299 O1301   1.979   .     S
Cu1300 O1304   1.997   .     S
Cu1300 O1302   1.969   .     S
Cu1300 N1341   2.016   .     S
O1301  C1305   1.288   .     A
O1302  C1305   1.307   .     A
O1303  C1306   1.300   .     A
O1304  C1306   1.297   .     A
C1305  C1328   1.471   .     S
C1306  C1310   1.477   .     S
C1307  C1321   1.390   .     A
H1308  C1318   1.081   .     S
H1309  C623    1.083   1_556 S
C1310  C1320   1.418   .     A
C1310  C1321   1.422   .     A
C1311  C1312   1.390   .     A
C1311  S1359   1.765   .     S
C1311  C1322   1.422   .     A
C1312  C629    1.379   1_556 S
C1312  H640    1.076   1_556 S
C1313  H1323   1.077   .     S
C1314  C1315   1.420   .     A
C1314  C629    1.399   1_556 S
C1314  C632    1.421   1_556 S
C1315  C1319   1.420   .     A
C1315  C1322   1.444   .     A
C1316  C1320   1.413   .     A
C1317  C1318   1.384   .     A
C1317  C623    1.389   1_556 S
C1317  C632    1.407   1_556 S
C1318  C1319   1.383   .     A
C1319  H1325   1.071   .     S
C1320  N1356   1.439   .     S
C1321  N1342   1.435   .     S
C1326  C1332   1.408   .     A
C1326  S1364   1.782   .     S
C1326  C871    1.405   1_565 S
C1327  N1345   1.434   .     S
C1327  C1328   1.421   .     A
C1328  C1329   1.426   .     A
C1329  S1348   1.785   .     S
C1330  C1332   1.389   .     A
C1330  H1331   1.083   .     S
C1330  C873    1.385   1_565 S
C1333  N1353   1.433   .     S
C1333  N1341   1.388   .     A
C1333  C1182   1.413   1_655 S
C1334  N1336   1.356   .     A
C1334  H1335   1.082   .     S
N1336  C1337   1.365   .     A
C1337  H1338   1.078   .     S
C1339  N1341   1.364   .     A
C1339  H1340   1.075   .     S
C1339  C1185   1.415   1_655 S
N1342  O1344   1.301   .     A
N1342  O1343   1.301   .     A
N1345  O1346   1.302   .     A
N1345  O1347   1.301   .     A
S1348  O1349   1.502   .     D
S1348  O1351   1.673   .     S
S1348  O1350   1.504   .     D
O1351  H1352   0.991   .     S
N1353  O1355   1.301   .     A
N1353  O1354   1.297   .     A
N1356  O1358   1.300   .     A
N1356  O1357   1.301   .     A
S1359  O1360   1.501   .     D
S1359  O1361   1.502   .     D
O1362  H1363   0.991   .     S
O1362  S1207   1.683   1_655 S
S1364  O1367   1.682   .     S
S1364  O1366   1.500   .     D
S1364  O1365   1.501   .     D
O1367  H1368   0.990   .     S
