data_str_m1_o1_o17_pcu_sym.16
_audit_creation_date              2020-01-03
_audit_creation_method            'Materials Studio'
_symmetry_space_group_name_H-M    'P1'
_symmetry_Int_Tables_number       1
_symmetry_cell_setting            triclinic
loop_
_symmetry_equiv_pos_as_xyz
  x,y,z
_cell_length_a                    36.8637
_cell_length_b                    36.8659
_cell_length_c                    34.3007
_cell_angle_alpha                 90.0003
_cell_angle_beta                  90.0002
_cell_angle_gamma                 89.8729
loop_
_atom_site_label
_atom_site_type_symbol
_atom_site_fract_x
_atom_site_fract_y
_atom_site_fract_z
_atom_site_U_iso_or_equiv
_atom_site_adp_type
_atom_site_occupancy
Zn1    Zn    0.20660  -0.00000   0.21735   0.00000  Uiso   1.00
Zn2    Zn    0.29341  -0.00000   0.78265   0.00000  Uiso   1.00
Zn3    Zn    0.00000   0.20659   0.21735   0.00000  Uiso   1.00
Zn4    Zn    0.00000   0.29340   0.78265   0.00000  Uiso   1.00
Zn5    Zn    0.29341  -0.00000   0.21735   0.00000  Uiso   1.00
Zn6    Zn    0.20660  -0.00000   0.78265   0.00000  Uiso   1.00
Zn7    Zn    0.00000   0.29340   0.21735   0.00000  Uiso   1.00
Zn8    Zn    0.00000   0.20659   0.78265   0.00000  Uiso   1.00
Zn9    Zn    0.45660   0.25000   0.71735   0.00000  Uiso   1.00
Zn10   Zn    0.04341   0.25000   0.28265   0.00000  Uiso   1.00
Zn11   Zn    0.25000   0.45659   0.71735   0.00000  Uiso   1.00
Zn12   Zn    0.25000   0.04340   0.28265   0.00000  Uiso   1.00
Zn13   Zn    0.04341   0.25000   0.71735   0.00000  Uiso   1.00
Zn14   Zn    0.45660   0.25000   0.28265   0.00000  Uiso   1.00
Zn15   Zn    0.25000   0.04340   0.71735   0.00000  Uiso   1.00
Zn16   Zn    0.25000   0.45659   0.28265   0.00000  Uiso   1.00
C17    C     0.48866   0.28121   0.41794   0.00000  Uiso   1.00
C18    C     0.01511   0.22034   0.58183   0.00000  Uiso   1.00
C19    C     0.22030   0.01505   0.41817   0.00000  Uiso   1.00
C20    C     0.28124   0.48875   0.58206   0.00000  Uiso   1.00
C21    C     0.01134   0.21879   0.41794   0.00000  Uiso   1.00
C22    C     0.48489   0.27966   0.58183   0.00000  Uiso   1.00
C23    C     0.27970   0.48495   0.41817   0.00000  Uiso   1.00
C24    C     0.21876   0.01125   0.58206   0.00000  Uiso   1.00
C25    C     0.23906   0.03135   0.91795   0.00000  Uiso   1.00
C26    C     0.26484   0.47020   0.08183   0.00000  Uiso   1.00
C27    C     0.46988   0.26417   0.91816   0.00000  Uiso   1.00
C28    C     0.03165   0.23996   0.08204   0.00000  Uiso   1.00
C29    C     0.26094   0.46865   0.91795   0.00000  Uiso   1.00
C30    C     0.23516   0.02980   0.08183   0.00000  Uiso   1.00
C31    C     0.03012   0.23584   0.91816   0.00000  Uiso   1.00
C32    C     0.46836   0.26006   0.08205   0.00000  Uiso   1.00
C33    C     0.00000   0.25000   0.39791   0.00000  Uiso   1.00
C34    C     0.00000   0.25000   0.60190   0.00000  Uiso   1.00
C35    C     0.25000   0.00000   0.39810   0.00000  Uiso   1.00
C36    C     0.25000  -0.00000   0.60209   0.00000  Uiso   1.00
C37    C     0.25000  -0.00000   0.89791   0.00000  Uiso   1.00
C38    C     0.25000  -0.00000   0.10190   0.00000  Uiso   1.00
C39    C    -0.00000   0.25000   0.89809   0.00000  Uiso   1.00
C40    C     0.00000   0.25000   0.10208   0.00000  Uiso   1.00
O41    O     0.25000  -0.00000   0.25000   0.00000  Uiso   1.00
O42    O     0.25000  -0.00000   0.75000   0.00000  Uiso   1.00
O43    O     0.00000   0.25000   0.25000   0.00000  Uiso   1.00
O44    O     0.00000   0.25000   0.75000   0.00000  Uiso   1.00
O45    O     0.25000   0.46963   0.33755   0.00000  Uiso   1.00
O46    O     0.25000   0.03036   0.66245   0.00000  Uiso   1.00
O47    O     0.03037   0.25000   0.33755   0.00000  Uiso   1.00
O48    O     0.46964   0.25000   0.66245   0.00000  Uiso   1.00
O49    O     0.25000   0.03036   0.33755   0.00000  Uiso   1.00
O50    O     0.25000   0.46963   0.66245   0.00000  Uiso   1.00
O51    O     0.46964   0.25000   0.33755   0.00000  Uiso   1.00
O52    O     0.03037   0.25000   0.66245   0.00000  Uiso   1.00
O53    O     0.00000   0.21963   0.83755   0.00000  Uiso   1.00
O54    O     0.00000   0.28036   0.16245   0.00000  Uiso   1.00
O55    O     0.28037  -0.00000   0.83755   0.00000  Uiso   1.00
O56    O     0.21964  -0.00000   0.16245   0.00000  Uiso   1.00
O57    O     0.00000   0.28036   0.83755   0.00000  Uiso   1.00
O58    O     0.00000   0.21963   0.16245   0.00000  Uiso   1.00
O59    O     0.21964  -0.00000   0.83755   0.00000  Uiso   1.00
O60    O     0.28037  -0.00000   0.16245   0.00000  Uiso   1.00
H61    H     0.03471   0.16479   0.46463   0.00000  Uiso   1.00
H62    H     0.46509   0.33517   0.53497   0.00000  Uiso   1.00
H63    H     0.33526   0.46529   0.46503   0.00000  Uiso   1.00
H64    H     0.16470   0.03448   0.53537   0.00000  Uiso   1.00
H65    H     0.46529   0.33521   0.46463   0.00000  Uiso   1.00
H66    H     0.03491   0.16483   0.53497   0.00000  Uiso   1.00
H67    H     0.16475   0.03471   0.46503   0.00000  Uiso   1.00
H68    H     0.33530   0.46552   0.53537   0.00000  Uiso   1.00
H69    H     0.28373   0.41440   0.96463   0.00000  Uiso   1.00
H70    H     0.21596   0.08551   0.03498   0.00000  Uiso   1.00
H71    H     0.08629   0.21798   0.96499   0.00000  Uiso   1.00
H72    H     0.41357   0.28154   0.03536   0.00000  Uiso   1.00
H73    H     0.21628   0.08560   0.96463   0.00000  Uiso   1.00
H74    H     0.28405   0.41449   0.03498   0.00000  Uiso   1.00
H75    H     0.41372   0.28205   0.96499   0.00000  Uiso   1.00
H76    H     0.08644   0.21850   0.03536   0.00000  Uiso   1.00
O77    O     0.20725   0.07307   0.27302   0.00000  Uiso   1.00
O78    O     0.29276   0.42692   0.72698   0.00000  Uiso   1.00
O79    O     0.42693   0.20724   0.27302   0.00000  Uiso   1.00
O80    O     0.07308   0.29275   0.72698   0.00000  Uiso   1.00
O81    O     0.29276   0.42692   0.27302   0.00000  Uiso   1.00
O82    O     0.20725   0.07307   0.72698   0.00000  Uiso   1.00
O83    O     0.07308   0.29275   0.27302   0.00000  Uiso   1.00
O84    O     0.42693   0.20724   0.72698   0.00000  Uiso   1.00
O85    O     0.20725   0.42692   0.72698   0.00000  Uiso   1.00
O86    O     0.29276   0.07307   0.27302   0.00000  Uiso   1.00
O87    O     0.42693   0.29275   0.72698   0.00000  Uiso   1.00
O88    O     0.07308   0.20724   0.27302   0.00000  Uiso   1.00
O89    O     0.29276   0.07307   0.72698   0.00000  Uiso   1.00
O90    O     0.20725   0.42692   0.27302   0.00000  Uiso   1.00
O91    O     0.07308   0.20724   0.72698   0.00000  Uiso   1.00
O92    O     0.42693   0.29275   0.27302   0.00000  Uiso   1.00
O93    O     0.45725   0.32307   0.77302   0.00000  Uiso   1.00
O94    O     0.04276   0.17692   0.22698   0.00000  Uiso   1.00
O95    O     0.17693   0.45724   0.77302   0.00000  Uiso   1.00
O96    O     0.32308   0.04275   0.22698   0.00000  Uiso   1.00
O97    O     0.04276   0.17692   0.77302   0.00000  Uiso   1.00
O98    O     0.45725   0.32307   0.22698   0.00000  Uiso   1.00
O99    O     0.32308   0.04275   0.77302   0.00000  Uiso   1.00
O100   O     0.17693   0.45724   0.22698   0.00000  Uiso   1.00
O101   O     0.45725   0.17692   0.22698   0.00000  Uiso   1.00
O102   O     0.04276   0.32307   0.77302   0.00000  Uiso   1.00
O103   O     0.17693   0.04275   0.22698   0.00000  Uiso   1.00
O104   O     0.32308   0.45724   0.77302   0.00000  Uiso   1.00
O105   O     0.04276   0.32307   0.22698   0.00000  Uiso   1.00
O106   O     0.45725   0.17692   0.77302   0.00000  Uiso   1.00
O107   O     0.32308   0.45724   0.22698   0.00000  Uiso   1.00
O108   O     0.17693   0.04275   0.77302   0.00000  Uiso   1.00
C109   C     0.02502   0.18880   0.47960   0.00000  Uiso   1.00
C110   C     0.47460   0.31105   0.52010   0.00000  Uiso   1.00
C111   C     0.31112   0.47475   0.47989   0.00000  Uiso   1.00
C112   C     0.18873   0.02486   0.52040   0.00000  Uiso   1.00
C113   C     0.47498   0.31120   0.47960   0.00000  Uiso   1.00
C114   C     0.02540   0.18895   0.52010   0.00000  Uiso   1.00
C115   C     0.18888   0.02525   0.47990   0.00000  Uiso   1.00
C116   C     0.31127   0.47514   0.52040   0.00000  Uiso   1.00
C117   C     0.27433   0.43852   0.97960   0.00000  Uiso   1.00
C118   C     0.22524   0.06131   0.02011   0.00000  Uiso   1.00
C119   C     0.06189   0.22672   0.97988   0.00000  Uiso   1.00
C120   C     0.43793   0.27277   0.02039   0.00000  Uiso   1.00
C121   C     0.22568   0.06148   0.97960   0.00000  Uiso   1.00
C122   C     0.27477   0.43869   0.02011   0.00000  Uiso   1.00
C123   C     0.43812   0.27330   0.97988   0.00000  Uiso   1.00
C124   C     0.06208   0.22726   0.02039   0.00000  Uiso   1.00
C125   C     0.25000  -0.00000   0.35575   0.00000  Uiso   1.00
C126   C     0.25000  -0.00000   0.64432   0.00000  Uiso   1.00
C127   C     0.00000   0.25000   0.35568   0.00000  Uiso   1.00
C128   C     0.00000   0.25000   0.64425   0.00000  Uiso   1.00
C129   C    -0.00000   0.25000   0.85575   0.00000  Uiso   1.00
C130   C     0.00000   0.25000   0.14432   0.00000  Uiso   1.00
C131   C     0.25000  -0.00000   0.85568   0.00000  Uiso   1.00
C132   C     0.25000  -0.00000   0.14425   0.00000  Uiso   1.00
C133   C     0.18005   0.06995   0.25000   0.00000  Uiso   1.00
C134   C     0.32007   0.42993   0.75000   0.00000  Uiso   1.00
C135   C     0.42998   0.17998   0.25000   0.00000  Uiso   1.00
C136   C     0.07003   0.32003   0.75000   0.00000  Uiso   1.00
C137   C     0.31995   0.43005   0.25000   0.00000  Uiso   1.00
C138   C     0.17993   0.07007   0.75000   0.00000  Uiso   1.00
C139   C     0.07002   0.32001   0.25000   0.00000  Uiso   1.00
C140   C     0.42997   0.17997   0.75000   0.00000  Uiso   1.00
C141   C     0.17998   0.42998   0.75000   0.00000  Uiso   1.00
C142   C     0.32003   0.07003   0.25000   0.00000  Uiso   1.00
C143   C     0.43005   0.31994   0.75000   0.00000  Uiso   1.00
C144   C     0.07006   0.17993   0.25000   0.00000  Uiso   1.00
C145   C     0.32002   0.07002   0.75000   0.00000  Uiso   1.00
C146   C     0.17997   0.42997   0.25000   0.00000  Uiso   1.00
C147   C     0.06995   0.18006   0.75000   0.00000  Uiso   1.00
C148   C     0.42994   0.32007   0.25000   0.00000  Uiso   1.00
C149   C     0.11506   0.41173   0.24710   0.00000  Uiso   1.00
C150   C     0.38496   0.08818   0.75242   0.00000  Uiso   1.00
C151   C     0.08846   0.11485   0.25075   0.00000  Uiso   1.00
C152   C     0.41204   0.38468   0.74850   0.00000  Uiso   1.00
C153   C     0.38494   0.08827   0.24711   0.00000  Uiso   1.00
C154   C     0.11504   0.41182   0.75242   0.00000  Uiso   1.00
C155   C     0.41154   0.38514   0.25075   0.00000  Uiso   1.00
C156   C     0.08796   0.11531   0.74850   0.00000  Uiso   1.00
C157   C     0.11486   0.08846   0.74934   0.00000  Uiso   1.00
C158   C     0.38469   0.41205   0.25159   0.00000  Uiso   1.00
C159   C     0.08827   0.38494   0.75284   0.00000  Uiso   1.00
C160   C     0.41181   0.11504   0.24753   0.00000  Uiso   1.00
C161   C     0.38514   0.41154   0.74934   0.00000  Uiso   1.00
C162   C     0.11531   0.08795   0.25159   0.00000  Uiso   1.00
C163   C     0.41173   0.11506   0.75284   0.00000  Uiso   1.00
C164   C     0.08819   0.38496   0.24752   0.00000  Uiso   1.00
C165   C     0.36505   0.16173   0.74716   0.00000  Uiso   1.00
C166   C     0.13497   0.33819   0.25253   0.00000  Uiso   1.00
C167   C     0.33845   0.36487   0.75064   0.00000  Uiso   1.00
C168   C     0.16204   0.13469   0.24840   0.00000  Uiso   1.00
C169   C     0.13495   0.33827   0.74716   0.00000  Uiso   1.00
C170   C     0.36503   0.16180   0.25252   0.00000  Uiso   1.00
C171   C     0.16155   0.13513   0.75064   0.00000  Uiso   1.00
C172   C     0.33796   0.36531   0.24840   0.00000  Uiso   1.00
C173   C     0.36487   0.33847   0.24922   0.00000  Uiso   1.00
C174   C     0.13471   0.16205   0.75144   0.00000  Uiso   1.00
C175   C     0.33826   0.13493   0.25290   0.00000  Uiso   1.00
C176   C     0.16182   0.36504   0.74757   0.00000  Uiso   1.00
C177   C     0.13513   0.16153   0.24922   0.00000  Uiso   1.00
C178   C     0.36529   0.33795   0.75143   0.00000  Uiso   1.00
C179   C     0.16174   0.36507   0.25290   0.00000  Uiso   1.00
C180   C     0.33818   0.13496   0.74757   0.00000  Uiso   1.00
C181   C     0.01237   0.21907   0.45885   0.00000  Uiso   1.00
C182   C     0.48642   0.28045   0.54093   0.00000  Uiso   1.00
C183   C     0.28048   0.48649   0.45907   0.00000  Uiso   1.00
C184   C     0.21903   0.01228   0.54116   0.00000  Uiso   1.00
C185   C     0.48763   0.28093   0.45885   0.00000  Uiso   1.00
C186   C     0.01359   0.21955   0.54093   0.00000  Uiso   1.00
C187   C     0.21952   0.01352   0.45907   0.00000  Uiso   1.00
C188   C     0.28097   0.48772   0.54115   0.00000  Uiso   1.00
C189   C     0.26200   0.46892   0.95885   0.00000  Uiso   1.00
C190   C     0.23672   0.03058   0.04093   0.00000  Uiso   1.00
C191   C     0.03089   0.23745   0.95906   0.00000  Uiso   1.00
C192   C     0.46862   0.26118   0.04114   0.00000  Uiso   1.00
C193   C     0.23800   0.03108   0.95885   0.00000  Uiso   1.00
C194   C     0.26328   0.46942   0.04093   0.00000  Uiso   1.00
C195   C     0.46912   0.26256   0.95906   0.00000  Uiso   1.00
C196   C     0.03138   0.23883   0.04114   0.00000  Uiso   1.00
C197   C     0.09811   0.34811   0.25001   0.00000  Uiso   1.00
C198   C     0.40188   0.15188   0.75000   0.00000  Uiso   1.00
C199   C     0.15207   0.09793   0.25000   0.00000  Uiso   1.00
C200   C     0.34825   0.40174   0.75000   0.00000  Uiso   1.00
C201   C     0.40189   0.15189   0.25001   0.00000  Uiso   1.00
C202   C     0.09812   0.34812   0.75000   0.00000  Uiso   1.00
C203   C     0.34793   0.40207   0.25000   0.00000  Uiso   1.00
C204   C     0.15175   0.09825   0.75000   0.00000  Uiso   1.00
C205   C     0.09794   0.15207   0.74998   0.00000  Uiso   1.00
C206   C     0.40175   0.34826   0.24999   0.00000  Uiso   1.00
C207   C     0.15189   0.40190   0.75000   0.00000  Uiso   1.00
C208   C     0.34811   0.09811   0.24999   0.00000  Uiso   1.00
C209   C     0.40206   0.34793   0.74998   0.00000  Uiso   1.00
C210   C     0.09825   0.15173   0.25000   0.00000  Uiso   1.00
C211   C     0.34811   0.09810   0.75000   0.00000  Uiso   1.00
C212   C     0.15189   0.40188   0.24999   0.00000  Uiso   1.00
C213   C     0.00000   0.25000   0.47935   0.00000  Uiso   1.00
C214   C     0.00000   0.25000   0.52045   0.00000  Uiso   1.00
C215   C     0.25000   0.00000   0.47955   0.00000  Uiso   1.00
C216   C     0.25000   0.00000   0.52065   0.00000  Uiso   1.00
C217   C     0.25000  -0.00000   0.97935   0.00000  Uiso   1.00
C218   C     0.25000  -0.00000   0.02045   0.00000  Uiso   1.00
C219   C     0.00000   0.25000   0.97954   0.00000  Uiso   1.00
C220   C     0.00000   0.25000   0.02064   0.00000  Uiso   1.00
N221   N     0.10451   0.44909   0.24650   0.00000  Uiso   1.00
O222   O     0.10475   0.46659   0.21357   0.00000  Uiso   1.00
O223   O     0.08654   0.46237   0.27587   0.00000  Uiso   1.00
N224   N     0.39553   0.05073   0.75277   0.00000  Uiso   1.00
O225   O     0.38342   0.02890   0.72605   0.00000  Uiso   1.00
O226   O     0.41932   0.03902   0.77784   0.00000  Uiso   1.00
N227   N     0.05120   0.10450   0.25265   0.00000  Uiso   1.00
O228   O     0.03253   0.10318   0.22053   0.00000  Uiso   1.00
O229   O     0.03936   0.08760   0.28341   0.00000  Uiso   1.00
N230   N     0.44945   0.39487   0.74482   0.00000  Uiso   1.00
O231   O     0.46921   0.38109   0.71708   0.00000  Uiso   1.00
O232   O     0.46307   0.41985   0.76722   0.00000  Uiso   1.00
N233   N     0.39549   0.05090   0.24651   0.00000  Uiso   1.00
O234   O     0.39525   0.03340   0.21359   0.00000  Uiso   1.00
O235   O     0.41346   0.03763   0.27589   0.00000  Uiso   1.00
N236   N     0.10447   0.44927   0.75278   0.00000  Uiso   1.00
O237   O     0.11658   0.47110   0.72605   0.00000  Uiso   1.00
O238   O     0.08068   0.46098   0.77784   0.00000  Uiso   1.00
N239   N     0.44880   0.39550   0.25265   0.00000  Uiso   1.00
O240   O     0.46747   0.39682   0.22053   0.00000  Uiso   1.00
O241   O     0.46064   0.41239   0.28341   0.00000  Uiso   1.00
N242   N     0.05055   0.10513   0.74482   0.00000  Uiso   1.00
O243   O     0.03079   0.11891   0.71708   0.00000  Uiso   1.00
O244   O     0.03693   0.08015   0.76722   0.00000  Uiso   1.00
N245   N     0.10450   0.05121   0.74748   0.00000  Uiso   1.00
O246   O     0.10320   0.03255   0.77961   0.00000  Uiso   1.00
O247   O     0.08760   0.03934   0.71674   0.00000  Uiso   1.00
N248   N     0.39487   0.44946   0.25532   0.00000  Uiso   1.00
O249   O     0.38103   0.46920   0.28304   0.00000  Uiso   1.00
O250   O     0.41987   0.46309   0.23296   0.00000  Uiso   1.00
N251   N     0.05090   0.39549   0.75340   0.00000  Uiso   1.00
O252   O     0.03338   0.39526   0.78632   0.00000  Uiso   1.00
O253   O     0.03764   0.41345   0.72402   0.00000  Uiso   1.00
N254   N     0.44927   0.10448   0.24714   0.00000  Uiso   1.00
O255   O     0.47110   0.11653   0.27390   0.00000  Uiso   1.00
O256   O     0.46096   0.08072   0.22204   0.00000  Uiso   1.00
N257   N     0.39550   0.44879   0.74748   0.00000  Uiso   1.00
O258   O     0.39680   0.46745   0.77961   0.00000  Uiso   1.00
O259   O     0.41240   0.46066   0.71674   0.00000  Uiso   1.00
N260   N     0.10513   0.05054   0.25532   0.00000  Uiso   1.00
O261   O     0.11897   0.03079   0.28304   0.00000  Uiso   1.00
O262   O     0.08014   0.03691   0.23296   0.00000  Uiso   1.00
N263   N     0.44910   0.10451   0.75340   0.00000  Uiso   1.00
O264   O     0.46662   0.10474   0.78632   0.00000  Uiso   1.00
O265   O     0.46236   0.08655   0.72401   0.00000  Uiso   1.00
N266   N     0.05074   0.39552   0.24712   0.00000  Uiso   1.00
O267   O     0.02890   0.38348   0.27389   0.00000  Uiso   1.00
O268   O     0.03904   0.41927   0.22201   0.00000  Uiso   1.00
N269   N     0.35450   0.19909   0.74661   0.00000  Uiso   1.00
O270   O     0.35476   0.21663   0.71370   0.00000  Uiso   1.00
O271   O     0.33647   0.21232   0.77597   0.00000  Uiso   1.00
N272   N     0.14554   0.30075   0.25306   0.00000  Uiso   1.00
O273   O     0.13353   0.27883   0.22636   0.00000  Uiso   1.00
O274   O     0.16925   0.28913   0.27826   0.00000  Uiso   1.00
N275   N     0.30120   0.35451   0.75251   0.00000  Uiso   1.00
O276   O     0.28254   0.35320   0.72038   0.00000  Uiso   1.00
O277   O     0.28934   0.33762   0.78326   0.00000  Uiso   1.00
N278   N     0.19945   0.14488   0.24465   0.00000  Uiso   1.00
O279   O     0.21921   0.13100   0.21697   0.00000  Uiso   1.00
O280   O     0.21306   0.16994   0.26694   0.00000  Uiso   1.00
N281   N     0.14550   0.30091   0.74661   0.00000  Uiso   1.00
O282   O     0.14524   0.28337   0.71370   0.00000  Uiso   1.00
O283   O     0.16353   0.28768   0.77597   0.00000  Uiso   1.00
N284   N     0.35446   0.19925   0.25303   0.00000  Uiso   1.00
O285   O     0.36648   0.22116   0.22633   0.00000  Uiso   1.00
O286   O     0.33074   0.21087   0.27822   0.00000  Uiso   1.00
N287   N     0.19881   0.14549   0.75251   0.00000  Uiso   1.00
O288   O     0.21746   0.14680   0.72038   0.00000  Uiso   1.00
O289   O     0.21066   0.16238   0.78326   0.00000  Uiso   1.00
N290   N     0.30055   0.35512   0.24466   0.00000  Uiso   1.00
O291   O     0.28078   0.36899   0.21697   0.00000  Uiso   1.00
O292   O     0.28694   0.33006   0.26695   0.00000  Uiso   1.00
N293   N     0.35453   0.30122   0.24721   0.00000  Uiso   1.00
O294   O     0.35303   0.28252   0.27930   0.00000  Uiso   1.00
O295   O     0.33786   0.28940   0.21630   0.00000  Uiso   1.00
N296   N     0.14492   0.19946   0.75497   0.00000  Uiso   1.00
O297   O     0.13116   0.21933   0.78264   0.00000  Uiso   1.00
O298   O     0.16989   0.21299   0.73250   0.00000  Uiso   1.00
N299   N     0.30089   0.14548   0.25346   0.00000  Uiso   1.00
O300   O     0.28336   0.14522   0.28637   0.00000  Uiso   1.00
O301   O     0.28765   0.16348   0.22409   0.00000  Uiso   1.00
N302   N     0.19928   0.35448   0.74718   0.00000  Uiso   1.00
O303   O     0.22113   0.36658   0.77389   0.00000  Uiso   1.00
O304   O     0.21096   0.33071   0.72208   0.00000  Uiso   1.00
N305   N     0.14547   0.19878   0.24720   0.00000  Uiso   1.00
O306   O     0.14698   0.21748   0.27929   0.00000  Uiso   1.00
O307   O     0.16213   0.21060   0.21629   0.00000  Uiso   1.00
N308   N     0.35508   0.30054   0.75497   0.00000  Uiso   1.00
O309   O     0.36884   0.28067   0.78264   0.00000  Uiso   1.00
O310   O     0.33011   0.28701   0.73250   0.00000  Uiso   1.00
N311   N     0.19911   0.35452   0.25348   0.00000  Uiso   1.00
O312   O     0.21664   0.35478   0.28639   0.00000  Uiso   1.00
O313   O     0.21235   0.33651   0.22411   0.00000  Uiso   1.00
N314   N     0.30072   0.14552   0.74718   0.00000  Uiso   1.00
O315   O     0.27887   0.13342   0.77389   0.00000  Uiso   1.00
O316   O     0.28904   0.16929   0.72208   0.00000  Uiso   1.00
O317   O     0.47743   0.31149   0.39726   0.00000  Uiso   1.00
C318   C     0.00762   0.33448   0.39173   0.00000  Uiso   1.00
H319   H     0.02902   0.32060   0.37423   0.00000  Uiso   1.00
H320   H     0.01937   0.34290   0.42027   0.00000  Uiso   1.00
C321   C     0.49541   0.36840   0.36976   0.00000  Uiso   1.00
H322   H     0.48569   0.36054   0.34027   0.00000  Uiso   1.00
H323   H     0.47259   0.38147   0.38567   0.00000  Uiso   1.00
C324   C     0.02636   0.39560   0.36578   0.00000  Uiso   1.00
H325   H     0.03525   0.40502   0.39501   0.00000  Uiso   1.00
H326   H     0.01698   0.41946   0.34876   0.00000  Uiso   1.00
H327   H     0.04977   0.38303   0.35047   0.00000  Uiso   1.00
O328   O     0.02760   0.19056   0.60261   0.00000  Uiso   1.00
C329   C     0.06575   0.19264   0.60641   0.00000  Uiso   1.00
H330   H     0.07442   0.21945   0.61807   0.00000  Uiso   1.00
H331   H     0.07922   0.18841   0.57774   0.00000  Uiso   1.00
C332   C     0.07834   0.16293   0.63444   0.00000  Uiso   1.00
H333   H     0.06327   0.16546   0.66234   0.00000  Uiso   1.00
H334   H     0.07219   0.13592   0.62167   0.00000  Uiso   1.00
C335   C     0.11893   0.16539   0.64273   0.00000  Uiso   1.00
H336   H     0.13464   0.16298   0.61521   0.00000  Uiso   1.00
H337   H     0.12710   0.14299   0.66254   0.00000  Uiso   1.00
H338   H     0.12542   0.19162   0.65705   0.00000  Uiso   1.00
O339   O     0.19051   0.02749   0.39739   0.00000  Uiso   1.00
C340   C     0.19254   0.06565   0.39360   0.00000  Uiso   1.00
H341   H     0.21935   0.07435   0.38197   0.00000  Uiso   1.00
H342   H     0.18824   0.07910   0.42226   0.00000  Uiso   1.00
C343   C     0.16284   0.07819   0.36552   0.00000  Uiso   1.00
H344   H     0.16544   0.06313   0.33762   0.00000  Uiso   1.00
H345   H     0.13583   0.07199   0.37824   0.00000  Uiso   1.00
C346   C     0.16525   0.11879   0.35724   0.00000  Uiso   1.00
H347   H     0.16277   0.13448   0.38476   0.00000  Uiso   1.00
H348   H     0.14285   0.12692   0.33740   0.00000  Uiso   1.00
H349   H     0.19148   0.12532   0.34295   0.00000  Uiso   1.00
O350   O     0.31157   0.47761   0.60274   0.00000  Uiso   1.00
C351   C     0.33447   0.00787   0.60827   0.00000  Uiso   1.00
H352   H     0.32054   0.02918   0.62584   0.00000  Uiso   1.00
H353   H     0.34279   0.01970   0.57974   0.00000  Uiso   1.00
C354   C     0.36848   0.49574   0.63013   0.00000  Uiso   1.00
H355   H     0.36071   0.48588   0.65959   0.00000  Uiso   1.00
H356   H     0.38162   0.47303   0.61410   0.00000  Uiso   1.00
C357   C     0.39555   0.02679   0.63416   0.00000  Uiso   1.00
H358   H     0.40488   0.03583   0.60495   0.00000  Uiso   1.00
H359   H     0.41948   0.01746   0.65111   0.00000  Uiso   1.00
H360   H     0.38290   0.05010   0.64960   0.00000  Uiso   1.00
O361   O     0.02257   0.18851   0.39726   0.00000  Uiso   1.00
C362   C     0.49238   0.16552   0.39173   0.00000  Uiso   1.00
H363   H     0.47098   0.17940   0.37423   0.00000  Uiso   1.00
H364   H     0.48063   0.15710   0.42027   0.00000  Uiso   1.00
C365   C     0.00459   0.13159   0.36976   0.00000  Uiso   1.00
H366   H     0.01431   0.13945   0.34028   0.00000  Uiso   1.00
H367   H     0.02741   0.11853   0.38568   0.00000  Uiso   1.00
C368   C     0.47364   0.10439   0.36579   0.00000  Uiso   1.00
H369   H     0.46475   0.09497   0.39503   0.00000  Uiso   1.00
H370   H     0.48302   0.08053   0.34877   0.00000  Uiso   1.00
H371   H     0.45023   0.11696   0.35048   0.00000  Uiso   1.00
O372   O     0.47240   0.30944   0.60261   0.00000  Uiso   1.00
C373   C     0.43425   0.30736   0.60641   0.00000  Uiso   1.00
H374   H     0.42558   0.28055   0.61807   0.00000  Uiso   1.00
H375   H     0.42078   0.31159   0.57774   0.00000  Uiso   1.00
C376   C     0.42166   0.33707   0.63444   0.00000  Uiso   1.00
H377   H     0.43673   0.33454   0.66234   0.00000  Uiso   1.00
H378   H     0.42781   0.36408   0.62167   0.00000  Uiso   1.00
C379   C     0.38107   0.33461   0.64273   0.00000  Uiso   1.00
H380   H     0.36537   0.33702   0.61521   0.00000  Uiso   1.00
H381   H     0.37290   0.35701   0.66254   0.00000  Uiso   1.00
H382   H     0.37458   0.30839   0.65705   0.00000  Uiso   1.00
O383   O     0.30949   0.47251   0.39739   0.00000  Uiso   1.00
C384   C     0.30747   0.43436   0.39359   0.00000  Uiso   1.00
H385   H     0.28066   0.42565   0.38197   0.00000  Uiso   1.00
H386   H     0.31177   0.42090   0.42225   0.00000  Uiso   1.00
C387   C     0.33717   0.42182   0.36551   0.00000  Uiso   1.00
H388   H     0.33456   0.43687   0.33762   0.00000  Uiso   1.00
H389   H     0.36418   0.42802   0.37824   0.00000  Uiso   1.00
C390   C     0.33477   0.38122   0.35724   0.00000  Uiso   1.00
H391   H     0.33725   0.36553   0.38476   0.00000  Uiso   1.00
H392   H     0.35717   0.37309   0.33739   0.00000  Uiso   1.00
H393   H     0.30854   0.37468   0.34296   0.00000  Uiso   1.00
O394   O     0.18843   0.02239   0.60274   0.00000  Uiso   1.00
C395   C     0.16554   0.49212   0.60827   0.00000  Uiso   1.00
H396   H     0.17946   0.47081   0.62584   0.00000  Uiso   1.00
H397   H     0.15721   0.48030   0.57973   0.00000  Uiso   1.00
C398   C     0.13152   0.00425   0.63013   0.00000  Uiso   1.00
H399   H     0.13929   0.01411   0.65959   0.00000  Uiso   1.00
H400   H     0.11838   0.02696   0.61411   0.00000  Uiso   1.00
C401   C     0.10445   0.47320   0.63417   0.00000  Uiso   1.00
H402   H     0.09512   0.46416   0.60495   0.00000  Uiso   1.00
H403   H     0.08052   0.48252   0.65111   0.00000  Uiso   1.00
H404   H     0.11711   0.44989   0.64960   0.00000  Uiso   1.00
O405   O     0.22824   0.06179   0.89727   0.00000  Uiso   1.00
C406   C     0.25875   0.08436   0.89172   0.00000  Uiso   1.00
H407   H     0.27983   0.07024   0.87400   0.00000  Uiso   1.00
H408   H     0.27078   0.09244   0.92024   0.00000  Uiso   1.00
C409   C     0.24694   0.11859   0.87007   0.00000  Uiso   1.00
H410   H     0.23670   0.11105   0.84069   0.00000  Uiso   1.00
H411   H     0.22457   0.13204   0.88636   0.00000  Uiso   1.00
C412   C     0.27837   0.14519   0.86577   0.00000  Uiso   1.00
H413   H     0.28787   0.15426   0.89491   0.00000  Uiso   1.00
H414   H     0.26924   0.16933   0.84904   0.00000  Uiso   1.00
H415   H     0.30132   0.13224   0.84999   0.00000  Uiso   1.00
O416   O     0.27714   0.44035   0.10261   0.00000  Uiso   1.00
C417   C     0.31531   0.44221   0.10638   0.00000  Uiso   1.00
H418   H     0.32416   0.46902   0.11790   0.00000  Uiso   1.00
H419   H     0.32872   0.43774   0.07773   0.00000  Uiso   1.00
C420   C     0.32772   0.41256   0.13458   0.00000  Uiso   1.00
H421   H     0.31271   0.41537   0.16249   0.00000  Uiso   1.00
H422   H     0.32135   0.38553   0.12199   0.00000  Uiso   1.00
C423   C     0.36835   0.41477   0.14279   0.00000  Uiso   1.00
H424   H     0.38399   0.41211   0.11526   0.00000  Uiso   1.00
H425   H     0.37638   0.39241   0.16271   0.00000  Uiso   1.00
H426   H     0.37504   0.44102   0.15694   0.00000  Uiso   1.00
O427   O     0.43983   0.27593   0.89737   0.00000  Uiso   1.00
C428   C     0.44104   0.31412   0.89360   0.00000  Uiso   1.00
H429   H     0.46776   0.32346   0.88230   0.00000  Uiso   1.00
H430   H     0.43611   0.32743   0.92223   0.00000  Uiso   1.00
C431   C     0.41140   0.32602   0.86514   0.00000  Uiso   1.00
H432   H     0.41484   0.31123   0.83718   0.00000  Uiso   1.00
H433   H     0.38439   0.31897   0.87737   0.00000  Uiso   1.00
C434   C     0.41277   0.36673   0.85721   0.00000  Uiso   1.00
H435   H     0.40947   0.38215   0.88481   0.00000  Uiso   1.00
H436   H     0.39042   0.37436   0.83708   0.00000  Uiso   1.00
H437   H     0.43899   0.37410   0.84340   0.00000  Uiso   1.00
O438   O     0.06241   0.23005   0.10270   0.00000  Uiso   1.00
C439   C     0.08403   0.26124   0.10828   0.00000  Uiso   1.00
H440   H     0.06933   0.28177   0.12619   0.00000  Uiso   1.00
H441   H     0.09158   0.27365   0.07978   0.00000  Uiso   1.00
C442   C     0.11874   0.25044   0.12966   0.00000  Uiso   1.00
H443   H     0.11166   0.23937   0.15882   0.00000  Uiso   1.00
H444   H     0.13304   0.22892   0.11288   0.00000  Uiso   1.00
C445   C     0.14405   0.28283   0.13460   0.00000  Uiso   1.00
H446   H     0.15248   0.29340   0.10566   0.00000  Uiso   1.00
H447   H     0.16867   0.27432   0.15087   0.00000  Uiso   1.00
H448   H     0.13029   0.30483   0.15113   0.00000  Uiso   1.00
O449   O     0.27177   0.43821   0.89727   0.00000  Uiso   1.00
C450   C     0.24126   0.41564   0.89172   0.00000  Uiso   1.00
H451   H     0.22017   0.42975   0.87403   0.00000  Uiso   1.00
H452   H     0.22926   0.40754   0.92025   0.00000  Uiso   1.00
C453   C     0.25307   0.38142   0.87004   0.00000  Uiso   1.00
H454   H     0.26328   0.38899   0.84065   0.00000  Uiso   1.00
H455   H     0.27546   0.36798   0.88630   0.00000  Uiso   1.00
C456   C     0.22165   0.35480   0.86576   0.00000  Uiso   1.00
H457   H     0.21219   0.34571   0.89490   0.00000  Uiso   1.00
H458   H     0.23078   0.33068   0.84901   0.00000  Uiso   1.00
H459   H     0.19868   0.36775   0.85001   0.00000  Uiso   1.00
O460   O     0.22286   0.05965   0.10262   0.00000  Uiso   1.00
C461   C     0.18469   0.05779   0.10638   0.00000  Uiso   1.00
H462   H     0.17584   0.03098   0.11790   0.00000  Uiso   1.00
H463   H     0.17128   0.06226   0.07773   0.00000  Uiso   1.00
C464   C     0.17228   0.08744   0.13459   0.00000  Uiso   1.00
H465   H     0.18729   0.08462   0.16249   0.00000  Uiso   1.00
H466   H     0.17866   0.11447   0.12201   0.00000  Uiso   1.00
C467   C     0.13166   0.08523   0.14278   0.00000  Uiso   1.00
H468   H     0.11602   0.08791   0.11525   0.00000  Uiso   1.00
H469   H     0.12363   0.10759   0.16272   0.00000  Uiso   1.00
H470   H     0.12495   0.05898   0.15693   0.00000  Uiso   1.00
O471   O     0.06017   0.22408   0.89737   0.00000  Uiso   1.00
C472   C     0.05897   0.18589   0.89361   0.00000  Uiso   1.00
H473   H     0.03224   0.17655   0.88231   0.00000  Uiso   1.00
H474   H     0.06391   0.17258   0.92223   0.00000  Uiso   1.00
C475   C     0.08861   0.17399   0.86514   0.00000  Uiso   1.00
H476   H     0.08515   0.18878   0.83718   0.00000  Uiso   1.00
H477   H     0.11561   0.18105   0.87736   0.00000  Uiso   1.00
C478   C     0.08725   0.13328   0.85722   0.00000  Uiso   1.00
H479   H     0.09055   0.11786   0.88481   0.00000  Uiso   1.00
H480   H     0.10959   0.12565   0.83708   0.00000  Uiso   1.00
H481   H     0.06102   0.12591   0.84341   0.00000  Uiso   1.00
O482   O     0.43762   0.27003   0.10271   0.00000  Uiso   1.00
C483   C     0.41593   0.23890   0.10828   0.00000  Uiso   1.00
H484   H     0.43060   0.21829   0.12611   0.00000  Uiso   1.00
H485   H     0.40828   0.22656   0.07977   0.00000  Uiso   1.00
C486   C     0.38130   0.24977   0.12977   0.00000  Uiso   1.00
H487   H     0.38848   0.26066   0.15898   0.00000  Uiso   1.00
H488   H     0.36708   0.27142   0.11314   0.00000  Uiso   1.00
C489   C     0.35584   0.21747   0.13459   0.00000  Uiso   1.00
H490   H     0.34727   0.20712   0.10561   0.00000  Uiso   1.00
H491   H     0.33129   0.22603   0.15098   0.00000  Uiso   1.00
H492   H     0.36952   0.19531   0.15094   0.00000  Uiso   1.00
Zn493  Zn    0.70660  -0.00000   0.21735   0.00000  Uiso   1.00
Zn494  Zn    0.79341  -0.00000   0.78265   0.00000  Uiso   1.00
Zn495  Zn    0.50000   0.20659   0.21735   0.00000  Uiso   1.00
Zn496  Zn    0.50000   0.29340   0.78265   0.00000  Uiso   1.00
Zn497  Zn    0.79341  -0.00000   0.21735   0.00000  Uiso   1.00
Zn498  Zn    0.70660  -0.00000   0.78265   0.00000  Uiso   1.00
Zn499  Zn    0.50000   0.29340   0.21735   0.00000  Uiso   1.00
Zn500  Zn    0.50000   0.20659   0.78265   0.00000  Uiso   1.00
Zn501  Zn    0.95660   0.25000   0.71735   0.00000  Uiso   1.00
Zn502  Zn    0.54341   0.25000   0.28265   0.00000  Uiso   1.00
Zn503  Zn    0.75000   0.45659   0.71735   0.00000  Uiso   1.00
Zn504  Zn    0.75000   0.04340   0.28265   0.00000  Uiso   1.00
Zn505  Zn    0.54341   0.25000   0.71735   0.00000  Uiso   1.00
Zn506  Zn    0.95660   0.25000   0.28265   0.00000  Uiso   1.00
Zn507  Zn    0.75000   0.04340   0.71735   0.00000  Uiso   1.00
Zn508  Zn    0.75000   0.45659   0.28265   0.00000  Uiso   1.00
C509   C     0.98866   0.28121   0.41794   0.00000  Uiso   1.00
C510   C     0.51511   0.22034   0.58183   0.00000  Uiso   1.00
C511   C     0.72030   0.01505   0.41817   0.00000  Uiso   1.00
C512   C     0.78124   0.48875   0.58206   0.00000  Uiso   1.00
C513   C     0.51134   0.21879   0.41794   0.00000  Uiso   1.00
C514   C     0.98489   0.27966   0.58183   0.00000  Uiso   1.00
C515   C     0.77970   0.48495   0.41817   0.00000  Uiso   1.00
C516   C     0.71876   0.01125   0.58206   0.00000  Uiso   1.00
C517   C     0.73906   0.03135   0.91795   0.00000  Uiso   1.00
C518   C     0.76484   0.47020   0.08183   0.00000  Uiso   1.00
C519   C     0.96988   0.26417   0.91816   0.00000  Uiso   1.00
C520   C     0.53165   0.23996   0.08204   0.00000  Uiso   1.00
C521   C     0.76094   0.46865   0.91795   0.00000  Uiso   1.00
C522   C     0.73516   0.02980   0.08183   0.00000  Uiso   1.00
C523   C     0.53012   0.23584   0.91816   0.00000  Uiso   1.00
C524   C     0.96836   0.26006   0.08205   0.00000  Uiso   1.00
C525   C     0.50000   0.25000   0.39791   0.00000  Uiso   1.00
C526   C     0.50000   0.25000   0.60190   0.00000  Uiso   1.00
C527   C     0.75000   0.00000   0.39810   0.00000  Uiso   1.00
C528   C     0.75000  -0.00000   0.60209   0.00000  Uiso   1.00
C529   C     0.75000  -0.00000   0.89791   0.00000  Uiso   1.00
C530   C     0.75000  -0.00000   0.10190   0.00000  Uiso   1.00
C531   C     0.50000   0.25000   0.89809   0.00000  Uiso   1.00
C532   C     0.50000   0.25000   0.10208   0.00000  Uiso   1.00
O533   O     0.75000  -0.00000   0.25000   0.00000  Uiso   1.00
O534   O     0.75000  -0.00000   0.75000   0.00000  Uiso   1.00
O535   O     0.50000   0.25000   0.25000   0.00000  Uiso   1.00
O536   O     0.50000   0.25000   0.75000   0.00000  Uiso   1.00
O537   O     0.75000   0.46963   0.33755   0.00000  Uiso   1.00
O538   O     0.75000   0.03036   0.66245   0.00000  Uiso   1.00
O539   O     0.53037   0.25000   0.33755   0.00000  Uiso   1.00
O540   O     0.96964   0.25000   0.66245   0.00000  Uiso   1.00
O541   O     0.75000   0.03036   0.33755   0.00000  Uiso   1.00
O542   O     0.75000   0.46963   0.66245   0.00000  Uiso   1.00
O543   O     0.96964   0.25000   0.33755   0.00000  Uiso   1.00
O544   O     0.53037   0.25000   0.66245   0.00000  Uiso   1.00
O545   O     0.50000   0.21963   0.83755   0.00000  Uiso   1.00
O546   O     0.50000   0.28036   0.16245   0.00000  Uiso   1.00
O547   O     0.78037  -0.00000   0.83755   0.00000  Uiso   1.00
O548   O     0.71964  -0.00000   0.16245   0.00000  Uiso   1.00
O549   O     0.50000   0.28036   0.83755   0.00000  Uiso   1.00
O550   O     0.50000   0.21963   0.16245   0.00000  Uiso   1.00
O551   O     0.71964  -0.00000   0.83755   0.00000  Uiso   1.00
O552   O     0.78037  -0.00000   0.16245   0.00000  Uiso   1.00
H553   H     0.53471   0.16479   0.46463   0.00000  Uiso   1.00
H554   H     0.96509   0.33517   0.53497   0.00000  Uiso   1.00
H555   H     0.83526   0.46529   0.46503   0.00000  Uiso   1.00
H556   H     0.66470   0.03448   0.53537   0.00000  Uiso   1.00
H557   H     0.96529   0.33521   0.46463   0.00000  Uiso   1.00
H558   H     0.53491   0.16483   0.53497   0.00000  Uiso   1.00
H559   H     0.66475   0.03471   0.46503   0.00000  Uiso   1.00
H560   H     0.83530   0.46552   0.53537   0.00000  Uiso   1.00
H561   H     0.78373   0.41440   0.96463   0.00000  Uiso   1.00
H562   H     0.71596   0.08551   0.03498   0.00000  Uiso   1.00
H563   H     0.58629   0.21798   0.96499   0.00000  Uiso   1.00
H564   H     0.91357   0.28154   0.03536   0.00000  Uiso   1.00
H565   H     0.71628   0.08560   0.96463   0.00000  Uiso   1.00
H566   H     0.78405   0.41449   0.03498   0.00000  Uiso   1.00
H567   H     0.91372   0.28205   0.96499   0.00000  Uiso   1.00
H568   H     0.58644   0.21850   0.03536   0.00000  Uiso   1.00
O569   O     0.70725   0.07307   0.27302   0.00000  Uiso   1.00
O570   O     0.79276   0.42692   0.72698   0.00000  Uiso   1.00
O571   O     0.92693   0.20724   0.27302   0.00000  Uiso   1.00
O572   O     0.57308   0.29275   0.72698   0.00000  Uiso   1.00
O573   O     0.79276   0.42692   0.27302   0.00000  Uiso   1.00
O574   O     0.70725   0.07307   0.72698   0.00000  Uiso   1.00
O575   O     0.57308   0.29275   0.27302   0.00000  Uiso   1.00
O576   O     0.92693   0.20724   0.72698   0.00000  Uiso   1.00
O577   O     0.70725   0.42692   0.72698   0.00000  Uiso   1.00
O578   O     0.79276   0.07307   0.27302   0.00000  Uiso   1.00
O579   O     0.92693   0.29275   0.72698   0.00000  Uiso   1.00
O580   O     0.57308   0.20724   0.27302   0.00000  Uiso   1.00
O581   O     0.79276   0.07307   0.72698   0.00000  Uiso   1.00
O582   O     0.70725   0.42692   0.27302   0.00000  Uiso   1.00
O583   O     0.57308   0.20724   0.72698   0.00000  Uiso   1.00
O584   O     0.92693   0.29275   0.27302   0.00000  Uiso   1.00
O585   O     0.95725   0.32307   0.77302   0.00000  Uiso   1.00
O586   O     0.54276   0.17692   0.22698   0.00000  Uiso   1.00
O587   O     0.67693   0.45724   0.77302   0.00000  Uiso   1.00
O588   O     0.82308   0.04275   0.22698   0.00000  Uiso   1.00
O589   O     0.54276   0.17692   0.77302   0.00000  Uiso   1.00
O590   O     0.95725   0.32307   0.22698   0.00000  Uiso   1.00
O591   O     0.82308   0.04275   0.77302   0.00000  Uiso   1.00
O592   O     0.67693   0.45724   0.22698   0.00000  Uiso   1.00
O593   O     0.95725   0.17692   0.22698   0.00000  Uiso   1.00
O594   O     0.54276   0.32307   0.77302   0.00000  Uiso   1.00
O595   O     0.67693   0.04275   0.22698   0.00000  Uiso   1.00
O596   O     0.82308   0.45724   0.77302   0.00000  Uiso   1.00
O597   O     0.54276   0.32307   0.22698   0.00000  Uiso   1.00
O598   O     0.95725   0.17692   0.77302   0.00000  Uiso   1.00
O599   O     0.82308   0.45724   0.22698   0.00000  Uiso   1.00
O600   O     0.67693   0.04275   0.77302   0.00000  Uiso   1.00
C601   C     0.52502   0.18880   0.47960   0.00000  Uiso   1.00
C602   C     0.97460   0.31105   0.52010   0.00000  Uiso   1.00
C603   C     0.81112   0.47475   0.47989   0.00000  Uiso   1.00
C604   C     0.68873   0.02486   0.52040   0.00000  Uiso   1.00
C605   C     0.97498   0.31120   0.47960   0.00000  Uiso   1.00
C606   C     0.52540   0.18895   0.52010   0.00000  Uiso   1.00
C607   C     0.68888   0.02525   0.47990   0.00000  Uiso   1.00
C608   C     0.81127   0.47514   0.52040   0.00000  Uiso   1.00
C609   C     0.77433   0.43852   0.97960   0.00000  Uiso   1.00
C610   C     0.72524   0.06131   0.02011   0.00000  Uiso   1.00
C611   C     0.56189   0.22672   0.97988   0.00000  Uiso   1.00
C612   C     0.93793   0.27277   0.02039   0.00000  Uiso   1.00
C613   C     0.72568   0.06148   0.97960   0.00000  Uiso   1.00
C614   C     0.77477   0.43869   0.02011   0.00000  Uiso   1.00
C615   C     0.93812   0.27330   0.97988   0.00000  Uiso   1.00
C616   C     0.56208   0.22726   0.02039   0.00000  Uiso   1.00
C617   C     0.75000  -0.00000   0.35575   0.00000  Uiso   1.00
C618   C     0.75000  -0.00000   0.64432   0.00000  Uiso   1.00
C619   C     0.50000   0.25000   0.35568   0.00000  Uiso   1.00
C620   C     0.50000   0.25000   0.64425   0.00000  Uiso   1.00
C621   C     0.50000   0.25000   0.85575   0.00000  Uiso   1.00
C622   C     0.50000   0.25000   0.14432   0.00000  Uiso   1.00
C623   C     0.75000  -0.00000   0.85568   0.00000  Uiso   1.00
C624   C     0.75000  -0.00000   0.14425   0.00000  Uiso   1.00
C625   C     0.68005   0.06995   0.25000   0.00000  Uiso   1.00
C626   C     0.82007   0.42993   0.75000   0.00000  Uiso   1.00
C627   C     0.92998   0.17998   0.25000   0.00000  Uiso   1.00
C628   C     0.57003   0.32003   0.75000   0.00000  Uiso   1.00
C629   C     0.81995   0.43005   0.25000   0.00000  Uiso   1.00
C630   C     0.67993   0.07007   0.75000   0.00000  Uiso   1.00
C631   C     0.57002   0.32001   0.25000   0.00000  Uiso   1.00
C632   C     0.92997   0.17997   0.75000   0.00000  Uiso   1.00
C633   C     0.67998   0.42998   0.75000   0.00000  Uiso   1.00
C634   C     0.82003   0.07003   0.25000   0.00000  Uiso   1.00
C635   C     0.93005   0.31994   0.75000   0.00000  Uiso   1.00
C636   C     0.57006   0.17993   0.25000   0.00000  Uiso   1.00
C637   C     0.82002   0.07002   0.75000   0.00000  Uiso   1.00
C638   C     0.67997   0.42997   0.25000   0.00000  Uiso   1.00
C639   C     0.56995   0.18006   0.75000   0.00000  Uiso   1.00
C640   C     0.92994   0.32007   0.25000   0.00000  Uiso   1.00
C641   C     0.61506   0.41173   0.24710   0.00000  Uiso   1.00
C642   C     0.88496   0.08818   0.75242   0.00000  Uiso   1.00
C643   C     0.58846   0.11485   0.25075   0.00000  Uiso   1.00
C644   C     0.91204   0.38468   0.74850   0.00000  Uiso   1.00
C645   C     0.88494   0.08827   0.24711   0.00000  Uiso   1.00
C646   C     0.61504   0.41182   0.75242   0.00000  Uiso   1.00
C647   C     0.91154   0.38514   0.25075   0.00000  Uiso   1.00
C648   C     0.58796   0.11531   0.74850   0.00000  Uiso   1.00
C649   C     0.61486   0.08846   0.74934   0.00000  Uiso   1.00
C650   C     0.88469   0.41205   0.25159   0.00000  Uiso   1.00
C651   C     0.58827   0.38494   0.75284   0.00000  Uiso   1.00
C652   C     0.91181   0.11504   0.24753   0.00000  Uiso   1.00
C653   C     0.88514   0.41154   0.74934   0.00000  Uiso   1.00
C654   C     0.61531   0.08795   0.25159   0.00000  Uiso   1.00
C655   C     0.91173   0.11506   0.75284   0.00000  Uiso   1.00
C656   C     0.58819   0.38496   0.24752   0.00000  Uiso   1.00
C657   C     0.86505   0.16173   0.74716   0.00000  Uiso   1.00
C658   C     0.63497   0.33819   0.25253   0.00000  Uiso   1.00
C659   C     0.83845   0.36487   0.75064   0.00000  Uiso   1.00
C660   C     0.66204   0.13469   0.24840   0.00000  Uiso   1.00
C661   C     0.63495   0.33827   0.74716   0.00000  Uiso   1.00
C662   C     0.86503   0.16180   0.25252   0.00000  Uiso   1.00
C663   C     0.66155   0.13513   0.75064   0.00000  Uiso   1.00
C664   C     0.83796   0.36531   0.24840   0.00000  Uiso   1.00
C665   C     0.86487   0.33847   0.24922   0.00000  Uiso   1.00
C666   C     0.63471   0.16205   0.75144   0.00000  Uiso   1.00
C667   C     0.83826   0.13493   0.25290   0.00000  Uiso   1.00
C668   C     0.66182   0.36504   0.74757   0.00000  Uiso   1.00
C669   C     0.63513   0.16153   0.24922   0.00000  Uiso   1.00
C670   C     0.86529   0.33795   0.75143   0.00000  Uiso   1.00
C671   C     0.66174   0.36507   0.25290   0.00000  Uiso   1.00
C672   C     0.83818   0.13496   0.74757   0.00000  Uiso   1.00
C673   C     0.51237   0.21907   0.45885   0.00000  Uiso   1.00
C674   C     0.98642   0.28045   0.54093   0.00000  Uiso   1.00
C675   C     0.78048   0.48649   0.45907   0.00000  Uiso   1.00
C676   C     0.71903   0.01228   0.54116   0.00000  Uiso   1.00
C677   C     0.98763   0.28093   0.45885   0.00000  Uiso   1.00
C678   C     0.51359   0.21955   0.54093   0.00000  Uiso   1.00
C679   C     0.71952   0.01352   0.45907   0.00000  Uiso   1.00
C680   C     0.78097   0.48772   0.54115   0.00000  Uiso   1.00
C681   C     0.76200   0.46892   0.95885   0.00000  Uiso   1.00
C682   C     0.73672   0.03058   0.04093   0.00000  Uiso   1.00
C683   C     0.53089   0.23745   0.95906   0.00000  Uiso   1.00
C684   C     0.96862   0.26118   0.04114   0.00000  Uiso   1.00
C685   C     0.73800   0.03108   0.95885   0.00000  Uiso   1.00
C686   C     0.76328   0.46942   0.04093   0.00000  Uiso   1.00
C687   C     0.96912   0.26256   0.95906   0.00000  Uiso   1.00
C688   C     0.53138   0.23883   0.04114   0.00000  Uiso   1.00
C689   C     0.59811   0.34811   0.25001   0.00000  Uiso   1.00
C690   C     0.90188   0.15188   0.75000   0.00000  Uiso   1.00
C691   C     0.65207   0.09793   0.25000   0.00000  Uiso   1.00
C692   C     0.84825   0.40174   0.75000   0.00000  Uiso   1.00
C693   C     0.90189   0.15189   0.25001   0.00000  Uiso   1.00
C694   C     0.59812   0.34812   0.75000   0.00000  Uiso   1.00
C695   C     0.84793   0.40207   0.25000   0.00000  Uiso   1.00
C696   C     0.65175   0.09825   0.75000   0.00000  Uiso   1.00
C697   C     0.59794   0.15207   0.74998   0.00000  Uiso   1.00
C698   C     0.90175   0.34826   0.24999   0.00000  Uiso   1.00
C699   C     0.65189   0.40190   0.75000   0.00000  Uiso   1.00
C700   C     0.84811   0.09811   0.24999   0.00000  Uiso   1.00
C701   C     0.90206   0.34793   0.74998   0.00000  Uiso   1.00
C702   C     0.59825   0.15173   0.25000   0.00000  Uiso   1.00
C703   C     0.84811   0.09810   0.75000   0.00000  Uiso   1.00
C704   C     0.65189   0.40188   0.24999   0.00000  Uiso   1.00
C705   C     0.50000   0.25000   0.47935   0.00000  Uiso   1.00
C706   C     0.50000   0.25000   0.52045   0.00000  Uiso   1.00
C707   C     0.75000   0.00000   0.47955   0.00000  Uiso   1.00
C708   C     0.75000   0.00000   0.52065   0.00000  Uiso   1.00
C709   C     0.75000  -0.00000   0.97935   0.00000  Uiso   1.00
C710   C     0.75000  -0.00000   0.02045   0.00000  Uiso   1.00
C711   C     0.50000   0.25000   0.97954   0.00000  Uiso   1.00
C712   C     0.50000   0.25000   0.02064   0.00000  Uiso   1.00
N713   N     0.60451   0.44909   0.24650   0.00000  Uiso   1.00
O714   O     0.60475   0.46659   0.21357   0.00000  Uiso   1.00
O715   O     0.58654   0.46237   0.27587   0.00000  Uiso   1.00
N716   N     0.89553   0.05073   0.75277   0.00000  Uiso   1.00
O717   O     0.88342   0.02890   0.72605   0.00000  Uiso   1.00
O718   O     0.91932   0.03902   0.77784   0.00000  Uiso   1.00
N719   N     0.55120   0.10450   0.25265   0.00000  Uiso   1.00
O720   O     0.53253   0.10318   0.22053   0.00000  Uiso   1.00
O721   O     0.53936   0.08760   0.28341   0.00000  Uiso   1.00
N722   N     0.94945   0.39487   0.74482   0.00000  Uiso   1.00
O723   O     0.96921   0.38109   0.71708   0.00000  Uiso   1.00
O724   O     0.96307   0.41985   0.76722   0.00000  Uiso   1.00
N725   N     0.89549   0.05090   0.24651   0.00000  Uiso   1.00
O726   O     0.89525   0.03340   0.21359   0.00000  Uiso   1.00
O727   O     0.91346   0.03763   0.27589   0.00000  Uiso   1.00
N728   N     0.60447   0.44927   0.75278   0.00000  Uiso   1.00
O729   O     0.61658   0.47110   0.72605   0.00000  Uiso   1.00
O730   O     0.58068   0.46098   0.77784   0.00000  Uiso   1.00
N731   N     0.94880   0.39550   0.25265   0.00000  Uiso   1.00
O732   O     0.96747   0.39682   0.22053   0.00000  Uiso   1.00
O733   O     0.96064   0.41239   0.28341   0.00000  Uiso   1.00
N734   N     0.55055   0.10513   0.74482   0.00000  Uiso   1.00
O735   O     0.53079   0.11891   0.71708   0.00000  Uiso   1.00
O736   O     0.53693   0.08015   0.76722   0.00000  Uiso   1.00
N737   N     0.60450   0.05121   0.74748   0.00000  Uiso   1.00
O738   O     0.60320   0.03255   0.77961   0.00000  Uiso   1.00
O739   O     0.58760   0.03934   0.71674   0.00000  Uiso   1.00
N740   N     0.89487   0.44946   0.25532   0.00000  Uiso   1.00
O741   O     0.88103   0.46920   0.28304   0.00000  Uiso   1.00
O742   O     0.91987   0.46309   0.23296   0.00000  Uiso   1.00
N743   N     0.55090   0.39549   0.75340   0.00000  Uiso   1.00
O744   O     0.53338   0.39526   0.78632   0.00000  Uiso   1.00
O745   O     0.53764   0.41345   0.72402   0.00000  Uiso   1.00
N746   N     0.94927   0.10448   0.24714   0.00000  Uiso   1.00
O747   O     0.97110   0.11653   0.27390   0.00000  Uiso   1.00
O748   O     0.96096   0.08072   0.22204   0.00000  Uiso   1.00
N749   N     0.89550   0.44879   0.74748   0.00000  Uiso   1.00
O750   O     0.89680   0.46745   0.77961   0.00000  Uiso   1.00
O751   O     0.91240   0.46066   0.71674   0.00000  Uiso   1.00
N752   N     0.60513   0.05054   0.25532   0.00000  Uiso   1.00
O753   O     0.61897   0.03079   0.28304   0.00000  Uiso   1.00
O754   O     0.58014   0.03691   0.23296   0.00000  Uiso   1.00
N755   N     0.94910   0.10451   0.75340   0.00000  Uiso   1.00
O756   O     0.96662   0.10474   0.78632   0.00000  Uiso   1.00
O757   O     0.96236   0.08655   0.72401   0.00000  Uiso   1.00
N758   N     0.55074   0.39552   0.24712   0.00000  Uiso   1.00
O759   O     0.52890   0.38348   0.27389   0.00000  Uiso   1.00
O760   O     0.53904   0.41927   0.22201   0.00000  Uiso   1.00
N761   N     0.85450   0.19909   0.74661   0.00000  Uiso   1.00
O762   O     0.85476   0.21663   0.71370   0.00000  Uiso   1.00
O763   O     0.83647   0.21232   0.77597   0.00000  Uiso   1.00
N764   N     0.64554   0.30075   0.25306   0.00000  Uiso   1.00
O765   O     0.63353   0.27883   0.22636   0.00000  Uiso   1.00
O766   O     0.66925   0.28913   0.27826   0.00000  Uiso   1.00
N767   N     0.80120   0.35451   0.75251   0.00000  Uiso   1.00
O768   O     0.78254   0.35320   0.72038   0.00000  Uiso   1.00
O769   O     0.78934   0.33762   0.78326   0.00000  Uiso   1.00
N770   N     0.69945   0.14488   0.24465   0.00000  Uiso   1.00
O771   O     0.71921   0.13100   0.21697   0.00000  Uiso   1.00
O772   O     0.71306   0.16994   0.26694   0.00000  Uiso   1.00
N773   N     0.64550   0.30091   0.74661   0.00000  Uiso   1.00
O774   O     0.64524   0.28337   0.71370   0.00000  Uiso   1.00
O775   O     0.66353   0.28768   0.77597   0.00000  Uiso   1.00
N776   N     0.85446   0.19925   0.25303   0.00000  Uiso   1.00
O777   O     0.86648   0.22116   0.22633   0.00000  Uiso   1.00
O778   O     0.83074   0.21087   0.27822   0.00000  Uiso   1.00
N779   N     0.69881   0.14549   0.75251   0.00000  Uiso   1.00
O780   O     0.71746   0.14680   0.72038   0.00000  Uiso   1.00
O781   O     0.71066   0.16238   0.78326   0.00000  Uiso   1.00
N782   N     0.80055   0.35512   0.24466   0.00000  Uiso   1.00
O783   O     0.78078   0.36899   0.21697   0.00000  Uiso   1.00
O784   O     0.78694   0.33006   0.26695   0.00000  Uiso   1.00
N785   N     0.85453   0.30122   0.24721   0.00000  Uiso   1.00
O786   O     0.85303   0.28252   0.27930   0.00000  Uiso   1.00
O787   O     0.83786   0.28940   0.21630   0.00000  Uiso   1.00
N788   N     0.64492   0.19946   0.75497   0.00000  Uiso   1.00
O789   O     0.63116   0.21933   0.78264   0.00000  Uiso   1.00
O790   O     0.66989   0.21299   0.73250   0.00000  Uiso   1.00
N791   N     0.80089   0.14548   0.25346   0.00000  Uiso   1.00
O792   O     0.78336   0.14522   0.28637   0.00000  Uiso   1.00
O793   O     0.78765   0.16348   0.22409   0.00000  Uiso   1.00
N794   N     0.69928   0.35448   0.74718   0.00000  Uiso   1.00
O795   O     0.72113   0.36658   0.77389   0.00000  Uiso   1.00
O796   O     0.71096   0.33071   0.72208   0.00000  Uiso   1.00
N797   N     0.64547   0.19878   0.24720   0.00000  Uiso   1.00
O798   O     0.64698   0.21748   0.27929   0.00000  Uiso   1.00
O799   O     0.66213   0.21060   0.21629   0.00000  Uiso   1.00
N800   N     0.85508   0.30054   0.75497   0.00000  Uiso   1.00
O801   O     0.86884   0.28067   0.78264   0.00000  Uiso   1.00
O802   O     0.83011   0.28701   0.73250   0.00000  Uiso   1.00
N803   N     0.69911   0.35452   0.25348   0.00000  Uiso   1.00
O804   O     0.71664   0.35478   0.28639   0.00000  Uiso   1.00
O805   O     0.71235   0.33651   0.22411   0.00000  Uiso   1.00
N806   N     0.80072   0.14552   0.74718   0.00000  Uiso   1.00
O807   O     0.77887   0.13342   0.77389   0.00000  Uiso   1.00
O808   O     0.78904   0.16929   0.72208   0.00000  Uiso   1.00
O809   O     0.97743   0.31149   0.39726   0.00000  Uiso   1.00
C810   C     0.50762   0.33448   0.39173   0.00000  Uiso   1.00
H811   H     0.52902   0.32060   0.37423   0.00000  Uiso   1.00
H812   H     0.51937   0.34290   0.42027   0.00000  Uiso   1.00
C813   C     0.99541   0.36840   0.36976   0.00000  Uiso   1.00
H814   H     0.98569   0.36054   0.34027   0.00000  Uiso   1.00
H815   H     0.97259   0.38147   0.38567   0.00000  Uiso   1.00
C816   C     0.52636   0.39560   0.36578   0.00000  Uiso   1.00
H817   H     0.53525   0.40502   0.39501   0.00000  Uiso   1.00
H818   H     0.51698   0.41946   0.34876   0.00000  Uiso   1.00
H819   H     0.54977   0.38303   0.35047   0.00000  Uiso   1.00
O820   O     0.52760   0.19056   0.60261   0.00000  Uiso   1.00
C821   C     0.56575   0.19264   0.60641   0.00000  Uiso   1.00
H822   H     0.57442   0.21945   0.61807   0.00000  Uiso   1.00
H823   H     0.57922   0.18841   0.57774   0.00000  Uiso   1.00
C824   C     0.57834   0.16293   0.63444   0.00000  Uiso   1.00
H825   H     0.56327   0.16546   0.66234   0.00000  Uiso   1.00
H826   H     0.57219   0.13592   0.62167   0.00000  Uiso   1.00
C827   C     0.61893   0.16539   0.64273   0.00000  Uiso   1.00
H828   H     0.63464   0.16298   0.61521   0.00000  Uiso   1.00
H829   H     0.62710   0.14299   0.66254   0.00000  Uiso   1.00
H830   H     0.62542   0.19162   0.65705   0.00000  Uiso   1.00
O831   O     0.69051   0.02749   0.39739   0.00000  Uiso   1.00
C832   C     0.69254   0.06565   0.39360   0.00000  Uiso   1.00
H833   H     0.71935   0.07435   0.38197   0.00000  Uiso   1.00
H834   H     0.68824   0.07910   0.42226   0.00000  Uiso   1.00
C835   C     0.66284   0.07819   0.36552   0.00000  Uiso   1.00
H836   H     0.66544   0.06313   0.33762   0.00000  Uiso   1.00
H837   H     0.63583   0.07199   0.37824   0.00000  Uiso   1.00
C838   C     0.66525   0.11879   0.35724   0.00000  Uiso   1.00
H839   H     0.66277   0.13448   0.38476   0.00000  Uiso   1.00
H840   H     0.64285   0.12692   0.33740   0.00000  Uiso   1.00
H841   H     0.69148   0.12532   0.34295   0.00000  Uiso   1.00
O842   O     0.81157   0.47761   0.60274   0.00000  Uiso   1.00
C843   C     0.83447   0.00787   0.60827   0.00000  Uiso   1.00
H844   H     0.82054   0.02918   0.62584   0.00000  Uiso   1.00
H845   H     0.84279   0.01970   0.57974   0.00000  Uiso   1.00
C846   C     0.86848   0.49574   0.63013   0.00000  Uiso   1.00
H847   H     0.86071   0.48588   0.65959   0.00000  Uiso   1.00
H848   H     0.88162   0.47303   0.61410   0.00000  Uiso   1.00
C849   C     0.89555   0.02679   0.63416   0.00000  Uiso   1.00
H850   H     0.90488   0.03583   0.60495   0.00000  Uiso   1.00
H851   H     0.91948   0.01746   0.65111   0.00000  Uiso   1.00
H852   H     0.88290   0.05010   0.64960   0.00000  Uiso   1.00
O853   O     0.52257   0.18851   0.39726   0.00000  Uiso   1.00
C854   C     0.99238   0.16552   0.39173   0.00000  Uiso   1.00
H855   H     0.97098   0.17940   0.37423   0.00000  Uiso   1.00
H856   H     0.98063   0.15710   0.42027   0.00000  Uiso   1.00
C857   C     0.50459   0.13159   0.36976   0.00000  Uiso   1.00
H858   H     0.51431   0.13945   0.34028   0.00000  Uiso   1.00
H859   H     0.52741   0.11853   0.38568   0.00000  Uiso   1.00
C860   C     0.97364   0.10439   0.36579   0.00000  Uiso   1.00
H861   H     0.96475   0.09497   0.39503   0.00000  Uiso   1.00
H862   H     0.98302   0.08053   0.34877   0.00000  Uiso   1.00
H863   H     0.95023   0.11696   0.35048   0.00000  Uiso   1.00
O864   O     0.97240   0.30944   0.60261   0.00000  Uiso   1.00
C865   C     0.93425   0.30736   0.60641   0.00000  Uiso   1.00
H866   H     0.92558   0.28055   0.61807   0.00000  Uiso   1.00
H867   H     0.92078   0.31159   0.57774   0.00000  Uiso   1.00
C868   C     0.92166   0.33707   0.63444   0.00000  Uiso   1.00
H869   H     0.93673   0.33454   0.66234   0.00000  Uiso   1.00
H870   H     0.92781   0.36408   0.62167   0.00000  Uiso   1.00
C871   C     0.88107   0.33461   0.64273   0.00000  Uiso   1.00
H872   H     0.86537   0.33702   0.61521   0.00000  Uiso   1.00
H873   H     0.87290   0.35701   0.66254   0.00000  Uiso   1.00
H874   H     0.87458   0.30839   0.65705   0.00000  Uiso   1.00
O875   O     0.80949   0.47251   0.39739   0.00000  Uiso   1.00
C876   C     0.80747   0.43436   0.39359   0.00000  Uiso   1.00
H877   H     0.78066   0.42565   0.38197   0.00000  Uiso   1.00
H878   H     0.81177   0.42090   0.42225   0.00000  Uiso   1.00
C879   C     0.83717   0.42182   0.36551   0.00000  Uiso   1.00
H880   H     0.83456   0.43687   0.33762   0.00000  Uiso   1.00
H881   H     0.86418   0.42802   0.37824   0.00000  Uiso   1.00
C882   C     0.83477   0.38122   0.35724   0.00000  Uiso   1.00
H883   H     0.83725   0.36553   0.38476   0.00000  Uiso   1.00
H884   H     0.85717   0.37309   0.33739   0.00000  Uiso   1.00
H885   H     0.80854   0.37468   0.34296   0.00000  Uiso   1.00
O886   O     0.68843   0.02239   0.60274   0.00000  Uiso   1.00
C887   C     0.66554   0.49212   0.60827   0.00000  Uiso   1.00
H888   H     0.67946   0.47081   0.62584   0.00000  Uiso   1.00
H889   H     0.65721   0.48030   0.57973   0.00000  Uiso   1.00
C890   C     0.63152   0.00425   0.63013   0.00000  Uiso   1.00
H891   H     0.63929   0.01411   0.65959   0.00000  Uiso   1.00
H892   H     0.61838   0.02696   0.61411   0.00000  Uiso   1.00
C893   C     0.60445   0.47320   0.63417   0.00000  Uiso   1.00
H894   H     0.59512   0.46416   0.60495   0.00000  Uiso   1.00
H895   H     0.58052   0.48252   0.65111   0.00000  Uiso   1.00
H896   H     0.61711   0.44989   0.64960   0.00000  Uiso   1.00
O897   O     0.72824   0.06179   0.89727   0.00000  Uiso   1.00
C898   C     0.75875   0.08436   0.89172   0.00000  Uiso   1.00
H899   H     0.77983   0.07024   0.87400   0.00000  Uiso   1.00
H900   H     0.77078   0.09244   0.92024   0.00000  Uiso   1.00
C901   C     0.74694   0.11859   0.87007   0.00000  Uiso   1.00
H902   H     0.73670   0.11105   0.84069   0.00000  Uiso   1.00
H903   H     0.72457   0.13204   0.88636   0.00000  Uiso   1.00
C904   C     0.77837   0.14519   0.86577   0.00000  Uiso   1.00
H905   H     0.78787   0.15426   0.89491   0.00000  Uiso   1.00
H906   H     0.76924   0.16933   0.84904   0.00000  Uiso   1.00
H907   H     0.80132   0.13224   0.84999   0.00000  Uiso   1.00
O908   O     0.77714   0.44035   0.10261   0.00000  Uiso   1.00
C909   C     0.81531   0.44221   0.10638   0.00000  Uiso   1.00
H910   H     0.82416   0.46902   0.11790   0.00000  Uiso   1.00
H911   H     0.82872   0.43774   0.07773   0.00000  Uiso   1.00
C912   C     0.82772   0.41256   0.13458   0.00000  Uiso   1.00
H913   H     0.81271   0.41537   0.16249   0.00000  Uiso   1.00
H914   H     0.82135   0.38553   0.12199   0.00000  Uiso   1.00
C915   C     0.86835   0.41477   0.14279   0.00000  Uiso   1.00
H916   H     0.88399   0.41211   0.11526   0.00000  Uiso   1.00
H917   H     0.87638   0.39241   0.16271   0.00000  Uiso   1.00
H918   H     0.87504   0.44102   0.15694   0.00000  Uiso   1.00
O919   O     0.93983   0.27593   0.89737   0.00000  Uiso   1.00
C920   C     0.94104   0.31412   0.89360   0.00000  Uiso   1.00
H921   H     0.96776   0.32346   0.88230   0.00000  Uiso   1.00
H922   H     0.93611   0.32743   0.92223   0.00000  Uiso   1.00
C923   C     0.91140   0.32602   0.86514   0.00000  Uiso   1.00
H924   H     0.91484   0.31123   0.83718   0.00000  Uiso   1.00
H925   H     0.88439   0.31897   0.87737   0.00000  Uiso   1.00
C926   C     0.91277   0.36673   0.85721   0.00000  Uiso   1.00
H927   H     0.90947   0.38215   0.88481   0.00000  Uiso   1.00
H928   H     0.89042   0.37436   0.83708   0.00000  Uiso   1.00
H929   H     0.93899   0.37410   0.84340   0.00000  Uiso   1.00
O930   O     0.56241   0.23005   0.10270   0.00000  Uiso   1.00
C931   C     0.58403   0.26124   0.10828   0.00000  Uiso   1.00
H932   H     0.56933   0.28177   0.12619   0.00000  Uiso   1.00
H933   H     0.59158   0.27365   0.07978   0.00000  Uiso   1.00
C934   C     0.61874   0.25044   0.12966   0.00000  Uiso   1.00
H935   H     0.61166   0.23937   0.15882   0.00000  Uiso   1.00
H936   H     0.63304   0.22892   0.11288   0.00000  Uiso   1.00
C937   C     0.64405   0.28283   0.13460   0.00000  Uiso   1.00
H938   H     0.65248   0.29340   0.10566   0.00000  Uiso   1.00
H939   H     0.66867   0.27432   0.15087   0.00000  Uiso   1.00
H940   H     0.63029   0.30483   0.15113   0.00000  Uiso   1.00
O941   O     0.77177   0.43821   0.89727   0.00000  Uiso   1.00
C942   C     0.74126   0.41564   0.89172   0.00000  Uiso   1.00
H943   H     0.72017   0.42975   0.87403   0.00000  Uiso   1.00
H944   H     0.72926   0.40754   0.92025   0.00000  Uiso   1.00
C945   C     0.75307   0.38142   0.87004   0.00000  Uiso   1.00
H946   H     0.76328   0.38899   0.84065   0.00000  Uiso   1.00
H947   H     0.77546   0.36798   0.88630   0.00000  Uiso   1.00
C948   C     0.72165   0.35480   0.86576   0.00000  Uiso   1.00
H949   H     0.71219   0.34571   0.89490   0.00000  Uiso   1.00
H950   H     0.73078   0.33068   0.84901   0.00000  Uiso   1.00
H951   H     0.69868   0.36775   0.85001   0.00000  Uiso   1.00
O952   O     0.72286   0.05965   0.10262   0.00000  Uiso   1.00
C953   C     0.68469   0.05779   0.10638   0.00000  Uiso   1.00
H954   H     0.67584   0.03098   0.11790   0.00000  Uiso   1.00
H955   H     0.67128   0.06226   0.07773   0.00000  Uiso   1.00
C956   C     0.67228   0.08744   0.13459   0.00000  Uiso   1.00
H957   H     0.68729   0.08462   0.16249   0.00000  Uiso   1.00
H958   H     0.67866   0.11447   0.12201   0.00000  Uiso   1.00
C959   C     0.63166   0.08523   0.14278   0.00000  Uiso   1.00
H960   H     0.61602   0.08791   0.11525   0.00000  Uiso   1.00
H961   H     0.62363   0.10759   0.16272   0.00000  Uiso   1.00
H962   H     0.62495   0.05898   0.15693   0.00000  Uiso   1.00
O963   O     0.56017   0.22408   0.89737   0.00000  Uiso   1.00
C964   C     0.55897   0.18589   0.89361   0.00000  Uiso   1.00
H965   H     0.53224   0.17655   0.88231   0.00000  Uiso   1.00
H966   H     0.56391   0.17258   0.92223   0.00000  Uiso   1.00
C967   C     0.58861   0.17399   0.86514   0.00000  Uiso   1.00
H968   H     0.58515   0.18878   0.83718   0.00000  Uiso   1.00
H969   H     0.61561   0.18105   0.87736   0.00000  Uiso   1.00
C970   C     0.58725   0.13328   0.85722   0.00000  Uiso   1.00
H971   H     0.59055   0.11786   0.88481   0.00000  Uiso   1.00
H972   H     0.60959   0.12565   0.83708   0.00000  Uiso   1.00
H973   H     0.56102   0.12591   0.84341   0.00000  Uiso   1.00
O974   O     0.93762   0.27003   0.10271   0.00000  Uiso   1.00
C975   C     0.91593   0.23890   0.10828   0.00000  Uiso   1.00
H976   H     0.93060   0.21829   0.12611   0.00000  Uiso   1.00
H977   H     0.90828   0.22656   0.07977   0.00000  Uiso   1.00
C978   C     0.88130   0.24977   0.12977   0.00000  Uiso   1.00
H979   H     0.88848   0.26066   0.15898   0.00000  Uiso   1.00
H980   H     0.86708   0.27142   0.11314   0.00000  Uiso   1.00
C981   C     0.85584   0.21747   0.13459   0.00000  Uiso   1.00
H982   H     0.84727   0.20712   0.10561   0.00000  Uiso   1.00
H983   H     0.83129   0.22603   0.15098   0.00000  Uiso   1.00
H984   H     0.86952   0.19531   0.15094   0.00000  Uiso   1.00
Zn985  Zn    0.20660   0.50000   0.21735   0.00000  Uiso   1.00
Zn986  Zn    0.29341   0.50000   0.78265   0.00000  Uiso   1.00
Zn987  Zn    0.00000   0.70659   0.21735   0.00000  Uiso   1.00
Zn988  Zn    0.00000   0.79340   0.78265   0.00000  Uiso   1.00
Zn989  Zn    0.29341   0.50000   0.21735   0.00000  Uiso   1.00
Zn990  Zn    0.20660   0.50000   0.78265   0.00000  Uiso   1.00
Zn991  Zn    0.00000   0.79340   0.21735   0.00000  Uiso   1.00
Zn992  Zn    0.00000   0.70659   0.78265   0.00000  Uiso   1.00
Zn993  Zn    0.45660   0.75000   0.71735   0.00000  Uiso   1.00
Zn994  Zn    0.04341   0.75000   0.28265   0.00000  Uiso   1.00
Zn995  Zn    0.25000   0.95659   0.71735   0.00000  Uiso   1.00
Zn996  Zn    0.25000   0.54340   0.28265   0.00000  Uiso   1.00
Zn997  Zn    0.04341   0.75000   0.71735   0.00000  Uiso   1.00
Zn998  Zn    0.45660   0.75000   0.28265   0.00000  Uiso   1.00
Zn999  Zn    0.25000   0.54340   0.71735   0.00000  Uiso   1.00
Zn1000 Zn    0.25000   0.95659   0.28265   0.00000  Uiso   1.00
C1001  C     0.48866   0.78121   0.41794   0.00000  Uiso   1.00
C1002  C     0.01511   0.72034   0.58183   0.00000  Uiso   1.00
C1003  C     0.22030   0.51505   0.41817   0.00000  Uiso   1.00
C1004  C     0.28124   0.98875   0.58206   0.00000  Uiso   1.00
C1005  C     0.01134   0.71879   0.41794   0.00000  Uiso   1.00
C1006  C     0.48489   0.77966   0.58183   0.00000  Uiso   1.00
C1007  C     0.27970   0.98495   0.41817   0.00000  Uiso   1.00
C1008  C     0.21876   0.51125   0.58206   0.00000  Uiso   1.00
C1009  C     0.23906   0.53135   0.91795   0.00000  Uiso   1.00
C1010  C     0.26484   0.97020   0.08183   0.00000  Uiso   1.00
C1011  C     0.46988   0.76417   0.91816   0.00000  Uiso   1.00
C1012  C     0.03165   0.73996   0.08204   0.00000  Uiso   1.00
C1013  C     0.26094   0.96865   0.91795   0.00000  Uiso   1.00
C1014  C     0.23516   0.52980   0.08183   0.00000  Uiso   1.00
C1015  C     0.03012   0.73584   0.91816   0.00000  Uiso   1.00
C1016  C     0.46836   0.76006   0.08205   0.00000  Uiso   1.00
C1017  C     0.00000   0.75000   0.39791   0.00000  Uiso   1.00
C1018  C     0.00000   0.75000   0.60190   0.00000  Uiso   1.00
C1019  C     0.25000   0.50000   0.39810   0.00000  Uiso   1.00
C1020  C     0.25000   0.50000   0.60209   0.00000  Uiso   1.00
C1021  C     0.25000   0.50000   0.89791   0.00000  Uiso   1.00
C1022  C     0.25000   0.50000   0.10190   0.00000  Uiso   1.00
C1023  C    -0.00000   0.75000   0.89809   0.00000  Uiso   1.00
C1024  C     0.00000   0.75000   0.10208   0.00000  Uiso   1.00
O1025  O     0.25000   0.50000   0.25000   0.00000  Uiso   1.00
O1026  O     0.25000   0.50000   0.75000   0.00000  Uiso   1.00
O1027  O     0.00000   0.75000   0.25000   0.00000  Uiso   1.00
O1028  O     0.00000   0.75000   0.75000   0.00000  Uiso   1.00
O1029  O     0.25000   0.96963   0.33755   0.00000  Uiso   1.00
O1030  O     0.25000   0.53036   0.66245   0.00000  Uiso   1.00
O1031  O     0.03037   0.75000   0.33755   0.00000  Uiso   1.00
O1032  O     0.46964   0.75000   0.66245   0.00000  Uiso   1.00
O1033  O     0.25000   0.53036   0.33755   0.00000  Uiso   1.00
O1034  O     0.25000   0.96963   0.66245   0.00000  Uiso   1.00
O1035  O     0.46964   0.75000   0.33755   0.00000  Uiso   1.00
O1036  O     0.03037   0.75000   0.66245   0.00000  Uiso   1.00
O1037  O     0.00000   0.71963   0.83755   0.00000  Uiso   1.00
O1038  O     0.00000   0.78036   0.16245   0.00000  Uiso   1.00
O1039  O     0.28037   0.50000   0.83755   0.00000  Uiso   1.00
O1040  O     0.21964   0.50000   0.16245   0.00000  Uiso   1.00
O1041  O     0.00000   0.78036   0.83755   0.00000  Uiso   1.00
O1042  O     0.00000   0.71963   0.16245   0.00000  Uiso   1.00
O1043  O     0.21964   0.50000   0.83755   0.00000  Uiso   1.00
O1044  O     0.28037   0.50000   0.16245   0.00000  Uiso   1.00
H1045  H     0.03471   0.66479   0.46463   0.00000  Uiso   1.00
H1046  H     0.46509   0.83517   0.53497   0.00000  Uiso   1.00
H1047  H     0.33526   0.96529   0.46503   0.00000  Uiso   1.00
H1048  H     0.16470   0.53448   0.53537   0.00000  Uiso   1.00
H1049  H     0.46529   0.83521   0.46463   0.00000  Uiso   1.00
H1050  H     0.03491   0.66483   0.53497   0.00000  Uiso   1.00
H1051  H     0.16475   0.53471   0.46503   0.00000  Uiso   1.00
H1052  H     0.33530   0.96552   0.53537   0.00000  Uiso   1.00
H1053  H     0.28373   0.91440   0.96463   0.00000  Uiso   1.00
H1054  H     0.21596   0.58551   0.03498   0.00000  Uiso   1.00
H1055  H     0.08629   0.71798   0.96499   0.00000  Uiso   1.00
H1056  H     0.41357   0.78154   0.03536   0.00000  Uiso   1.00
H1057  H     0.21628   0.58560   0.96463   0.00000  Uiso   1.00
H1058  H     0.28405   0.91449   0.03498   0.00000  Uiso   1.00
H1059  H     0.41372   0.78205   0.96499   0.00000  Uiso   1.00
H1060  H     0.08644   0.71850   0.03536   0.00000  Uiso   1.00
O1061  O     0.20725   0.57307   0.27302   0.00000  Uiso   1.00
O1062  O     0.29276   0.92692   0.72698   0.00000  Uiso   1.00
O1063  O     0.42693   0.70724   0.27302   0.00000  Uiso   1.00
O1064  O     0.07308   0.79275   0.72698   0.00000  Uiso   1.00
O1065  O     0.29276   0.92692   0.27302   0.00000  Uiso   1.00
O1066  O     0.20725   0.57307   0.72698   0.00000  Uiso   1.00
O1067  O     0.07308   0.79275   0.27302   0.00000  Uiso   1.00
O1068  O     0.42693   0.70724   0.72698   0.00000  Uiso   1.00
O1069  O     0.20725   0.92692   0.72698   0.00000  Uiso   1.00
O1070  O     0.29276   0.57307   0.27302   0.00000  Uiso   1.00
O1071  O     0.42693   0.79275   0.72698   0.00000  Uiso   1.00
O1072  O     0.07308   0.70724   0.27302   0.00000  Uiso   1.00
O1073  O     0.29276   0.57307   0.72698   0.00000  Uiso   1.00
O1074  O     0.20725   0.92692   0.27302   0.00000  Uiso   1.00
O1075  O     0.07308   0.70724   0.72698   0.00000  Uiso   1.00
O1076  O     0.42693   0.79275   0.27302   0.00000  Uiso   1.00
O1077  O     0.45725   0.82307   0.77302   0.00000  Uiso   1.00
O1078  O     0.04276   0.67692   0.22698   0.00000  Uiso   1.00
O1079  O     0.17693   0.95724   0.77302   0.00000  Uiso   1.00
O1080  O     0.32308   0.54275   0.22698   0.00000  Uiso   1.00
O1081  O     0.04276   0.67692   0.77302   0.00000  Uiso   1.00
O1082  O     0.45725   0.82307   0.22698   0.00000  Uiso   1.00
O1083  O     0.32308   0.54275   0.77302   0.00000  Uiso   1.00
O1084  O     0.17693   0.95724   0.22698   0.00000  Uiso   1.00
O1085  O     0.45725   0.67692   0.22698   0.00000  Uiso   1.00
O1086  O     0.04276   0.82307   0.77302   0.00000  Uiso   1.00
O1087  O     0.17693   0.54275   0.22698   0.00000  Uiso   1.00
O1088  O     0.32308   0.95724   0.77302   0.00000  Uiso   1.00
O1089  O     0.04276   0.82307   0.22698   0.00000  Uiso   1.00
O1090  O     0.45725   0.67692   0.77302   0.00000  Uiso   1.00
O1091  O     0.32308   0.95724   0.22698   0.00000  Uiso   1.00
O1092  O     0.17693   0.54275   0.77302   0.00000  Uiso   1.00
C1093  C     0.02502   0.68880   0.47960   0.00000  Uiso   1.00
C1094  C     0.47460   0.81105   0.52010   0.00000  Uiso   1.00
C1095  C     0.31112   0.97475   0.47989   0.00000  Uiso   1.00
C1096  C     0.18873   0.52486   0.52040   0.00000  Uiso   1.00
C1097  C     0.47498   0.81120   0.47960   0.00000  Uiso   1.00
C1098  C     0.02540   0.68895   0.52010   0.00000  Uiso   1.00
C1099  C     0.18888   0.52525   0.47990   0.00000  Uiso   1.00
C1100  C     0.31127   0.97514   0.52040   0.00000  Uiso   1.00
C1101  C     0.27433   0.93852   0.97960   0.00000  Uiso   1.00
C1102  C     0.22524   0.56131   0.02011   0.00000  Uiso   1.00
C1103  C     0.06189   0.72672   0.97988   0.00000  Uiso   1.00
C1104  C     0.43793   0.77277   0.02039   0.00000  Uiso   1.00
C1105  C     0.22568   0.56148   0.97960   0.00000  Uiso   1.00
C1106  C     0.27477   0.93869   0.02011   0.00000  Uiso   1.00
C1107  C     0.43812   0.77330   0.97988   0.00000  Uiso   1.00
C1108  C     0.06208   0.72726   0.02039   0.00000  Uiso   1.00
C1109  C     0.25000   0.50000   0.35575   0.00000  Uiso   1.00
C1110  C     0.25000   0.50000   0.64432   0.00000  Uiso   1.00
C1111  C     0.00000   0.75000   0.35568   0.00000  Uiso   1.00
C1112  C     0.00000   0.75000   0.64425   0.00000  Uiso   1.00
C1113  C    -0.00000   0.75000   0.85575   0.00000  Uiso   1.00
C1114  C     0.00000   0.75000   0.14432   0.00000  Uiso   1.00
C1115  C     0.25000   0.50000   0.85568   0.00000  Uiso   1.00
C1116  C     0.25000   0.50000   0.14425   0.00000  Uiso   1.00
C1117  C     0.18005   0.56995   0.25000   0.00000  Uiso   1.00
C1118  C     0.32007   0.92993   0.75000   0.00000  Uiso   1.00
C1119  C     0.42998   0.67998   0.25000   0.00000  Uiso   1.00
C1120  C     0.07003   0.82003   0.75000   0.00000  Uiso   1.00
C1121  C     0.31995   0.93005   0.25000   0.00000  Uiso   1.00
C1122  C     0.17993   0.57007   0.75000   0.00000  Uiso   1.00
C1123  C     0.07002   0.82001   0.25000   0.00000  Uiso   1.00
C1124  C     0.42997   0.67997   0.75000   0.00000  Uiso   1.00
C1125  C     0.17998   0.92998   0.75000   0.00000  Uiso   1.00
C1126  C     0.32003   0.57003   0.25000   0.00000  Uiso   1.00
C1127  C     0.43005   0.81994   0.75000   0.00000  Uiso   1.00
C1128  C     0.07006   0.67993   0.25000   0.00000  Uiso   1.00
C1129  C     0.32002   0.57002   0.75000   0.00000  Uiso   1.00
C1130  C     0.17997   0.92997   0.25000   0.00000  Uiso   1.00
C1131  C     0.06995   0.68006   0.75000   0.00000  Uiso   1.00
C1132  C     0.42994   0.82007   0.25000   0.00000  Uiso   1.00
C1133  C     0.11506   0.91173   0.24710   0.00000  Uiso   1.00
C1134  C     0.38496   0.58818   0.75242   0.00000  Uiso   1.00
C1135  C     0.08846   0.61485   0.25075   0.00000  Uiso   1.00
C1136  C     0.41204   0.88468   0.74850   0.00000  Uiso   1.00
C1137  C     0.38494   0.58827   0.24711   0.00000  Uiso   1.00
C1138  C     0.11504   0.91182   0.75242   0.00000  Uiso   1.00
C1139  C     0.41154   0.88514   0.25075   0.00000  Uiso   1.00
C1140  C     0.08796   0.61531   0.74850   0.00000  Uiso   1.00
C1141  C     0.11486   0.58846   0.74934   0.00000  Uiso   1.00
C1142  C     0.38469   0.91205   0.25159   0.00000  Uiso   1.00
C1143  C     0.08827   0.88494   0.75284   0.00000  Uiso   1.00
C1144  C     0.41181   0.61504   0.24753   0.00000  Uiso   1.00
C1145  C     0.38514   0.91154   0.74934   0.00000  Uiso   1.00
C1146  C     0.11531   0.58795   0.25159   0.00000  Uiso   1.00
C1147  C     0.41173   0.61506   0.75284   0.00000  Uiso   1.00
C1148  C     0.08819   0.88496   0.24752   0.00000  Uiso   1.00
C1149  C     0.36505   0.66173   0.74716   0.00000  Uiso   1.00
C1150  C     0.13497   0.83819   0.25253   0.00000  Uiso   1.00
C1151  C     0.33845   0.86487   0.75064   0.00000  Uiso   1.00
C1152  C     0.16204   0.63469   0.24840   0.00000  Uiso   1.00
C1153  C     0.13495   0.83827   0.74716   0.00000  Uiso   1.00
C1154  C     0.36503   0.66180   0.25252   0.00000  Uiso   1.00
C1155  C     0.16155   0.63513   0.75064   0.00000  Uiso   1.00
C1156  C     0.33796   0.86531   0.24840   0.00000  Uiso   1.00
C1157  C     0.36487   0.83847   0.24922   0.00000  Uiso   1.00
C1158  C     0.13471   0.66205   0.75144   0.00000  Uiso   1.00
C1159  C     0.33826   0.63493   0.25290   0.00000  Uiso   1.00
C1160  C     0.16182   0.86504   0.74757   0.00000  Uiso   1.00
C1161  C     0.13513   0.66153   0.24922   0.00000  Uiso   1.00
C1162  C     0.36529   0.83795   0.75143   0.00000  Uiso   1.00
C1163  C     0.16174   0.86507   0.25290   0.00000  Uiso   1.00
C1164  C     0.33818   0.63496   0.74757   0.00000  Uiso   1.00
C1165  C     0.01237   0.71907   0.45885   0.00000  Uiso   1.00
C1166  C     0.48642   0.78045   0.54093   0.00000  Uiso   1.00
C1167  C     0.28048   0.98649   0.45907   0.00000  Uiso   1.00
C1168  C     0.21903   0.51228   0.54116   0.00000  Uiso   1.00
C1169  C     0.48763   0.78093   0.45885   0.00000  Uiso   1.00
C1170  C     0.01359   0.71955   0.54093   0.00000  Uiso   1.00
C1171  C     0.21952   0.51352   0.45907   0.00000  Uiso   1.00
C1172  C     0.28097   0.98772   0.54115   0.00000  Uiso   1.00
C1173  C     0.26200   0.96892   0.95885   0.00000  Uiso   1.00
C1174  C     0.23672   0.53058   0.04093   0.00000  Uiso   1.00
C1175  C     0.03089   0.73745   0.95906   0.00000  Uiso   1.00
C1176  C     0.46862   0.76118   0.04114   0.00000  Uiso   1.00
C1177  C     0.23800   0.53108   0.95885   0.00000  Uiso   1.00
C1178  C     0.26328   0.96942   0.04093   0.00000  Uiso   1.00
C1179  C     0.46912   0.76256   0.95906   0.00000  Uiso   1.00
C1180  C     0.03138   0.73883   0.04114   0.00000  Uiso   1.00
C1181  C     0.09811   0.84811   0.25001   0.00000  Uiso   1.00
C1182  C     0.40188   0.65188   0.75000   0.00000  Uiso   1.00
C1183  C     0.15207   0.59793   0.25000   0.00000  Uiso   1.00
C1184  C     0.34825   0.90174   0.75000   0.00000  Uiso   1.00
C1185  C     0.40189   0.65189   0.25001   0.00000  Uiso   1.00
C1186  C     0.09812   0.84812   0.75000   0.00000  Uiso   1.00
C1187  C     0.34793   0.90207   0.25000   0.00000  Uiso   1.00
C1188  C     0.15175   0.59825   0.75000   0.00000  Uiso   1.00
C1189  C     0.09794   0.65207   0.74998   0.00000  Uiso   1.00
C1190  C     0.40175   0.84826   0.24999   0.00000  Uiso   1.00
C1191  C     0.15189   0.90190   0.75000   0.00000  Uiso   1.00
C1192  C     0.34811   0.59811   0.24999   0.00000  Uiso   1.00
C1193  C     0.40206   0.84793   0.74998   0.00000  Uiso   1.00
C1194  C     0.09825   0.65173   0.25000   0.00000  Uiso   1.00
C1195  C     0.34811   0.59810   0.75000   0.00000  Uiso   1.00
C1196  C     0.15189   0.90188   0.24999   0.00000  Uiso   1.00
C1197  C     0.00000   0.75000   0.47935   0.00000  Uiso   1.00
C1198  C     0.00000   0.75000   0.52045   0.00000  Uiso   1.00
C1199  C     0.25000   0.50000   0.47955   0.00000  Uiso   1.00
C1200  C     0.25000   0.50000   0.52065   0.00000  Uiso   1.00
C1201  C     0.25000   0.50000   0.97935   0.00000  Uiso   1.00
C1202  C     0.25000   0.50000   0.02045   0.00000  Uiso   1.00
C1203  C     0.00000   0.75000   0.97954   0.00000  Uiso   1.00
C1204  C     0.00000   0.75000   0.02064   0.00000  Uiso   1.00
N1205  N     0.10451   0.94909   0.24650   0.00000  Uiso   1.00
O1206  O     0.10475   0.96659   0.21357   0.00000  Uiso   1.00
O1207  O     0.08654   0.96237   0.27587   0.00000  Uiso   1.00
N1208  N     0.39553   0.55073   0.75277   0.00000  Uiso   1.00
O1209  O     0.38342   0.52890   0.72605   0.00000  Uiso   1.00
O1210  O     0.41932   0.53902   0.77784   0.00000  Uiso   1.00
N1211  N     0.05120   0.60450   0.25265   0.00000  Uiso   1.00
O1212  O     0.03253   0.60318   0.22053   0.00000  Uiso   1.00
O1213  O     0.03936   0.58760   0.28341   0.00000  Uiso   1.00
N1214  N     0.44945   0.89487   0.74482   0.00000  Uiso   1.00
O1215  O     0.46921   0.88109   0.71708   0.00000  Uiso   1.00
O1216  O     0.46307   0.91985   0.76722   0.00000  Uiso   1.00
N1217  N     0.39549   0.55090   0.24651   0.00000  Uiso   1.00
O1218  O     0.39525   0.53340   0.21359   0.00000  Uiso   1.00
O1219  O     0.41346   0.53763   0.27589   0.00000  Uiso   1.00
N1220  N     0.10447   0.94927   0.75278   0.00000  Uiso   1.00
O1221  O     0.11658   0.97110   0.72605   0.00000  Uiso   1.00
O1222  O     0.08068   0.96098   0.77784   0.00000  Uiso   1.00
N1223  N     0.44880   0.89550   0.25265   0.00000  Uiso   1.00
O1224  O     0.46747   0.89682   0.22053   0.00000  Uiso   1.00
O1225  O     0.46064   0.91239   0.28341   0.00000  Uiso   1.00
N1226  N     0.05055   0.60513   0.74482   0.00000  Uiso   1.00
O1227  O     0.03079   0.61891   0.71708   0.00000  Uiso   1.00
O1228  O     0.03693   0.58015   0.76722   0.00000  Uiso   1.00
N1229  N     0.10450   0.55121   0.74748   0.00000  Uiso   1.00
O1230  O     0.10320   0.53255   0.77961   0.00000  Uiso   1.00
O1231  O     0.08760   0.53934   0.71674   0.00000  Uiso   1.00
N1232  N     0.39487   0.94946   0.25532   0.00000  Uiso   1.00
O1233  O     0.38103   0.96920   0.28304   0.00000  Uiso   1.00
O1234  O     0.41987   0.96309   0.23296   0.00000  Uiso   1.00
N1235  N     0.05090   0.89549   0.75340   0.00000  Uiso   1.00
O1236  O     0.03338   0.89526   0.78632   0.00000  Uiso   1.00
O1237  O     0.03764   0.91345   0.72402   0.00000  Uiso   1.00
N1238  N     0.44927   0.60448   0.24714   0.00000  Uiso   1.00
O1239  O     0.47110   0.61653   0.27390   0.00000  Uiso   1.00
O1240  O     0.46096   0.58072   0.22204   0.00000  Uiso   1.00
N1241  N     0.39550   0.94879   0.74748   0.00000  Uiso   1.00
O1242  O     0.39680   0.96745   0.77961   0.00000  Uiso   1.00
O1243  O     0.41240   0.96066   0.71674   0.00000  Uiso   1.00
N1244  N     0.10513   0.55054   0.25532   0.00000  Uiso   1.00
O1245  O     0.11897   0.53079   0.28304   0.00000  Uiso   1.00
O1246  O     0.08014   0.53691   0.23296   0.00000  Uiso   1.00
N1247  N     0.44910   0.60451   0.75340   0.00000  Uiso   1.00
O1248  O     0.46662   0.60474   0.78632   0.00000  Uiso   1.00
O1249  O     0.46236   0.58655   0.72401   0.00000  Uiso   1.00
N1250  N     0.05074   0.89552   0.24712   0.00000  Uiso   1.00
O1251  O     0.02890   0.88348   0.27389   0.00000  Uiso   1.00
O1252  O     0.03904   0.91927   0.22201   0.00000  Uiso   1.00
N1253  N     0.35450   0.69909   0.74661   0.00000  Uiso   1.00
O1254  O     0.35476   0.71663   0.71370   0.00000  Uiso   1.00
O1255  O     0.33647   0.71232   0.77597   0.00000  Uiso   1.00
N1256  N     0.14554   0.80075   0.25306   0.00000  Uiso   1.00
O1257  O     0.13353   0.77883   0.22636   0.00000  Uiso   1.00
O1258  O     0.16925   0.78913   0.27826   0.00000  Uiso   1.00
N1259  N     0.30120   0.85451   0.75251   0.00000  Uiso   1.00
O1260  O     0.28254   0.85320   0.72038   0.00000  Uiso   1.00
O1261  O     0.28934   0.83762   0.78326   0.00000  Uiso   1.00
N1262  N     0.19945   0.64488   0.24465   0.00000  Uiso   1.00
O1263  O     0.21921   0.63100   0.21697   0.00000  Uiso   1.00
O1264  O     0.21306   0.66994   0.26694   0.00000  Uiso   1.00
N1265  N     0.14550   0.80091   0.74661   0.00000  Uiso   1.00
O1266  O     0.14524   0.78337   0.71370   0.00000  Uiso   1.00
O1267  O     0.16353   0.78768   0.77597   0.00000  Uiso   1.00
N1268  N     0.35446   0.69925   0.25303   0.00000  Uiso   1.00
O1269  O     0.36648   0.72116   0.22633   0.00000  Uiso   1.00
O1270  O     0.33074   0.71087   0.27822   0.00000  Uiso   1.00
N1271  N     0.19881   0.64549   0.75251   0.00000  Uiso   1.00
O1272  O     0.21746   0.64680   0.72038   0.00000  Uiso   1.00
O1273  O     0.21066   0.66238   0.78326   0.00000  Uiso   1.00
N1274  N     0.30055   0.85512   0.24466   0.00000  Uiso   1.00
O1275  O     0.28078   0.86899   0.21697   0.00000  Uiso   1.00
O1276  O     0.28694   0.83006   0.26695   0.00000  Uiso   1.00
N1277  N     0.35453   0.80122   0.24721   0.00000  Uiso   1.00
O1278  O     0.35303   0.78252   0.27930   0.00000  Uiso   1.00
O1279  O     0.33786   0.78940   0.21630   0.00000  Uiso   1.00
N1280  N     0.14492   0.69946   0.75497   0.00000  Uiso   1.00
O1281  O     0.13116   0.71933   0.78264   0.00000  Uiso   1.00
O1282  O     0.16989   0.71299   0.73250   0.00000  Uiso   1.00
N1283  N     0.30089   0.64548   0.25346   0.00000  Uiso   1.00
O1284  O     0.28336   0.64522   0.28637   0.00000  Uiso   1.00
O1285  O     0.28765   0.66348   0.22409   0.00000  Uiso   1.00
N1286  N     0.19928   0.85448   0.74718   0.00000  Uiso   1.00
O1287  O     0.22113   0.86658   0.77389   0.00000  Uiso   1.00
O1288  O     0.21096   0.83071   0.72208   0.00000  Uiso   1.00
N1289  N     0.14547   0.69878   0.24720   0.00000  Uiso   1.00
O1290  O     0.14698   0.71748   0.27929   0.00000  Uiso   1.00
O1291  O     0.16213   0.71060   0.21629   0.00000  Uiso   1.00
N1292  N     0.35508   0.80054   0.75497   0.00000  Uiso   1.00
O1293  O     0.36884   0.78067   0.78264   0.00000  Uiso   1.00
O1294  O     0.33011   0.78701   0.73250   0.00000  Uiso   1.00
N1295  N     0.19911   0.85452   0.25348   0.00000  Uiso   1.00
O1296  O     0.21664   0.85478   0.28639   0.00000  Uiso   1.00
O1297  O     0.21235   0.83651   0.22411   0.00000  Uiso   1.00
N1298  N     0.30072   0.64552   0.74718   0.00000  Uiso   1.00
O1299  O     0.27887   0.63342   0.77389   0.00000  Uiso   1.00
O1300  O     0.28904   0.66929   0.72208   0.00000  Uiso   1.00
O1301  O     0.47743   0.81149   0.39726   0.00000  Uiso   1.00
C1302  C     0.00762   0.83448   0.39173   0.00000  Uiso   1.00
H1303  H     0.02902   0.82060   0.37423   0.00000  Uiso   1.00
H1304  H     0.01937   0.84290   0.42027   0.00000  Uiso   1.00
C1305  C     0.49541   0.86840   0.36976   0.00000  Uiso   1.00
H1306  H     0.48569   0.86054   0.34027   0.00000  Uiso   1.00
H1307  H     0.47259   0.88147   0.38567   0.00000  Uiso   1.00
C1308  C     0.02636   0.89560   0.36578   0.00000  Uiso   1.00
H1309  H     0.03525   0.90502   0.39501   0.00000  Uiso   1.00
H1310  H     0.01698   0.91946   0.34876   0.00000  Uiso   1.00
H1311  H     0.04977   0.88303   0.35047   0.00000  Uiso   1.00
O1312  O     0.02760   0.69056   0.60261   0.00000  Uiso   1.00
C1313  C     0.06575   0.69264   0.60641   0.00000  Uiso   1.00
H1314  H     0.07442   0.71945   0.61807   0.00000  Uiso   1.00
H1315  H     0.07922   0.68841   0.57774   0.00000  Uiso   1.00
C1316  C     0.07834   0.66293   0.63444   0.00000  Uiso   1.00
H1317  H     0.06327   0.66546   0.66234   0.00000  Uiso   1.00
H1318  H     0.07219   0.63592   0.62167   0.00000  Uiso   1.00
C1319  C     0.11893   0.66539   0.64273   0.00000  Uiso   1.00
H1320  H     0.13464   0.66298   0.61521   0.00000  Uiso   1.00
H1321  H     0.12710   0.64299   0.66254   0.00000  Uiso   1.00
H1322  H     0.12542   0.69162   0.65705   0.00000  Uiso   1.00
O1323  O     0.19051   0.52749   0.39739   0.00000  Uiso   1.00
C1324  C     0.19254   0.56565   0.39360   0.00000  Uiso   1.00
H1325  H     0.21935   0.57435   0.38197   0.00000  Uiso   1.00
H1326  H     0.18824   0.57910   0.42226   0.00000  Uiso   1.00
C1327  C     0.16284   0.57819   0.36552   0.00000  Uiso   1.00
H1328  H     0.16544   0.56313   0.33762   0.00000  Uiso   1.00
H1329  H     0.13583   0.57199   0.37824   0.00000  Uiso   1.00
C1330  C     0.16525   0.61879   0.35724   0.00000  Uiso   1.00
H1331  H     0.16277   0.63448   0.38476   0.00000  Uiso   1.00
H1332  H     0.14285   0.62692   0.33740   0.00000  Uiso   1.00
H1333  H     0.19148   0.62532   0.34295   0.00000  Uiso   1.00
O1334  O     0.31157   0.97761   0.60274   0.00000  Uiso   1.00
C1335  C     0.33447   0.50787   0.60827   0.00000  Uiso   1.00
H1336  H     0.32054   0.52918   0.62584   0.00000  Uiso   1.00
H1337  H     0.34279   0.51970   0.57974   0.00000  Uiso   1.00
C1338  C     0.36848   0.99574   0.63013   0.00000  Uiso   1.00
H1339  H     0.36071   0.98588   0.65959   0.00000  Uiso   1.00
H1340  H     0.38162   0.97303   0.61410   0.00000  Uiso   1.00
C1341  C     0.39555   0.52679   0.63416   0.00000  Uiso   1.00
H1342  H     0.40488   0.53583   0.60495   0.00000  Uiso   1.00
H1343  H     0.41948   0.51746   0.65111   0.00000  Uiso   1.00
H1344  H     0.38290   0.55010   0.64960   0.00000  Uiso   1.00
O1345  O     0.02257   0.68851   0.39726   0.00000  Uiso   1.00
C1346  C     0.49238   0.66552   0.39173   0.00000  Uiso   1.00
H1347  H     0.47098   0.67940   0.37423   0.00000  Uiso   1.00
H1348  H     0.48063   0.65710   0.42027   0.00000  Uiso   1.00
C1349  C     0.00459   0.63159   0.36976   0.00000  Uiso   1.00
H1350  H     0.01431   0.63945   0.34028   0.00000  Uiso   1.00
H1351  H     0.02741   0.61853   0.38568   0.00000  Uiso   1.00
C1352  C     0.47364   0.60439   0.36579   0.00000  Uiso   1.00
H1353  H     0.46475   0.59497   0.39503   0.00000  Uiso   1.00
H1354  H     0.48302   0.58053   0.34877   0.00000  Uiso   1.00
H1355  H     0.45023   0.61696   0.35048   0.00000  Uiso   1.00
O1356  O     0.47240   0.80944   0.60261   0.00000  Uiso   1.00
C1357  C     0.43425   0.80736   0.60641   0.00000  Uiso   1.00
H1358  H     0.42558   0.78055   0.61807   0.00000  Uiso   1.00
H1359  H     0.42078   0.81159   0.57774   0.00000  Uiso   1.00
C1360  C     0.42166   0.83707   0.63444   0.00000  Uiso   1.00
H1361  H     0.43673   0.83454   0.66234   0.00000  Uiso   1.00
H1362  H     0.42781   0.86408   0.62167   0.00000  Uiso   1.00
C1363  C     0.38107   0.83461   0.64273   0.00000  Uiso   1.00
H1364  H     0.36537   0.83702   0.61521   0.00000  Uiso   1.00
H1365  H     0.37290   0.85701   0.66254   0.00000  Uiso   1.00
H1366  H     0.37458   0.80839   0.65705   0.00000  Uiso   1.00
O1367  O     0.30949   0.97251   0.39739   0.00000  Uiso   1.00
C1368  C     0.30747   0.93436   0.39359   0.00000  Uiso   1.00
H1369  H     0.28066   0.92565   0.38197   0.00000  Uiso   1.00
H1370  H     0.31177   0.92090   0.42225   0.00000  Uiso   1.00
C1371  C     0.33717   0.92182   0.36551   0.00000  Uiso   1.00
H1372  H     0.33456   0.93687   0.33762   0.00000  Uiso   1.00
H1373  H     0.36418   0.92802   0.37824   0.00000  Uiso   1.00
C1374  C     0.33477   0.88122   0.35724   0.00000  Uiso   1.00
H1375  H     0.33725   0.86553   0.38476   0.00000  Uiso   1.00
H1376  H     0.35717   0.87309   0.33739   0.00000  Uiso   1.00
H1377  H     0.30854   0.87468   0.34296   0.00000  Uiso   1.00
O1378  O     0.18843   0.52239   0.60274   0.00000  Uiso   1.00
C1379  C     0.16554   0.99212   0.60827   0.00000  Uiso   1.00
H1380  H     0.17946   0.97081   0.62584   0.00000  Uiso   1.00
H1381  H     0.15721   0.98030   0.57973   0.00000  Uiso   1.00
C1382  C     0.13152   0.50425   0.63013   0.00000  Uiso   1.00
H1383  H     0.13929   0.51411   0.65959   0.00000  Uiso   1.00
H1384  H     0.11838   0.52696   0.61411   0.00000  Uiso   1.00
C1385  C     0.10445   0.97320   0.63417   0.00000  Uiso   1.00
H1386  H     0.09512   0.96416   0.60495   0.00000  Uiso   1.00
H1387  H     0.08052   0.98252   0.65111   0.00000  Uiso   1.00
H1388  H     0.11711   0.94989   0.64960   0.00000  Uiso   1.00
O1389  O     0.22824   0.56179   0.89727   0.00000  Uiso   1.00
C1390  C     0.25875   0.58436   0.89172   0.00000  Uiso   1.00
H1391  H     0.27983   0.57024   0.87400   0.00000  Uiso   1.00
H1392  H     0.27078   0.59244   0.92024   0.00000  Uiso   1.00
C1393  C     0.24694   0.61859   0.87007   0.00000  Uiso   1.00
H1394  H     0.23670   0.61105   0.84069   0.00000  Uiso   1.00
H1395  H     0.22457   0.63204   0.88636   0.00000  Uiso   1.00
C1396  C     0.27837   0.64519   0.86577   0.00000  Uiso   1.00
H1397  H     0.28787   0.65426   0.89491   0.00000  Uiso   1.00
H1398  H     0.26924   0.66933   0.84904   0.00000  Uiso   1.00
H1399  H     0.30132   0.63224   0.84999   0.00000  Uiso   1.00
O1400  O     0.27714   0.94035   0.10261   0.00000  Uiso   1.00
C1401  C     0.31531   0.94221   0.10638   0.00000  Uiso   1.00
H1402  H     0.32416   0.96902   0.11790   0.00000  Uiso   1.00
H1403  H     0.32872   0.93774   0.07773   0.00000  Uiso   1.00
C1404  C     0.32772   0.91256   0.13458   0.00000  Uiso   1.00
H1405  H     0.31271   0.91537   0.16249   0.00000  Uiso   1.00
H1406  H     0.32135   0.88553   0.12199   0.00000  Uiso   1.00
C1407  C     0.36835   0.91477   0.14279   0.00000  Uiso   1.00
H1408  H     0.38399   0.91211   0.11526   0.00000  Uiso   1.00
H1409  H     0.37638   0.89241   0.16271   0.00000  Uiso   1.00
H1410  H     0.37504   0.94102   0.15694   0.00000  Uiso   1.00
O1411  O     0.43983   0.77593   0.89737   0.00000  Uiso   1.00
C1412  C     0.44104   0.81412   0.89360   0.00000  Uiso   1.00
H1413  H     0.46776   0.82346   0.88230   0.00000  Uiso   1.00
H1414  H     0.43611   0.82743   0.92223   0.00000  Uiso   1.00
C1415  C     0.41140   0.82602   0.86514   0.00000  Uiso   1.00
H1416  H     0.41484   0.81123   0.83718   0.00000  Uiso   1.00
H1417  H     0.38439   0.81897   0.87737   0.00000  Uiso   1.00
C1418  C     0.41277   0.86673   0.85721   0.00000  Uiso   1.00
H1419  H     0.40947   0.88215   0.88481   0.00000  Uiso   1.00
H1420  H     0.39042   0.87436   0.83708   0.00000  Uiso   1.00
H1421  H     0.43899   0.87410   0.84340   0.00000  Uiso   1.00
O1422  O     0.06241   0.73005   0.10270   0.00000  Uiso   1.00
C1423  C     0.08403   0.76124   0.10828   0.00000  Uiso   1.00
H1424  H     0.06933   0.78177   0.12619   0.00000  Uiso   1.00
H1425  H     0.09158   0.77365   0.07978   0.00000  Uiso   1.00
C1426  C     0.11874   0.75044   0.12966   0.00000  Uiso   1.00
H1427  H     0.11166   0.73937   0.15882   0.00000  Uiso   1.00
H1428  H     0.13304   0.72892   0.11288   0.00000  Uiso   1.00
C1429  C     0.14405   0.78283   0.13460   0.00000  Uiso   1.00
H1430  H     0.15248   0.79340   0.10566   0.00000  Uiso   1.00
H1431  H     0.16867   0.77432   0.15087   0.00000  Uiso   1.00
H1432  H     0.13029   0.80483   0.15113   0.00000  Uiso   1.00
O1433  O     0.27177   0.93821   0.89727   0.00000  Uiso   1.00
C1434  C     0.24126   0.91564   0.89172   0.00000  Uiso   1.00
H1435  H     0.22017   0.92975   0.87403   0.00000  Uiso   1.00
H1436  H     0.22926   0.90754   0.92025   0.00000  Uiso   1.00
C1437  C     0.25307   0.88142   0.87004   0.00000  Uiso   1.00
H1438  H     0.26328   0.88899   0.84065   0.00000  Uiso   1.00
H1439  H     0.27546   0.86798   0.88630   0.00000  Uiso   1.00
C1440  C     0.22165   0.85480   0.86576   0.00000  Uiso   1.00
H1441  H     0.21219   0.84571   0.89490   0.00000  Uiso   1.00
H1442  H     0.23078   0.83068   0.84901   0.00000  Uiso   1.00
H1443  H     0.19868   0.86775   0.85001   0.00000  Uiso   1.00
O1444  O     0.22286   0.55965   0.10262   0.00000  Uiso   1.00
C1445  C     0.18469   0.55779   0.10638   0.00000  Uiso   1.00
H1446  H     0.17584   0.53098   0.11790   0.00000  Uiso   1.00
H1447  H     0.17128   0.56226   0.07773   0.00000  Uiso   1.00
C1448  C     0.17228   0.58744   0.13459   0.00000  Uiso   1.00
H1449  H     0.18729   0.58462   0.16249   0.00000  Uiso   1.00
H1450  H     0.17866   0.61447   0.12201   0.00000  Uiso   1.00
C1451  C     0.13166   0.58523   0.14278   0.00000  Uiso   1.00
H1452  H     0.11602   0.58791   0.11525   0.00000  Uiso   1.00
H1453  H     0.12363   0.60759   0.16272   0.00000  Uiso   1.00
H1454  H     0.12495   0.55898   0.15693   0.00000  Uiso   1.00
O1455  O     0.06017   0.72408   0.89737   0.00000  Uiso   1.00
C1456  C     0.05897   0.68589   0.89361   0.00000  Uiso   1.00
H1457  H     0.03224   0.67655   0.88231   0.00000  Uiso   1.00
H1458  H     0.06391   0.67258   0.92223   0.00000  Uiso   1.00
C1459  C     0.08861   0.67399   0.86514   0.00000  Uiso   1.00
H1460  H     0.08515   0.68878   0.83718   0.00000  Uiso   1.00
H1461  H     0.11561   0.68105   0.87736   0.00000  Uiso   1.00
C1462  C     0.08725   0.63328   0.85722   0.00000  Uiso   1.00
H1463  H     0.09055   0.61786   0.88481   0.00000  Uiso   1.00
H1464  H     0.10959   0.62565   0.83708   0.00000  Uiso   1.00
H1465  H     0.06102   0.62591   0.84341   0.00000  Uiso   1.00
O1466  O     0.43762   0.77003   0.10271   0.00000  Uiso   1.00
C1467  C     0.41593   0.73890   0.10828   0.00000  Uiso   1.00
H1468  H     0.43060   0.71829   0.12611   0.00000  Uiso   1.00
H1469  H     0.40828   0.72656   0.07977   0.00000  Uiso   1.00
C1470  C     0.38130   0.74977   0.12977   0.00000  Uiso   1.00
H1471  H     0.38848   0.76066   0.15898   0.00000  Uiso   1.00
H1472  H     0.36708   0.77142   0.11314   0.00000  Uiso   1.00
C1473  C     0.35584   0.71747   0.13459   0.00000  Uiso   1.00
H1474  H     0.34727   0.70712   0.10561   0.00000  Uiso   1.00
H1475  H     0.33129   0.72603   0.15098   0.00000  Uiso   1.00
H1476  H     0.36952   0.69531   0.15094   0.00000  Uiso   1.00
Zn1477 Zn    0.70660   0.50000   0.21735   0.00000  Uiso   1.00
Zn1478 Zn    0.79341   0.50000   0.78265   0.00000  Uiso   1.00
Zn1479 Zn    0.50000   0.70659   0.21735   0.00000  Uiso   1.00
Zn1480 Zn    0.50000   0.79340   0.78265   0.00000  Uiso   1.00
Zn1481 Zn    0.79341   0.50000   0.21735   0.00000  Uiso   1.00
Zn1482 Zn    0.70660   0.50000   0.78265   0.00000  Uiso   1.00
Zn1483 Zn    0.50000   0.79340   0.21735   0.00000  Uiso   1.00
Zn1484 Zn    0.50000   0.70659   0.78265   0.00000  Uiso   1.00
Zn1485 Zn    0.95660   0.75000   0.71735   0.00000  Uiso   1.00
Zn1486 Zn    0.54341   0.75000   0.28265   0.00000  Uiso   1.00
Zn1487 Zn    0.75000   0.95659   0.71735   0.00000  Uiso   1.00
Zn1488 Zn    0.75000   0.54340   0.28265   0.00000  Uiso   1.00
Zn1489 Zn    0.54341   0.75000   0.71735   0.00000  Uiso   1.00
Zn1490 Zn    0.95660   0.75000   0.28265   0.00000  Uiso   1.00
Zn1491 Zn    0.75000   0.54340   0.71735   0.00000  Uiso   1.00
Zn1492 Zn    0.75000   0.95659   0.28265   0.00000  Uiso   1.00
C1493  C     0.98866   0.78121   0.41794   0.00000  Uiso   1.00
C1494  C     0.51511   0.72034   0.58183   0.00000  Uiso   1.00
C1495  C     0.72030   0.51505   0.41817   0.00000  Uiso   1.00
C1496  C     0.78124   0.98875   0.58206   0.00000  Uiso   1.00
C1497  C     0.51134   0.71879   0.41794   0.00000  Uiso   1.00
C1498  C     0.98489   0.77966   0.58183   0.00000  Uiso   1.00
C1499  C     0.77970   0.98495   0.41817   0.00000  Uiso   1.00
C1500  C     0.71876   0.51125   0.58206   0.00000  Uiso   1.00
C1501  C     0.73906   0.53135   0.91795   0.00000  Uiso   1.00
C1502  C     0.76484   0.97020   0.08183   0.00000  Uiso   1.00
C1503  C     0.96988   0.76417   0.91816   0.00000  Uiso   1.00
C1504  C     0.53165   0.73996   0.08204   0.00000  Uiso   1.00
C1505  C     0.76094   0.96865   0.91795   0.00000  Uiso   1.00
C1506  C     0.73516   0.52980   0.08183   0.00000  Uiso   1.00
C1507  C     0.53012   0.73584   0.91816   0.00000  Uiso   1.00
C1508  C     0.96836   0.76006   0.08205   0.00000  Uiso   1.00
C1509  C     0.50000   0.75000   0.39791   0.00000  Uiso   1.00
C1510  C     0.50000   0.75000   0.60190   0.00000  Uiso   1.00
C1511  C     0.75000   0.50000   0.39810   0.00000  Uiso   1.00
C1512  C     0.75000   0.50000   0.60209   0.00000  Uiso   1.00
C1513  C     0.75000   0.50000   0.89791   0.00000  Uiso   1.00
C1514  C     0.75000   0.50000   0.10190   0.00000  Uiso   1.00
C1515  C     0.50000   0.75000   0.89809   0.00000  Uiso   1.00
C1516  C     0.50000   0.75000   0.10208   0.00000  Uiso   1.00
O1517  O     0.75000   0.50000   0.25000   0.00000  Uiso   1.00
O1518  O     0.75000   0.50000   0.75000   0.00000  Uiso   1.00
O1519  O     0.50000   0.75000   0.25000   0.00000  Uiso   1.00
O1520  O     0.50000   0.75000   0.75000   0.00000  Uiso   1.00
O1521  O     0.75000   0.96963   0.33755   0.00000  Uiso   1.00
O1522  O     0.75000   0.53036   0.66245   0.00000  Uiso   1.00
O1523  O     0.53037   0.75000   0.33755   0.00000  Uiso   1.00
O1524  O     0.96964   0.75000   0.66245   0.00000  Uiso   1.00
O1525  O     0.75000   0.53036   0.33755   0.00000  Uiso   1.00
O1526  O     0.75000   0.96963   0.66245   0.00000  Uiso   1.00
O1527  O     0.96964   0.75000   0.33755   0.00000  Uiso   1.00
O1528  O     0.53037   0.75000   0.66245   0.00000  Uiso   1.00
O1529  O     0.50000   0.71963   0.83755   0.00000  Uiso   1.00
O1530  O     0.50000   0.78036   0.16245   0.00000  Uiso   1.00
O1531  O     0.78037   0.50000   0.83755   0.00000  Uiso   1.00
O1532  O     0.71964   0.50000   0.16245   0.00000  Uiso   1.00
O1533  O     0.50000   0.78036   0.83755   0.00000  Uiso   1.00
O1534  O     0.50000   0.71963   0.16245   0.00000  Uiso   1.00
O1535  O     0.71964   0.50000   0.83755   0.00000  Uiso   1.00
O1536  O     0.78037   0.50000   0.16245   0.00000  Uiso   1.00
H1537  H     0.53471   0.66479   0.46463   0.00000  Uiso   1.00
H1538  H     0.96509   0.83517   0.53497   0.00000  Uiso   1.00
H1539  H     0.83526   0.96529   0.46503   0.00000  Uiso   1.00
H1540  H     0.66470   0.53448   0.53537   0.00000  Uiso   1.00
H1541  H     0.96529   0.83521   0.46463   0.00000  Uiso   1.00
H1542  H     0.53491   0.66483   0.53497   0.00000  Uiso   1.00
H1543  H     0.66475   0.53471   0.46503   0.00000  Uiso   1.00
H1544  H     0.83530   0.96552   0.53537   0.00000  Uiso   1.00
H1545  H     0.78373   0.91440   0.96463   0.00000  Uiso   1.00
H1546  H     0.71596   0.58551   0.03498   0.00000  Uiso   1.00
H1547  H     0.58629   0.71798   0.96499   0.00000  Uiso   1.00
H1548  H     0.91357   0.78154   0.03536   0.00000  Uiso   1.00
H1549  H     0.71628   0.58560   0.96463   0.00000  Uiso   1.00
H1550  H     0.78405   0.91449   0.03498   0.00000  Uiso   1.00
H1551  H     0.91372   0.78205   0.96499   0.00000  Uiso   1.00
H1552  H     0.58644   0.71850   0.03536   0.00000  Uiso   1.00
O1553  O     0.70725   0.57307   0.27302   0.00000  Uiso   1.00
O1554  O     0.79276   0.92692   0.72698   0.00000  Uiso   1.00
O1555  O     0.92693   0.70724   0.27302   0.00000  Uiso   1.00
O1556  O     0.57308   0.79275   0.72698   0.00000  Uiso   1.00
O1557  O     0.79276   0.92692   0.27302   0.00000  Uiso   1.00
O1558  O     0.70725   0.57307   0.72698   0.00000  Uiso   1.00
O1559  O     0.57308   0.79275   0.27302   0.00000  Uiso   1.00
O1560  O     0.92693   0.70724   0.72698   0.00000  Uiso   1.00
O1561  O     0.70725   0.92692   0.72698   0.00000  Uiso   1.00
O1562  O     0.79276   0.57307   0.27302   0.00000  Uiso   1.00
O1563  O     0.92693   0.79275   0.72698   0.00000  Uiso   1.00
O1564  O     0.57308   0.70724   0.27302   0.00000  Uiso   1.00
O1565  O     0.79276   0.57307   0.72698   0.00000  Uiso   1.00
O1566  O     0.70725   0.92692   0.27302   0.00000  Uiso   1.00
O1567  O     0.57308   0.70724   0.72698   0.00000  Uiso   1.00
O1568  O     0.92693   0.79275   0.27302   0.00000  Uiso   1.00
O1569  O     0.95725   0.82307   0.77302   0.00000  Uiso   1.00
O1570  O     0.54276   0.67692   0.22698   0.00000  Uiso   1.00
O1571  O     0.67693   0.95724   0.77302   0.00000  Uiso   1.00
O1572  O     0.82308   0.54275   0.22698   0.00000  Uiso   1.00
O1573  O     0.54276   0.67692   0.77302   0.00000  Uiso   1.00
O1574  O     0.95725   0.82307   0.22698   0.00000  Uiso   1.00
O1575  O     0.82308   0.54275   0.77302   0.00000  Uiso   1.00
O1576  O     0.67693   0.95724   0.22698   0.00000  Uiso   1.00
O1577  O     0.95725   0.67692   0.22698   0.00000  Uiso   1.00
O1578  O     0.54276   0.82307   0.77302   0.00000  Uiso   1.00
O1579  O     0.67693   0.54275   0.22698   0.00000  Uiso   1.00
O1580  O     0.82308   0.95724   0.77302   0.00000  Uiso   1.00
O1581  O     0.54276   0.82307   0.22698   0.00000  Uiso   1.00
O1582  O     0.95725   0.67692   0.77302   0.00000  Uiso   1.00
O1583  O     0.82308   0.95724   0.22698   0.00000  Uiso   1.00
O1584  O     0.67693   0.54275   0.77302   0.00000  Uiso   1.00
C1585  C     0.52502   0.68880   0.47960   0.00000  Uiso   1.00
C1586  C     0.97460   0.81105   0.52010   0.00000  Uiso   1.00
C1587  C     0.81112   0.97475   0.47989   0.00000  Uiso   1.00
C1588  C     0.68873   0.52486   0.52040   0.00000  Uiso   1.00
C1589  C     0.97498   0.81120   0.47960   0.00000  Uiso   1.00
C1590  C     0.52540   0.68895   0.52010   0.00000  Uiso   1.00
C1591  C     0.68888   0.52525   0.47990   0.00000  Uiso   1.00
C1592  C     0.81127   0.97514   0.52040   0.00000  Uiso   1.00
C1593  C     0.77433   0.93852   0.97960   0.00000  Uiso   1.00
C1594  C     0.72524   0.56131   0.02011   0.00000  Uiso   1.00
C1595  C     0.56189   0.72672   0.97988   0.00000  Uiso   1.00
C1596  C     0.93793   0.77277   0.02039   0.00000  Uiso   1.00
C1597  C     0.72568   0.56148   0.97960   0.00000  Uiso   1.00
C1598  C     0.77477   0.93869   0.02011   0.00000  Uiso   1.00
C1599  C     0.93812   0.77330   0.97988   0.00000  Uiso   1.00
C1600  C     0.56208   0.72726   0.02039   0.00000  Uiso   1.00
C1601  C     0.75000   0.50000   0.35575   0.00000  Uiso   1.00
C1602  C     0.75000   0.50000   0.64432   0.00000  Uiso   1.00
C1603  C     0.50000   0.75000   0.35568   0.00000  Uiso   1.00
C1604  C     0.50000   0.75000   0.64425   0.00000  Uiso   1.00
C1605  C     0.50000   0.75000   0.85575   0.00000  Uiso   1.00
C1606  C     0.50000   0.75000   0.14432   0.00000  Uiso   1.00
C1607  C     0.75000   0.50000   0.85568   0.00000  Uiso   1.00
C1608  C     0.75000   0.50000   0.14425   0.00000  Uiso   1.00
C1609  C     0.68005   0.56995   0.25000   0.00000  Uiso   1.00
C1610  C     0.82007   0.92993   0.75000   0.00000  Uiso   1.00
C1611  C     0.92998   0.67998   0.25000   0.00000  Uiso   1.00
C1612  C     0.57003   0.82003   0.75000   0.00000  Uiso   1.00
C1613  C     0.81995   0.93005   0.25000   0.00000  Uiso   1.00
C1614  C     0.67993   0.57007   0.75000   0.00000  Uiso   1.00
C1615  C     0.57002   0.82001   0.25000   0.00000  Uiso   1.00
C1616  C     0.92997   0.67997   0.75000   0.00000  Uiso   1.00
C1617  C     0.67998   0.92998   0.75000   0.00000  Uiso   1.00
C1618  C     0.82003   0.57003   0.25000   0.00000  Uiso   1.00
C1619  C     0.93005   0.81994   0.75000   0.00000  Uiso   1.00
C1620  C     0.57006   0.67993   0.25000   0.00000  Uiso   1.00
C1621  C     0.82002   0.57002   0.75000   0.00000  Uiso   1.00
C1622  C     0.67997   0.92997   0.25000   0.00000  Uiso   1.00
C1623  C     0.56995   0.68006   0.75000   0.00000  Uiso   1.00
C1624  C     0.92994   0.82007   0.25000   0.00000  Uiso   1.00
C1625  C     0.61506   0.91173   0.24710   0.00000  Uiso   1.00
C1626  C     0.88496   0.58818   0.75242   0.00000  Uiso   1.00
C1627  C     0.58846   0.61485   0.25075   0.00000  Uiso   1.00
C1628  C     0.91204   0.88468   0.74850   0.00000  Uiso   1.00
C1629  C     0.88494   0.58827   0.24711   0.00000  Uiso   1.00
C1630  C     0.61504   0.91182   0.75242   0.00000  Uiso   1.00
C1631  C     0.91154   0.88514   0.25075   0.00000  Uiso   1.00
C1632  C     0.58796   0.61531   0.74850   0.00000  Uiso   1.00
C1633  C     0.61486   0.58846   0.74934   0.00000  Uiso   1.00
C1634  C     0.88469   0.91205   0.25159   0.00000  Uiso   1.00
C1635  C     0.58827   0.88494   0.75284   0.00000  Uiso   1.00
C1636  C     0.91181   0.61504   0.24753   0.00000  Uiso   1.00
C1637  C     0.88514   0.91154   0.74934   0.00000  Uiso   1.00
C1638  C     0.61531   0.58795   0.25159   0.00000  Uiso   1.00
C1639  C     0.91173   0.61506   0.75284   0.00000  Uiso   1.00
C1640  C     0.58819   0.88496   0.24752   0.00000  Uiso   1.00
C1641  C     0.86505   0.66173   0.74716   0.00000  Uiso   1.00
C1642  C     0.63497   0.83819   0.25253   0.00000  Uiso   1.00
C1643  C     0.83845   0.86487   0.75064   0.00000  Uiso   1.00
C1644  C     0.66204   0.63469   0.24840   0.00000  Uiso   1.00
C1645  C     0.63495   0.83827   0.74716   0.00000  Uiso   1.00
C1646  C     0.86503   0.66180   0.25252   0.00000  Uiso   1.00
C1647  C     0.66155   0.63513   0.75064   0.00000  Uiso   1.00
C1648  C     0.83796   0.86531   0.24840   0.00000  Uiso   1.00
C1649  C     0.86487   0.83847   0.24922   0.00000  Uiso   1.00
C1650  C     0.63471   0.66205   0.75144   0.00000  Uiso   1.00
C1651  C     0.83826   0.63493   0.25290   0.00000  Uiso   1.00
C1652  C     0.66182   0.86504   0.74757   0.00000  Uiso   1.00
C1653  C     0.63513   0.66153   0.24922   0.00000  Uiso   1.00
C1654  C     0.86529   0.83795   0.75143   0.00000  Uiso   1.00
C1655  C     0.66174   0.86507   0.25290   0.00000  Uiso   1.00
C1656  C     0.83818   0.63496   0.74757   0.00000  Uiso   1.00
C1657  C     0.51237   0.71907   0.45885   0.00000  Uiso   1.00
C1658  C     0.98642   0.78045   0.54093   0.00000  Uiso   1.00
C1659  C     0.78048   0.98649   0.45907   0.00000  Uiso   1.00
C1660  C     0.71903   0.51228   0.54116   0.00000  Uiso   1.00
C1661  C     0.98763   0.78093   0.45885   0.00000  Uiso   1.00
C1662  C     0.51359   0.71955   0.54093   0.00000  Uiso   1.00
C1663  C     0.71952   0.51352   0.45907   0.00000  Uiso   1.00
C1664  C     0.78097   0.98772   0.54115   0.00000  Uiso   1.00
C1665  C     0.76200   0.96892   0.95885   0.00000  Uiso   1.00
C1666  C     0.73672   0.53058   0.04093   0.00000  Uiso   1.00
C1667  C     0.53089   0.73745   0.95906   0.00000  Uiso   1.00
C1668  C     0.96862   0.76118   0.04114   0.00000  Uiso   1.00
C1669  C     0.73800   0.53108   0.95885   0.00000  Uiso   1.00
C1670  C     0.76328   0.96942   0.04093   0.00000  Uiso   1.00
C1671  C     0.96912   0.76256   0.95906   0.00000  Uiso   1.00
C1672  C     0.53138   0.73883   0.04114   0.00000  Uiso   1.00
C1673  C     0.59811   0.84811   0.25001   0.00000  Uiso   1.00
C1674  C     0.90188   0.65188   0.75000   0.00000  Uiso   1.00
C1675  C     0.65207   0.59793   0.25000   0.00000  Uiso   1.00
C1676  C     0.84825   0.90174   0.75000   0.00000  Uiso   1.00
C1677  C     0.90189   0.65189   0.25001   0.00000  Uiso   1.00
C1678  C     0.59812   0.84812   0.75000   0.00000  Uiso   1.00
C1679  C     0.84793   0.90207   0.25000   0.00000  Uiso   1.00
C1680  C     0.65175   0.59825   0.75000   0.00000  Uiso   1.00
C1681  C     0.59794   0.65207   0.74998   0.00000  Uiso   1.00
C1682  C     0.90175   0.84826   0.24999   0.00000  Uiso   1.00
C1683  C     0.65189   0.90190   0.75000   0.00000  Uiso   1.00
C1684  C     0.84811   0.59811   0.24999   0.00000  Uiso   1.00
C1685  C     0.90206   0.84793   0.74998   0.00000  Uiso   1.00
C1686  C     0.59825   0.65173   0.25000   0.00000  Uiso   1.00
C1687  C     0.84811   0.59810   0.75000   0.00000  Uiso   1.00
C1688  C     0.65189   0.90188   0.24999   0.00000  Uiso   1.00
C1689  C     0.50000   0.75000   0.47935   0.00000  Uiso   1.00
C1690  C     0.50000   0.75000   0.52045   0.00000  Uiso   1.00
C1691  C     0.75000   0.50000   0.47955   0.00000  Uiso   1.00
C1692  C     0.75000   0.50000   0.52065   0.00000  Uiso   1.00
C1693  C     0.75000   0.50000   0.97935   0.00000  Uiso   1.00
C1694  C     0.75000   0.50000   0.02045   0.00000  Uiso   1.00
C1695  C     0.50000   0.75000   0.97954   0.00000  Uiso   1.00
C1696  C     0.50000   0.75000   0.02064   0.00000  Uiso   1.00
N1697  N     0.60451   0.94909   0.24650   0.00000  Uiso   1.00
O1698  O     0.60475   0.96659   0.21357   0.00000  Uiso   1.00
O1699  O     0.58654   0.96237   0.27587   0.00000  Uiso   1.00
N1700  N     0.89553   0.55073   0.75277   0.00000  Uiso   1.00
O1701  O     0.88342   0.52890   0.72605   0.00000  Uiso   1.00
O1702  O     0.91932   0.53902   0.77784   0.00000  Uiso   1.00
N1703  N     0.55120   0.60450   0.25265   0.00000  Uiso   1.00
O1704  O     0.53253   0.60318   0.22053   0.00000  Uiso   1.00
O1705  O     0.53936   0.58760   0.28341   0.00000  Uiso   1.00
N1706  N     0.94945   0.89487   0.74482   0.00000  Uiso   1.00
O1707  O     0.96921   0.88109   0.71708   0.00000  Uiso   1.00
O1708  O     0.96307   0.91985   0.76722   0.00000  Uiso   1.00
N1709  N     0.89549   0.55090   0.24651   0.00000  Uiso   1.00
O1710  O     0.89525   0.53340   0.21359   0.00000  Uiso   1.00
O1711  O     0.91346   0.53763   0.27589   0.00000  Uiso   1.00
N1712  N     0.60447   0.94927   0.75278   0.00000  Uiso   1.00
O1713  O     0.61658   0.97110   0.72605   0.00000  Uiso   1.00
O1714  O     0.58068   0.96098   0.77784   0.00000  Uiso   1.00
N1715  N     0.94880   0.89550   0.25265   0.00000  Uiso   1.00
O1716  O     0.96747   0.89682   0.22053   0.00000  Uiso   1.00
O1717  O     0.96064   0.91239   0.28341   0.00000  Uiso   1.00
N1718  N     0.55055   0.60513   0.74482   0.00000  Uiso   1.00
O1719  O     0.53079   0.61891   0.71708   0.00000  Uiso   1.00
O1720  O     0.53693   0.58015   0.76722   0.00000  Uiso   1.00
N1721  N     0.60450   0.55121   0.74748   0.00000  Uiso   1.00
O1722  O     0.60320   0.53255   0.77961   0.00000  Uiso   1.00
O1723  O     0.58760   0.53934   0.71674   0.00000  Uiso   1.00
N1724  N     0.89487   0.94946   0.25532   0.00000  Uiso   1.00
O1725  O     0.88103   0.96920   0.28304   0.00000  Uiso   1.00
O1726  O     0.91987   0.96309   0.23296   0.00000  Uiso   1.00
N1727  N     0.55090   0.89549   0.75340   0.00000  Uiso   1.00
O1728  O     0.53338   0.89526   0.78632   0.00000  Uiso   1.00
O1729  O     0.53764   0.91345   0.72402   0.00000  Uiso   1.00
N1730  N     0.94927   0.60448   0.24714   0.00000  Uiso   1.00
O1731  O     0.97110   0.61653   0.27390   0.00000  Uiso   1.00
O1732  O     0.96096   0.58072   0.22204   0.00000  Uiso   1.00
N1733  N     0.89550   0.94879   0.74748   0.00000  Uiso   1.00
O1734  O     0.89680   0.96745   0.77961   0.00000  Uiso   1.00
O1735  O     0.91240   0.96066   0.71674   0.00000  Uiso   1.00
N1736  N     0.60513   0.55054   0.25532   0.00000  Uiso   1.00
O1737  O     0.61897   0.53079   0.28304   0.00000  Uiso   1.00
O1738  O     0.58014   0.53691   0.23296   0.00000  Uiso   1.00
N1739  N     0.94910   0.60451   0.75340   0.00000  Uiso   1.00
O1740  O     0.96662   0.60474   0.78632   0.00000  Uiso   1.00
O1741  O     0.96236   0.58655   0.72401   0.00000  Uiso   1.00
N1742  N     0.55074   0.89552   0.24712   0.00000  Uiso   1.00
O1743  O     0.52890   0.88348   0.27389   0.00000  Uiso   1.00
O1744  O     0.53904   0.91927   0.22201   0.00000  Uiso   1.00
N1745  N     0.85450   0.69909   0.74661   0.00000  Uiso   1.00
O1746  O     0.85476   0.71663   0.71370   0.00000  Uiso   1.00
O1747  O     0.83647   0.71232   0.77597   0.00000  Uiso   1.00
N1748  N     0.64554   0.80075   0.25306   0.00000  Uiso   1.00
O1749  O     0.63353   0.77883   0.22636   0.00000  Uiso   1.00
O1750  O     0.66925   0.78913   0.27826   0.00000  Uiso   1.00
N1751  N     0.80120   0.85451   0.75251   0.00000  Uiso   1.00
O1752  O     0.78254   0.85320   0.72038   0.00000  Uiso   1.00
O1753  O     0.78934   0.83762   0.78326   0.00000  Uiso   1.00
N1754  N     0.69945   0.64488   0.24465   0.00000  Uiso   1.00
O1755  O     0.71921   0.63100   0.21697   0.00000  Uiso   1.00
O1756  O     0.71306   0.66994   0.26694   0.00000  Uiso   1.00
N1757  N     0.64550   0.80091   0.74661   0.00000  Uiso   1.00
O1758  O     0.64524   0.78337   0.71370   0.00000  Uiso   1.00
O1759  O     0.66353   0.78768   0.77597   0.00000  Uiso   1.00
N1760  N     0.85446   0.69925   0.25303   0.00000  Uiso   1.00
O1761  O     0.86648   0.72116   0.22633   0.00000  Uiso   1.00
O1762  O     0.83074   0.71087   0.27822   0.00000  Uiso   1.00
N1763  N     0.69881   0.64549   0.75251   0.00000  Uiso   1.00
O1764  O     0.71746   0.64680   0.72038   0.00000  Uiso   1.00
O1765  O     0.71066   0.66238   0.78326   0.00000  Uiso   1.00
N1766  N     0.80055   0.85512   0.24466   0.00000  Uiso   1.00
O1767  O     0.78078   0.86899   0.21697   0.00000  Uiso   1.00
O1768  O     0.78694   0.83006   0.26695   0.00000  Uiso   1.00
N1769  N     0.85453   0.80122   0.24721   0.00000  Uiso   1.00
O1770  O     0.85303   0.78252   0.27930   0.00000  Uiso   1.00
O1771  O     0.83786   0.78940   0.21630   0.00000  Uiso   1.00
N1772  N     0.64492   0.69946   0.75497   0.00000  Uiso   1.00
O1773  O     0.63116   0.71933   0.78264   0.00000  Uiso   1.00
O1774  O     0.66989   0.71299   0.73250   0.00000  Uiso   1.00
N1775  N     0.80089   0.64548   0.25346   0.00000  Uiso   1.00
O1776  O     0.78336   0.64522   0.28637   0.00000  Uiso   1.00
O1777  O     0.78765   0.66348   0.22409   0.00000  Uiso   1.00
N1778  N     0.69928   0.85448   0.74718   0.00000  Uiso   1.00
O1779  O     0.72113   0.86658   0.77389   0.00000  Uiso   1.00
O1780  O     0.71096   0.83071   0.72208   0.00000  Uiso   1.00
N1781  N     0.64547   0.69878   0.24720   0.00000  Uiso   1.00
O1782  O     0.64698   0.71748   0.27929   0.00000  Uiso   1.00
O1783  O     0.66213   0.71060   0.21629   0.00000  Uiso   1.00
N1784  N     0.85508   0.80054   0.75497   0.00000  Uiso   1.00
O1785  O     0.86884   0.78067   0.78264   0.00000  Uiso   1.00
O1786  O     0.83011   0.78701   0.73250   0.00000  Uiso   1.00
N1787  N     0.69911   0.85452   0.25348   0.00000  Uiso   1.00
O1788  O     0.71664   0.85478   0.28639   0.00000  Uiso   1.00
O1789  O     0.71235   0.83651   0.22411   0.00000  Uiso   1.00
N1790  N     0.80072   0.64552   0.74718   0.00000  Uiso   1.00
O1791  O     0.77887   0.63342   0.77389   0.00000  Uiso   1.00
O1792  O     0.78904   0.66929   0.72208   0.00000  Uiso   1.00
O1793  O     0.97743   0.81149   0.39726   0.00000  Uiso   1.00
C1794  C     0.50762   0.83448   0.39173   0.00000  Uiso   1.00
H1795  H     0.52902   0.82060   0.37423   0.00000  Uiso   1.00
H1796  H     0.51937   0.84290   0.42027   0.00000  Uiso   1.00
C1797  C     0.99541   0.86840   0.36976   0.00000  Uiso   1.00
H1798  H     0.98569   0.86054   0.34027   0.00000  Uiso   1.00
H1799  H     0.97259   0.88147   0.38567   0.00000  Uiso   1.00
C1800  C     0.52636   0.89560   0.36578   0.00000  Uiso   1.00
H1801  H     0.53525   0.90502   0.39501   0.00000  Uiso   1.00
H1802  H     0.51698   0.91946   0.34876   0.00000  Uiso   1.00
H1803  H     0.54977   0.88303   0.35047   0.00000  Uiso   1.00
O1804  O     0.52760   0.69056   0.60261   0.00000  Uiso   1.00
C1805  C     0.56575   0.69264   0.60641   0.00000  Uiso   1.00
H1806  H     0.57442   0.71945   0.61807   0.00000  Uiso   1.00
H1807  H     0.57922   0.68841   0.57774   0.00000  Uiso   1.00
C1808  C     0.57834   0.66293   0.63444   0.00000  Uiso   1.00
H1809  H     0.56327   0.66546   0.66234   0.00000  Uiso   1.00
H1810  H     0.57219   0.63592   0.62167   0.00000  Uiso   1.00
C1811  C     0.61893   0.66539   0.64273   0.00000  Uiso   1.00
H1812  H     0.63464   0.66298   0.61521   0.00000  Uiso   1.00
H1813  H     0.62710   0.64299   0.66254   0.00000  Uiso   1.00
H1814  H     0.62542   0.69162   0.65705   0.00000  Uiso   1.00
O1815  O     0.69051   0.52749   0.39739   0.00000  Uiso   1.00
C1816  C     0.69254   0.56565   0.39360   0.00000  Uiso   1.00
H1817  H     0.71935   0.57435   0.38197   0.00000  Uiso   1.00
H1818  H     0.68824   0.57910   0.42226   0.00000  Uiso   1.00
C1819  C     0.66284   0.57819   0.36552   0.00000  Uiso   1.00
H1820  H     0.66544   0.56313   0.33762   0.00000  Uiso   1.00
H1821  H     0.63583   0.57199   0.37824   0.00000  Uiso   1.00
C1822  C     0.66525   0.61879   0.35724   0.00000  Uiso   1.00
H1823  H     0.66277   0.63448   0.38476   0.00000  Uiso   1.00
H1824  H     0.64285   0.62692   0.33740   0.00000  Uiso   1.00
H1825  H     0.69148   0.62532   0.34295   0.00000  Uiso   1.00
O1826  O     0.81157   0.97761   0.60274   0.00000  Uiso   1.00
C1827  C     0.83447   0.50787   0.60827   0.00000  Uiso   1.00
H1828  H     0.82054   0.52918   0.62584   0.00000  Uiso   1.00
H1829  H     0.84279   0.51970   0.57974   0.00000  Uiso   1.00
C1830  C     0.86848   0.99574   0.63013   0.00000  Uiso   1.00
H1831  H     0.86071   0.98588   0.65959   0.00000  Uiso   1.00
H1832  H     0.88162   0.97303   0.61410   0.00000  Uiso   1.00
C1833  C     0.89555   0.52679   0.63416   0.00000  Uiso   1.00
H1834  H     0.90488   0.53583   0.60495   0.00000  Uiso   1.00
H1835  H     0.91948   0.51746   0.65111   0.00000  Uiso   1.00
H1836  H     0.88290   0.55010   0.64960   0.00000  Uiso   1.00
O1837  O     0.52257   0.68851   0.39726   0.00000  Uiso   1.00
C1838  C     0.99238   0.66552   0.39173   0.00000  Uiso   1.00
H1839  H     0.97098   0.67940   0.37423   0.00000  Uiso   1.00
H1840  H     0.98063   0.65710   0.42027   0.00000  Uiso   1.00
C1841  C     0.50459   0.63159   0.36976   0.00000  Uiso   1.00
H1842  H     0.51431   0.63945   0.34028   0.00000  Uiso   1.00
H1843  H     0.52741   0.61853   0.38568   0.00000  Uiso   1.00
C1844  C     0.97364   0.60439   0.36579   0.00000  Uiso   1.00
H1845  H     0.96475   0.59497   0.39503   0.00000  Uiso   1.00
H1846  H     0.98302   0.58053   0.34877   0.00000  Uiso   1.00
H1847  H     0.95023   0.61696   0.35048   0.00000  Uiso   1.00
O1848  O     0.97240   0.80944   0.60261   0.00000  Uiso   1.00
C1849  C     0.93425   0.80736   0.60641   0.00000  Uiso   1.00
H1850  H     0.92558   0.78055   0.61807   0.00000  Uiso   1.00
H1851  H     0.92078   0.81159   0.57774   0.00000  Uiso   1.00
C1852  C     0.92166   0.83707   0.63444   0.00000  Uiso   1.00
H1853  H     0.93673   0.83454   0.66234   0.00000  Uiso   1.00
H1854  H     0.92781   0.86408   0.62167   0.00000  Uiso   1.00
C1855  C     0.88107   0.83461   0.64273   0.00000  Uiso   1.00
H1856  H     0.86537   0.83702   0.61521   0.00000  Uiso   1.00
H1857  H     0.87290   0.85701   0.66254   0.00000  Uiso   1.00
H1858  H     0.87458   0.80839   0.65705   0.00000  Uiso   1.00
O1859  O     0.80949   0.97251   0.39739   0.00000  Uiso   1.00
C1860  C     0.80747   0.93436   0.39359   0.00000  Uiso   1.00
H1861  H     0.78066   0.92565   0.38197   0.00000  Uiso   1.00
H1862  H     0.81177   0.92090   0.42225   0.00000  Uiso   1.00
C1863  C     0.83717   0.92182   0.36551   0.00000  Uiso   1.00
H1864  H     0.83456   0.93687   0.33762   0.00000  Uiso   1.00
H1865  H     0.86418   0.92802   0.37824   0.00000  Uiso   1.00
C1866  C     0.83477   0.88122   0.35724   0.00000  Uiso   1.00
H1867  H     0.83725   0.86553   0.38476   0.00000  Uiso   1.00
H1868  H     0.85717   0.87309   0.33739   0.00000  Uiso   1.00
H1869  H     0.80854   0.87468   0.34296   0.00000  Uiso   1.00
O1870  O     0.68843   0.52239   0.60274   0.00000  Uiso   1.00
C1871  C     0.66554   0.99212   0.60827   0.00000  Uiso   1.00
H1872  H     0.67946   0.97081   0.62584   0.00000  Uiso   1.00
H1873  H     0.65721   0.98030   0.57973   0.00000  Uiso   1.00
C1874  C     0.63152   0.50425   0.63013   0.00000  Uiso   1.00
H1875  H     0.63929   0.51411   0.65959   0.00000  Uiso   1.00
H1876  H     0.61838   0.52696   0.61411   0.00000  Uiso   1.00
C1877  C     0.60445   0.97320   0.63417   0.00000  Uiso   1.00
H1878  H     0.59512   0.96416   0.60495   0.00000  Uiso   1.00
H1879  H     0.58052   0.98252   0.65111   0.00000  Uiso   1.00
H1880  H     0.61711   0.94989   0.64960   0.00000  Uiso   1.00
O1881  O     0.72824   0.56179   0.89727   0.00000  Uiso   1.00
C1882  C     0.75875   0.58436   0.89172   0.00000  Uiso   1.00
H1883  H     0.77983   0.57024   0.87400   0.00000  Uiso   1.00
H1884  H     0.77078   0.59244   0.92024   0.00000  Uiso   1.00
C1885  C     0.74694   0.61859   0.87007   0.00000  Uiso   1.00
H1886  H     0.73670   0.61105   0.84069   0.00000  Uiso   1.00
H1887  H     0.72457   0.63204   0.88636   0.00000  Uiso   1.00
C1888  C     0.77837   0.64519   0.86577   0.00000  Uiso   1.00
H1889  H     0.78787   0.65426   0.89491   0.00000  Uiso   1.00
H1890  H     0.76924   0.66933   0.84904   0.00000  Uiso   1.00
H1891  H     0.80132   0.63224   0.84999   0.00000  Uiso   1.00
O1892  O     0.77714   0.94035   0.10261   0.00000  Uiso   1.00
C1893  C     0.81531   0.94221   0.10638   0.00000  Uiso   1.00
H1894  H     0.82416   0.96902   0.11790   0.00000  Uiso   1.00
H1895  H     0.82872   0.93774   0.07773   0.00000  Uiso   1.00
C1896  C     0.82772   0.91256   0.13458   0.00000  Uiso   1.00
H1897  H     0.81271   0.91537   0.16249   0.00000  Uiso   1.00
H1898  H     0.82135   0.88553   0.12199   0.00000  Uiso   1.00
C1899  C     0.86835   0.91477   0.14279   0.00000  Uiso   1.00
H1900  H     0.88399   0.91211   0.11526   0.00000  Uiso   1.00
H1901  H     0.87638   0.89241   0.16271   0.00000  Uiso   1.00
H1902  H     0.87504   0.94102   0.15694   0.00000  Uiso   1.00
O1903  O     0.93983   0.77593   0.89737   0.00000  Uiso   1.00
C1904  C     0.94104   0.81412   0.89360   0.00000  Uiso   1.00
H1905  H     0.96776   0.82346   0.88230   0.00000  Uiso   1.00
H1906  H     0.93611   0.82743   0.92223   0.00000  Uiso   1.00
C1907  C     0.91140   0.82602   0.86514   0.00000  Uiso   1.00
H1908  H     0.91484   0.81123   0.83718   0.00000  Uiso   1.00
H1909  H     0.88439   0.81897   0.87737   0.00000  Uiso   1.00
C1910  C     0.91277   0.86673   0.85721   0.00000  Uiso   1.00
H1911  H     0.90947   0.88215   0.88481   0.00000  Uiso   1.00
H1912  H     0.89042   0.87436   0.83708   0.00000  Uiso   1.00
H1913  H     0.93899   0.87410   0.84340   0.00000  Uiso   1.00
O1914  O     0.56241   0.73005   0.10270   0.00000  Uiso   1.00
C1915  C     0.58403   0.76124   0.10828   0.00000  Uiso   1.00
H1916  H     0.56933   0.78177   0.12619   0.00000  Uiso   1.00
H1917  H     0.59158   0.77365   0.07978   0.00000  Uiso   1.00
C1918  C     0.61874   0.75044   0.12966   0.00000  Uiso   1.00
H1919  H     0.61166   0.73937   0.15882   0.00000  Uiso   1.00
H1920  H     0.63304   0.72892   0.11288   0.00000  Uiso   1.00
C1921  C     0.64405   0.78283   0.13460   0.00000  Uiso   1.00
H1922  H     0.65248   0.79340   0.10566   0.00000  Uiso   1.00
H1923  H     0.66867   0.77432   0.15087   0.00000  Uiso   1.00
H1924  H     0.63029   0.80483   0.15113   0.00000  Uiso   1.00
O1925  O     0.77177   0.93821   0.89727   0.00000  Uiso   1.00
C1926  C     0.74126   0.91564   0.89172   0.00000  Uiso   1.00
H1927  H     0.72017   0.92975   0.87403   0.00000  Uiso   1.00
H1928  H     0.72926   0.90754   0.92025   0.00000  Uiso   1.00
C1929  C     0.75307   0.88142   0.87004   0.00000  Uiso   1.00
H1930  H     0.76328   0.88899   0.84065   0.00000  Uiso   1.00
H1931  H     0.77546   0.86798   0.88630   0.00000  Uiso   1.00
C1932  C     0.72165   0.85480   0.86576   0.00000  Uiso   1.00
H1933  H     0.71219   0.84571   0.89490   0.00000  Uiso   1.00
H1934  H     0.73078   0.83068   0.84901   0.00000  Uiso   1.00
H1935  H     0.69868   0.86775   0.85001   0.00000  Uiso   1.00
O1936  O     0.72286   0.55965   0.10262   0.00000  Uiso   1.00
C1937  C     0.68469   0.55779   0.10638   0.00000  Uiso   1.00
H1938  H     0.67584   0.53098   0.11790   0.00000  Uiso   1.00
H1939  H     0.67128   0.56226   0.07773   0.00000  Uiso   1.00
C1940  C     0.67228   0.58744   0.13459   0.00000  Uiso   1.00
H1941  H     0.68729   0.58462   0.16249   0.00000  Uiso   1.00
H1942  H     0.67866   0.61447   0.12201   0.00000  Uiso   1.00
C1943  C     0.63166   0.58523   0.14278   0.00000  Uiso   1.00
H1944  H     0.61602   0.58791   0.11525   0.00000  Uiso   1.00
H1945  H     0.62363   0.60759   0.16272   0.00000  Uiso   1.00
H1946  H     0.62495   0.55898   0.15693   0.00000  Uiso   1.00
O1947  O     0.56017   0.72408   0.89737   0.00000  Uiso   1.00
C1948  C     0.55897   0.68589   0.89361   0.00000  Uiso   1.00
H1949  H     0.53224   0.67655   0.88231   0.00000  Uiso   1.00
H1950  H     0.56391   0.67258   0.92223   0.00000  Uiso   1.00
C1951  C     0.58861   0.67399   0.86514   0.00000  Uiso   1.00
H1952  H     0.58515   0.68878   0.83718   0.00000  Uiso   1.00
H1953  H     0.61561   0.68105   0.87736   0.00000  Uiso   1.00
C1954  C     0.58725   0.63328   0.85722   0.00000  Uiso   1.00
H1955  H     0.59055   0.61786   0.88481   0.00000  Uiso   1.00
H1956  H     0.60959   0.62565   0.83708   0.00000  Uiso   1.00
H1957  H     0.56102   0.62591   0.84341   0.00000  Uiso   1.00
O1958  O     0.93762   0.77003   0.10271   0.00000  Uiso   1.00
C1959  C     0.91593   0.73890   0.10828   0.00000  Uiso   1.00
H1960  H     0.93060   0.71829   0.12611   0.00000  Uiso   1.00
H1961  H     0.90828   0.72656   0.07977   0.00000  Uiso   1.00
C1962  C     0.88130   0.74977   0.12977   0.00000  Uiso   1.00
H1963  H     0.88848   0.76066   0.15898   0.00000  Uiso   1.00
H1964  H     0.86708   0.77142   0.11314   0.00000  Uiso   1.00
C1965  C     0.85584   0.71747   0.13459   0.00000  Uiso   1.00
H1966  H     0.84727   0.70712   0.10561   0.00000  Uiso   1.00
H1967  H     0.83129   0.72603   0.15098   0.00000  Uiso   1.00
H1968  H     0.86952   0.69531   0.15094   0.00000  Uiso   1.00
loop_
_geom_bond_atom_site_label_1
_geom_bond_atom_site_label_2
_geom_bond_distance
_geom_bond_site_symmetry_2
_ccdc_geom_bond_type
Zn1    O56     1.943   .     S
Zn1    O41     1.953   .     S
Zn1    O103    1.945   .     S
Zn1    O1084   1.949   1_545 S
Zn2    O55     1.943   .     S
Zn2    O42     1.953   .     S
Zn2    O99     1.949   .     S
Zn2    O1088   1.945   1_545 S
Zn3    O593    1.949   1_455 S
Zn3    O58     1.944   .     S
Zn3    O43     1.953   .     S
Zn3    O94     1.945   .     S
Zn4    O585    1.945   1_455 S
Zn4    O44     1.953   .     S
Zn4    O57     1.944   .     S
Zn4    O102    1.949   .     S
Zn5    O60     1.943   .     S
Zn5    O96     1.949   .     S
Zn5    O41     1.953   .     S
Zn5    O1091   1.945   1_545 S
Zn6    O42     1.953   .     S
Zn6    O59     1.943   .     S
Zn6    O108    1.945   .     S
Zn6    O1079   1.949   1_545 S
Zn7    O43     1.953   .     S
Zn7    O54     1.943   .     S
Zn7    O590    1.945   1_455 S
Zn7    O105    1.949   .     S
Zn8    O53     1.943   .     S
Zn8    O598    1.949   1_455 S
Zn8    O44     1.953   .     S
Zn8    O97     1.945   .     S
Zn9    O48     1.943   .     S
Zn9    O87     1.945   .     S
Zn9    O84     1.949   .     S
Zn9    O536    1.953   .     S
Zn10   O47     1.943   .     S
Zn10   O88     1.945   .     S
Zn10   O83     1.949   .     S
Zn10   O43     1.953   .     S
Zn11   O50     1.944   .     S
Zn11   O85     1.949   .     S
Zn11   O78     1.945   .     S
Zn11   O1026   1.953   .     S
Zn12   O49     1.944   .     S
Zn12   O86     1.949   .     S
Zn12   O77     1.945   .     S
Zn12   O41     1.953   .     S
Zn13   O91     1.945   .     S
Zn13   O80     1.949   .     S
Zn13   O52     1.943   .     S
Zn13   O44     1.953   .     S
Zn14   O535    1.953   .     S
Zn14   O79     1.949   .     S
Zn14   O51     1.943   .     S
Zn14   O92     1.945   .     S
Zn15   O42     1.953   .     S
Zn15   O82     1.945   .     S
Zn15   O89     1.949   .     S
Zn15   O46     1.943   .     S
Zn16   O45     1.943   .     S
Zn16   O81     1.945   .     S
Zn16   O90     1.949   .     S
Zn16   O1025   1.953   .     S
C17    C185    1.404   .     A
C17    O317    1.385   .     S
C17    C525    1.403   .     S
C18    C186    1.405   .     A
C18    O328    1.387   .     S
C18    C34     1.406   .     S
C19    C35     1.406   .     A
C19    C187    1.405   .     A
C19    O339    1.387   .     S
C20    C188    1.404   .     A
C20    C1020   1.403   .     A
C20    O350    1.385   .     S
C21    C33     1.403   .     A
C21    O361    1.385   .     S
C21    C181    1.404   .     A
C22    C526    1.406   .     A
C22    C182    1.405   .     A
C22    O372    1.387   .     S
C23    O383    1.387   .     S
C23    C183    1.405   .     A
C23    C1019   1.406   .     S
C24    C184    1.404   .     A
C24    O394    1.385   .     S
C24    C36     1.403   .     S
C25    C193    1.404   .     A
C25    O405    1.385   .     S
C25    C37     1.403   .     A
C26    C1022   1.406   .     A
C26    C194    1.405   .     A
C26    O416    1.386   .     S
C27    O427    1.386   .     S
C27    C195    1.405   .     A
C27    C531    1.406   .     A
C28    C40     1.403   .     A
C28    C196    1.404   .     A
C28    O438    1.385   .     S
C29    O449    1.385   .     S
C29    C189    1.404   .     A
C29    C1021   1.403   .     S
C30    C190    1.405   .     A
C30    O460    1.386   .     S
C30    C38     1.406   .     S
C31    C191    1.405   .     A
C31    O471    1.386   .     S
C31    C39     1.406   .     S
C32    O482    1.385   .     S
C32    C192    1.404   .     A
C32    C532    1.403   .     S
C33    C509    1.403   1_455 S
C33    C127    1.449   .     S
C34    C514    1.406   1_455 A
C34    C128    1.453   .     S
C35    C125    1.453   .     S
C35    C1007   1.406   1_545 S
C36    C126    1.449   .     S
C36    C1004   1.403   1_545 A
C37    C1013   1.403   1_545 S
C37    C131    1.449   .     S
C38    C1010   1.406   1_545 A
C38    C132    1.453   .     S
C39    C129    1.452   .     S
C39    C519    1.406   1_455 A
C40    C130    1.449   .     S
C40    C524    1.403   1_455 S
O41    Zn1000  1.953   1_545 S
O42    Zn995   1.953   1_545 S
O43    Zn506   1.953   1_455 S
O44    Zn501   1.953   1_455 S
O45    C1109   1.282   .     S
O46    C126    1.281   .     S
O47    C127    1.280   .     S
O48    C620    1.282   .     A
O49    C125    1.282   .     A
O50    C1110   1.281   .     A
O51    C619    1.280   .     A
O52    C128    1.282   .     S
O53    C129    1.282   .     A
O54    C130    1.281   .     S
O55    C131    1.281   .     S
O56    C132    1.282   .     S
O57    C129    1.282   .     A
O58    C130    1.281   .     S
O59    C131    1.281   .     S
O60    C132    1.282   .     S
H61    C109    1.083   .     S
H62    C110    1.083   .     S
H63    C111    1.083   .     S
H64    C112    1.083   .     S
H65    C113    1.083   .     S
H66    C114    1.082   .     S
H67    C115    1.083   .     S
H68    C116    1.083   .     S
H69    C117    1.083   .     S
H70    C118    1.083   .     S
H71    C119    1.083   .     S
H72    C120    1.083   .     S
H73    C121    1.083   .     S
H74    C122    1.083   .     S
H75    C123    1.083   .     S
H76    C124    1.083   .     S
O77    C133    1.281   .     A
O78    C134    1.285   .     A
O79    C135    1.283   .     A
O80    C136    1.283   .     A
O81    C137    1.281   .     A
O82    C138    1.285   .     A
O83    C139    1.283   .     A
O84    C140    1.283   .     A
O85    C141    1.283   .     A
O86    C142    1.283   .     A
O87    C143    1.281   .     A
O88    C144    1.285   .     A
O89    C145    1.283   .     A
O90    C146    1.283   .     A
O91    C147    1.281   .     A
O92    C148    1.285   .     A
O93    Zn496   1.945   .     S
O93    C143    1.282   .     A
O94    C144    1.284   .     A
O95    C141    1.283   .     A
O95    Zn990   1.949   .     S
O96    C142    1.283   .     A
O97    C147    1.282   .     A
O98    C148    1.284   .     A
O98    Zn499   1.945   .     S
O99    C145    1.283   .     A
O100   C146    1.283   .     A
O100   Zn985   1.949   .     S
O101   Zn495   1.949   .     S
O101   C135    1.283   .     A
O102   C136    1.283   .     A
O103   C133    1.281   .     A
O104   C134    1.285   .     A
O104   Zn986   1.945   .     S
O105   C139    1.283   .     A
O106   C140    1.283   .     A
O106   Zn500   1.949   .     S
O107   C137    1.281   .     A
O107   Zn989   1.945   .     S
O108   C138    1.285   .     A
C109   C114    1.389   .     A
C109   C181    1.403   .     A
C110   C182    1.404   .     A
C110   C113    1.389   .     A
C111   C183    1.404   .     A
C111   C116    1.389   .     A
C112   C184    1.403   .     A
C112   C115    1.389   .     A
C113   C185    1.403   .     A
C114   C186    1.404   .     A
C115   C187    1.404   .     A
C116   C188    1.403   .     A
C117   C189    1.403   .     A
C117   C122    1.389   1_556 S
C118   C190    1.404   .     A
C118   C121    1.390   1_554 S
C119   C191    1.404   .     A
C119   C124    1.390   1_556 S
C120   C192    1.403   .     A
C120   C123    1.390   1_554 S
C121   C193    1.403   .     A
C121   C118    1.390   1_556 S
C122   C194    1.404   .     A
C122   C117    1.389   1_554 S
C123   C195    1.404   .     A
C123   C120    1.390   1_556 S
C124   C196    1.403   .     A
C124   C119    1.390   1_554 S
C125   O1029   1.282   1_545 S
C126   O1034   1.281   1_545 A
C127   O543    1.280   1_455 A
C128   O540    1.282   1_455 A
C133   C199    1.457   .     S
C134   C200    1.468   .     S
C135   C201    1.466   .     S
C136   C202    1.466   .     S
C137   C203    1.457   .     S
C138   C204    1.468   .     S
C139   C197    1.466   .     S
C140   C198    1.466   .     S
C141   C207    1.466   .     S
C142   C208    1.466   .     S
C143   C209    1.458   .     S
C144   C210    1.468   .     S
C145   C211    1.466   .     S
C146   C212    1.466   .     S
C147   C205    1.458   .     S
C148   C206    1.468   .     S
C149   C212    1.408   .     A
C149   C164    1.400   .     A
C149   N221    1.431   .     S
C150   C163    1.400   .     A
C150   N224    1.434   .     S
C150   C211    1.409   .     A
C151   N227    1.428   .     S
C151   C210    1.408   .     A
C151   C162    1.400   .     A
C152   C209    1.406   .     A
C152   C161    1.400   .     A
C152   N230    1.436   .     S
C153   C208    1.408   .     A
C153   C160    1.400   .     A
C153   N233    1.431   .     S
C154   N236    1.434   .     S
C154   C207    1.409   .     A
C154   C159    1.400   .     A
C155   C158    1.400   .     A
C155   N239    1.428   .     S
C155   C206    1.408   .     A
C156   C205    1.406   .     A
C156   C157    1.400   .     A
C156   N242    1.436   .     S
C157   C204    1.408   .     A
C157   N245    1.428   .     S
C158   N248    1.436   .     S
C158   C203    1.406   .     A
C159   N251    1.431   .     S
C159   C202    1.408   .     A
C160   C201    1.409   .     A
C160   N254    1.434   .     S
C161   C200    1.408   .     A
C161   N257    1.428   .     S
C162   N260    1.436   .     S
C162   C199    1.406   .     A
C163   C198    1.408   .     A
C163   N263    1.431   .     S
C164   C197    1.409   .     A
C164   N266    1.434   .     S
C165   N269    1.431   .     S
C165   C198    1.408   .     A
C165   C180    1.400   .     A
C166   N272    1.434   .     S
C166   C197    1.409   .     A
C166   C179    1.400   .     A
C167   C200    1.408   .     A
C167   C178    1.400   .     A
C167   N275    1.428   .     S
C168   N278    1.436   .     S
C168   C199    1.406   .     A
C168   C177    1.400   .     A
C169   C176    1.400   .     A
C169   C202    1.408   .     A
C169   N281    1.431   .     S
C170   N284    1.434   .     S
C170   C175    1.400   .     A
C170   C201    1.409   .     A
C171   C204    1.408   .     A
C171   N287    1.428   .     S
C171   C174    1.400   .     A
C172   C203    1.406   .     A
C172   N290    1.436   .     S
C172   C173    1.400   .     A
C173   N293    1.428   .     S
C173   C206    1.408   .     A
C174   N296    1.436   .     S
C174   C205    1.406   .     A
C175   N299    1.431   .     S
C175   C208    1.408   .     A
C176   N302    1.434   .     S
C176   C207    1.409   .     A
C177   N305    1.428   .     S
C177   C210    1.408   .     A
C178   N308    1.436   .     S
C178   C209    1.406   .     A
C179   N311    1.431   .     S
C179   C212    1.408   .     A
C180   C211    1.409   .     A
C180   N314    1.434   .     S
C181   C213    1.414   .     A
C182   C706    1.415   .     S
C183   C1199   1.415   .     S
C184   C216    1.414   .     A
C185   C705    1.414   .     S
C186   C214    1.415   .     A
C187   C215    1.415   .     A
C188   C1200   1.414   .     S
C189   C1201   1.414   .     S
C190   C218    1.415   .     A
C191   C219    1.415   .     A
C192   C712    1.414   .     S
C193   C217    1.414   .     A
C194   C1202   1.415   .     S
C195   C711    1.415   .     S
C196   C220    1.414   .     A
C213   C214    1.410   .     A
C213   C677    1.414   1_455 S
C214   C674    1.415   1_455 S
C215   C216    1.410   .     A
C215   C1167   1.415   1_545 S
C216   C1172   1.414   1_545 S
C217   C1173   1.414   1_545 S
C217   C218    1.410   1_556 S
C218   C1178   1.415   1_545 S
C218   C217    1.410   1_554 S
C219   C687    1.415   1_455 S
C219   C220    1.410   1_556 S
C220   C684    1.414   1_455 S
C220   C219    1.410   1_554 S
N221   O222    1.301   .     A
N221   O223    1.301   .     A
N224   O225    1.300   .     A
N224   O226    1.301   .     A
N227   O228    1.300   .     A
N227   O229    1.301   .     A
N230   O232    1.301   .     A
N230   O231    1.301   .     A
N233   O235    1.301   .     A
N233   O234    1.301   .     A
N236   O237    1.300   .     A
N236   O238    1.301   .     A
N239   O240    1.300   .     A
N239   O241    1.301   .     A
N242   O244    1.301   .     A
N242   O243    1.301   .     A
N245   O246    1.300   .     A
N245   O247    1.301   .     A
N248   O250    1.301   .     A
N248   O249    1.301   .     A
N251   O252    1.301   .     A
N251   O253    1.301   .     A
N254   O256    1.301   .     A
N254   O255    1.300   .     A
N257   O258    1.300   .     A
N257   O259    1.301   .     A
N260   O261    1.301   .     A
N260   O262    1.301   .     A
N263   O265    1.301   .     A
N263   O264    1.301   .     A
N266   O268    1.301   .     A
N266   O267    1.300   .     A
N269   O271    1.301   .     A
N269   O270    1.301   .     A
N272   O273    1.300   .     A
N272   O274    1.301   .     A
N275   O276    1.300   .     A
N275   O277    1.301   .     A
N278   O279    1.301   .     A
N278   O280    1.301   .     A
N281   O283    1.301   .     A
N281   O282    1.301   .     A
N284   O285    1.300   .     A
N284   O286    1.301   .     A
N287   O289    1.301   .     A
N287   O288    1.300   .     A
N290   O291    1.301   .     A
N290   O292    1.301   .     A
N293   O294    1.300   .     A
N293   O295    1.301   .     A
N296   O297    1.301   .     A
N296   O298    1.301   .     A
N299   O300    1.301   .     A
N299   O301    1.301   .     A
N302   O304    1.301   .     A
N302   O303    1.300   .     A
N305   O307    1.301   .     A
N305   O306    1.300   .     A
N308   O310    1.301   .     A
N308   O309    1.301   .     A
N311   O312    1.301   .     A
N311   O313    1.301   .     A
N314   O315    1.300   .     A
N314   O316    1.301   .     A
O317   C810    1.413   .     S
C318   H320    1.115   .     S
C318   H319    1.115   .     S
C318   O809    1.413   1_455 S
C318   C813    1.527   1_455 S
C321   H322    1.112   .     S
C321   H323    1.112   .     S
C321   C810    1.527   .     S
C321   C816    1.527   .     S
C324   H325    1.111   .     S
C324   H327    1.111   .     S
C324   H326    1.110   .     S
C324   C813    1.527   1_455 S
O328   C329    1.415   .     S
C329   H331    1.112   .     S
C329   H330    1.114   .     S
C329   C332    1.529   .     S
C332   H333    1.110   .     S
C332   C335    1.526   .     S
C332   H334    1.112   .     S
C335   H337    1.111   .     S
C335   H336    1.111   .     S
C335   H338    1.111   .     S
O339   C340    1.415   .     S
C340   H341    1.114   .     S
C340   H342    1.112   .     S
C340   C343    1.529   .     S
C343   H345    1.112   .     S
C343   H344    1.110   .     S
C343   C346    1.526   .     S
C346   H348    1.111   .     S
C346   H349    1.111   .     S
C346   H347    1.111   .     S
O350   C1335   1.413   .     S
C351   H352    1.115   .     S
C351   H353    1.115   .     S
C351   O1334   1.413   1_545 S
C351   C1338   1.527   1_545 S
C354   H355    1.112   .     S
C354   H356    1.112   .     S
C354   C1335   1.527   .     S
C354   C1341   1.527   .     S
C357   H358    1.111   .     S
C357   H360    1.111   .     S
C357   H359    1.110   .     S
C357   C1338   1.527   1_545 S
O361   C854    1.413   1_455 S
C362   H363    1.115   .     S
C362   H364    1.115   .     S
C362   O853    1.413   .     S
C362   C857    1.527   .     S
C365   H366    1.112   .     S
C365   H367    1.112   .     S
C365   C854    1.527   1_455 S
C365   C860    1.527   1_455 S
C368   H369    1.111   .     S
C368   H371    1.111   .     S
C368   H370    1.110   .     S
C368   C857    1.527   .     S
O372   C373    1.415   .     S
C373   C376    1.529   .     S
C373   H375    1.112   .     S
C373   H374    1.114   .     S
C376   H377    1.110   .     S
C376   H378    1.112   .     S
C376   C379    1.526   .     S
C379   H382    1.111   .     S
C379   H380    1.111   .     S
C379   H381    1.111   .     S
O383   C384    1.415   .     S
C384   H386    1.112   .     S
C384   H385    1.114   .     S
C384   C387    1.529   .     S
C387   C390    1.526   .     S
C387   H389    1.112   .     S
C387   H388    1.110   .     S
C390   H392    1.111   .     S
C390   H391    1.111   .     S
C390   H393    1.111   .     S
O394   C1379   1.413   1_545 S
C395   H396    1.115   .     S
C395   H397    1.115   .     S
C395   O1378   1.413   .     S
C395   C1382   1.527   .     S
C398   H400    1.112   .     S
C398   H399    1.112   .     S
C398   C1379   1.527   1_545 S
C398   C1385   1.527   1_545 S
C401   H402    1.111   .     S
C401   H404    1.111   .     S
C401   H403    1.110   .     S
C401   C1382   1.527   .     S
O405   C406    1.413   .     S
C406   H408    1.115   .     S
C406   H407    1.114   .     S
C406   C409    1.527   .     S
C409   H410    1.112   .     S
C409   C412    1.527   .     S
C409   H411    1.112   .     S
C412   H413    1.111   .     S
C412   H415    1.111   .     S
C412   H414    1.110   .     S
O416   C417    1.415   .     S
C417   H419    1.112   .     S
C417   H418    1.114   .     S
C417   C420    1.529   .     S
C420   H421    1.110   .     S
C420   C423    1.526   .     S
C420   H422    1.112   .     S
C423   H426    1.111   .     S
C423   H425    1.111   .     S
C423   H424    1.111   .     S
O427   C428    1.415   .     S
C428   H429    1.114   .     S
C428   C431    1.529   .     S
C428   H430    1.112   .     S
C431   H433    1.112   .     S
C431   H432    1.110   .     S
C431   C434    1.526   .     S
C434   H435    1.111   .     S
C434   H436    1.111   .     S
C434   H437    1.111   .     S
O438   C439    1.413   .     S
C439   H441    1.115   .     S
C439   H440    1.114   .     S
C439   C442    1.527   .     S
C442   H443    1.112   .     S
C442   H444    1.112   .     S
C442   C445    1.527   .     S
C445   H446    1.111   .     S
C445   H448    1.111   .     S
C445   H447    1.110   .     S
O449   C450    1.413   .     S
C450   H452    1.115   .     S
C450   C453    1.527   .     S
C450   H451    1.114   .     S
C453   H455    1.112   .     S
C453   C456    1.527   .     S
C453   H454    1.112   .     S
C456   H457    1.111   .     S
C456   H459    1.111   .     S
C456   H458    1.110   .     S
O460   C461    1.415   .     S
C461   H462    1.114   .     S
C461   C464    1.529   .     S
C461   H463    1.112   .     S
C464   H465    1.110   .     S
C464   H466    1.112   .     S
C464   C467    1.526   .     S
C467   H469    1.111   .     S
C467   H470    1.111   .     S
C467   H468    1.111   .     S
O471   C472    1.415   .     S
C472   C475    1.529   .     S
C472   H473    1.114   .     S
C472   H474    1.112   .     S
C475   H477    1.112   .     S
C475   H476    1.110   .     S
C475   C478    1.526   .     S
C478   H479    1.111   .     S
C478   H481    1.111   .     S
C478   H480    1.111   .     S
O482   C483    1.413   .     S
C483   C486    1.527   .     S
C483   H484    1.114   .     S
C483   H485    1.115   .     S
C486   C489    1.527   .     S
C486   H487    1.112   .     S
C486   H488    1.112   .     S
C489   H491    1.110   .     S
C489   H490    1.111   .     S
C489   H492    1.111   .     S
Zn493  O548    1.943   .     S
Zn493  O533    1.953   .     S
Zn493  O595    1.945   .     S
Zn493  O1576   1.949   1_545 S
Zn494  O547    1.943   .     S
Zn494  O534    1.953   .     S
Zn494  O591    1.949   .     S
Zn494  O1580   1.945   1_545 S
Zn495  O550    1.944   .     S
Zn495  O535    1.953   .     S
Zn495  O586    1.945   .     S
Zn496  O536    1.953   .     S
Zn496  O549    1.944   .     S
Zn496  O594    1.949   .     S
Zn497  O552    1.943   .     S
Zn497  O588    1.949   .     S
Zn497  O533    1.953   .     S
Zn497  O1583   1.945   1_545 S
Zn498  O534    1.953   .     S
Zn498  O551    1.943   .     S
Zn498  O600    1.945   .     S
Zn498  O1571   1.949   1_545 S
Zn499  O535    1.953   .     S
Zn499  O546    1.943   .     S
Zn499  O597    1.949   .     S
Zn500  O545    1.943   .     S
Zn500  O536    1.953   .     S
Zn500  O589    1.945   .     S
Zn501  O540    1.943   .     S
Zn501  O579    1.945   .     S
Zn501  O576    1.949   .     S
Zn501  O44     1.953   1_655 S
Zn502  O539    1.943   .     S
Zn502  O580    1.945   .     S
Zn502  O575    1.949   .     S
Zn502  O535    1.953   .     S
Zn503  O542    1.944   .     S
Zn503  O577    1.949   .     S
Zn503  O570    1.945   .     S
Zn503  O1518   1.953   .     S
Zn504  O541    1.944   .     S
Zn504  O578    1.949   .     S
Zn504  O569    1.945   .     S
Zn504  O533    1.953   .     S
Zn505  O583    1.945   .     S
Zn505  O572    1.949   .     S
Zn505  O544    1.943   .     S
Zn505  O536    1.953   .     S
Zn506  O43     1.953   1_655 S
Zn506  O571    1.949   .     S
Zn506  O543    1.943   .     S
Zn506  O584    1.945   .     S
Zn507  O534    1.953   .     S
Zn507  O574    1.945   .     S
Zn507  O581    1.949   .     S
Zn507  O538    1.943   .     S
Zn508  O537    1.943   .     S
Zn508  O573    1.945   .     S
Zn508  O582    1.949   .     S
Zn508  O1517   1.953   .     S
C509   C677    1.404   .     A
C509   O809    1.385   .     S
C509   C33     1.403   1_655 S
C510   C678    1.405   .     A
C510   O820    1.387   .     S
C510   C526    1.406   .     S
C511   C527    1.406   .     A
C511   C679    1.405   .     A
C511   O831    1.387   .     S
C512   C680    1.404   .     A
C512   C1512   1.403   .     A
C512   O842    1.385   .     S
C513   C525    1.403   .     A
C513   O853    1.385   .     S
C513   C673    1.404   .     A
C514   C34     1.406   1_655 A
C514   C674    1.405   .     A
C514   O864    1.387   .     S
C515   O875    1.387   .     S
C515   C675    1.405   .     A
C515   C1511   1.406   .     S
C516   C676    1.404   .     A
C516   O886    1.385   .     S
C516   C528    1.403   .     S
C517   C685    1.404   .     A
C517   O897    1.385   .     S
C517   C529    1.403   .     A
C518   C1514   1.406   .     A
C518   C686    1.405   .     A
C518   O908    1.386   .     S
C519   O919    1.386   .     S
C519   C687    1.405   .     A
C519   C39     1.406   1_655 A
C520   C532    1.403   .     A
C520   C688    1.404   .     A
C520   O930    1.385   .     S
C521   O941    1.385   .     S
C521   C681    1.404   .     A
C521   C1513   1.403   .     S
C522   C682    1.405   .     A
C522   O952    1.386   .     S
C522   C530    1.406   .     S
C523   C683    1.405   .     A
C523   O963    1.386   .     S
C523   C531    1.406   .     S
C524   O974    1.385   .     S
C524   C684    1.404   .     A
C524   C40     1.403   1_655 S
C525   C619    1.449   .     S
C526   C620    1.453   .     S
C527   C617    1.453   .     S
C527   C1499   1.406   1_545 S
C528   C618    1.449   .     S
C528   C1496   1.403   1_545 A
C529   C1505   1.403   1_545 S
C529   C623    1.449   .     S
C530   C1502   1.406   1_545 A
C530   C624    1.453   .     S
C531   C621    1.452   .     S
C532   C622    1.449   .     S
O533   Zn1492  1.953   1_545 S
O534   Zn1487  1.953   1_545 S
O537   C1601   1.282   .     S
O538   C618    1.281   .     S
O539   C619    1.280   .     S
O540   C128    1.282   1_655 A
O541   C617    1.282   .     A
O542   C1602   1.281   .     A
O543   C127    1.280   1_655 A
O544   C620    1.282   .     S
O545   C621    1.282   .     A
O546   C622    1.281   .     S
O547   C623    1.281   .     S
O548   C624    1.282   .     S
O549   C621    1.282   .     A
O550   C622    1.281   .     S
O551   C623    1.281   .     S
O552   C624    1.282   .     S
H553   C601    1.083   .     S
H554   C602    1.083   .     S
H555   C603    1.083   .     S
H556   C604    1.083   .     S
H557   C605    1.083   .     S
H558   C606    1.082   .     S
H559   C607    1.083   .     S
H560   C608    1.083   .     S
H561   C609    1.083   .     S
H562   C610    1.083   .     S
H563   C611    1.083   .     S
H564   C612    1.083   .     S
H565   C613    1.083   .     S
H566   C614    1.083   .     S
H567   C615    1.083   .     S
H568   C616    1.083   .     S
O569   C625    1.281   .     A
O570   C626    1.285   .     A
O571   C627    1.283   .     A
O572   C628    1.283   .     A
O573   C629    1.281   .     A
O574   C630    1.285   .     A
O575   C631    1.283   .     A
O576   C632    1.283   .     A
O577   C633    1.283   .     A
O578   C634    1.283   .     A
O579   C635    1.281   .     A
O580   C636    1.285   .     A
O581   C637    1.283   .     A
O582   C638    1.283   .     A
O583   C639    1.281   .     A
O584   C640    1.285   .     A
O585   Zn4     1.945   1_655 S
O585   C635    1.282   .     A
O586   C636    1.284   .     A
O587   C633    1.283   .     A
O587   Zn1482  1.949   .     S
O588   C634    1.283   .     A
O589   C639    1.282   .     A
O590   C640    1.284   .     A
O590   Zn7     1.945   1_655 S
O591   C637    1.283   .     A
O592   C638    1.283   .     A
O592   Zn1477  1.949   .     S
O593   Zn3     1.949   1_655 S
O593   C627    1.283   .     A
O594   C628    1.283   .     A
O595   C625    1.281   .     A
O596   C626    1.285   .     A
O596   Zn1478  1.945   .     S
O597   C631    1.283   .     A
O598   C632    1.283   .     A
O598   Zn8     1.949   1_655 S
O599   C629    1.281   .     A
O599   Zn1481  1.945   .     S
O600   C630    1.285   .     A
C601   C606    1.389   .     A
C601   C673    1.403   .     A
C602   C674    1.404   .     A
C602   C605    1.389   .     A
C603   C675    1.404   .     A
C603   C608    1.389   .     A
C604   C676    1.403   .     A
C604   C607    1.389   .     A
C605   C677    1.403   .     A
C606   C678    1.404   .     A
C607   C679    1.404   .     A
C608   C680    1.403   .     A
C609   C681    1.403   .     A
C609   C614    1.389   1_556 S
C610   C682    1.404   .     A
C610   C613    1.390   1_554 S
C611   C683    1.404   .     A
C611   C616    1.390   1_556 S
C612   C684    1.403   .     A
C612   C615    1.390   1_554 S
C613   C685    1.403   .     A
C613   C610    1.390   1_556 S
C614   C686    1.404   .     A
C614   C609    1.389   1_554 S
C615   C687    1.404   .     A
C615   C612    1.390   1_556 S
C616   C688    1.403   .     A
C616   C611    1.390   1_554 S
C617   O1521   1.282   1_545 S
C618   O1526   1.281   1_545 A
C625   C691    1.457   .     S
C626   C692    1.468   .     S
C627   C693    1.466   .     S
C628   C694    1.466   .     S
C629   C695    1.457   .     S
C630   C696    1.468   .     S
C631   C689    1.466   .     S
C632   C690    1.466   .     S
C633   C699    1.466   .     S
C634   C700    1.466   .     S
C635   C701    1.458   .     S
C636   C702    1.468   .     S
C637   C703    1.466   .     S
C638   C704    1.466   .     S
C639   C697    1.458   .     S
C640   C698    1.468   .     S
C641   C704    1.408   .     A
C641   C656    1.400   .     A
C641   N713    1.431   .     S
C642   C655    1.400   .     A
C642   N716    1.434   .     S
C642   C703    1.409   .     A
C643   N719    1.428   .     S
C643   C702    1.408   .     A
C643   C654    1.400   .     A
C644   C701    1.406   .     A
C644   C653    1.400   .     A
C644   N722    1.436   .     S
C645   C700    1.408   .     A
C645   C652    1.400   .     A
C645   N725    1.431   .     S
C646   N728    1.434   .     S
C646   C699    1.409   .     A
C646   C651    1.400   .     A
C647   C650    1.400   .     A
C647   N731    1.428   .     S
C647   C698    1.408   .     A
C648   C697    1.406   .     A
C648   C649    1.400   .     A
C648   N734    1.436   .     S
C649   C696    1.408   .     A
C649   N737    1.428   .     S
C650   N740    1.436   .     S
C650   C695    1.406   .     A
C651   N743    1.431   .     S
C651   C694    1.408   .     A
C652   C693    1.409   .     A
C652   N746    1.434   .     S
C653   C692    1.408   .     A
C653   N749    1.428   .     S
C654   N752    1.436   .     S
C654   C691    1.406   .     A
C655   C690    1.408   .     A
C655   N755    1.431   .     S
C656   C689    1.409   .     A
C656   N758    1.434   .     S
C657   N761    1.431   .     S
C657   C690    1.408   .     A
C657   C672    1.400   .     A
C658   N764    1.434   .     S
C658   C689    1.409   .     A
C658   C671    1.400   .     A
C659   C692    1.408   .     A
C659   C670    1.400   .     A
C659   N767    1.428   .     S
C660   N770    1.436   .     S
C660   C691    1.406   .     A
C660   C669    1.400   .     A
C661   C668    1.400   .     A
C661   C694    1.408   .     A
C661   N773    1.431   .     S
C662   N776    1.434   .     S
C662   C667    1.400   .     A
C662   C693    1.409   .     A
C663   C696    1.408   .     A
C663   N779    1.428   .     S
C663   C666    1.400   .     A
C664   C695    1.406   .     A
C664   N782    1.436   .     S
C664   C665    1.400   .     A
C665   N785    1.428   .     S
C665   C698    1.408   .     A
C666   N788    1.436   .     S
C666   C697    1.406   .     A
C667   N791    1.431   .     S
C667   C700    1.408   .     A
C668   N794    1.434   .     S
C668   C699    1.409   .     A
C669   N797    1.428   .     S
C669   C702    1.408   .     A
C670   N800    1.436   .     S
C670   C701    1.406   .     A
C671   N803    1.431   .     S
C671   C704    1.408   .     A
C672   C703    1.409   .     A
C672   N806    1.434   .     S
C673   C705    1.414   .     A
C674   C214    1.415   1_655 S
C675   C1691   1.415   .     S
C676   C708    1.414   .     A
C677   C213    1.414   1_655 S
C678   C706    1.415   .     A
C679   C707    1.415   .     A
C680   C1692   1.414   .     S
C681   C1693   1.414   .     S
C682   C710    1.415   .     A
C683   C711    1.415   .     A
C684   C220    1.414   1_655 S
C685   C709    1.414   .     A
C686   C1694   1.415   .     S
C687   C219    1.415   1_655 S
C688   C712    1.414   .     A
C705   C706    1.410   .     A
C707   C708    1.410   .     A
C707   C1659   1.415   1_545 S
C708   C1664   1.414   1_545 S
C709   C1665   1.414   1_545 S
C709   C710    1.410   1_556 S
C710   C1670   1.415   1_545 S
C710   C709    1.410   1_554 S
C711   C712    1.410   1_556 S
C712   C711    1.410   1_554 S
N713   O714    1.301   .     A
N713   O715    1.301   .     A
N716   O717    1.300   .     A
N716   O718    1.301   .     A
N719   O720    1.300   .     A
N719   O721    1.301   .     A
N722   O724    1.301   .     A
N722   O723    1.301   .     A
N725   O727    1.301   .     A
N725   O726    1.301   .     A
N728   O729    1.300   .     A
N728   O730    1.301   .     A
N731   O732    1.300   .     A
N731   O733    1.301   .     A
N734   O736    1.301   .     A
N734   O735    1.301   .     A
N737   O738    1.300   .     A
N737   O739    1.301   .     A
N740   O742    1.301   .     A
N740   O741    1.301   .     A
N743   O744    1.301   .     A
N743   O745    1.301   .     A
N746   O748    1.301   .     A
N746   O747    1.300   .     A
N749   O750    1.300   .     A
N749   O751    1.301   .     A
N752   O753    1.301   .     A
N752   O754    1.301   .     A
N755   O757    1.301   .     A
N755   O756    1.301   .     A
N758   O760    1.301   .     A
N758   O759    1.300   .     A
N761   O763    1.301   .     A
N761   O762    1.301   .     A
N764   O765    1.300   .     A
N764   O766    1.301   .     A
N767   O768    1.300   .     A
N767   O769    1.301   .     A
N770   O771    1.301   .     A
N770   O772    1.301   .     A
N773   O775    1.301   .     A
N773   O774    1.301   .     A
N776   O777    1.300   .     A
N776   O778    1.301   .     A
N779   O781    1.301   .     A
N779   O780    1.300   .     A
N782   O783    1.301   .     A
N782   O784    1.301   .     A
N785   O786    1.300   .     A
N785   O787    1.301   .     A
N788   O789    1.301   .     A
N788   O790    1.301   .     A
N791   O792    1.301   .     A
N791   O793    1.301   .     A
N794   O796    1.301   .     A
N794   O795    1.300   .     A
N797   O799    1.301   .     A
N797   O798    1.300   .     A
N800   O802    1.301   .     A
N800   O801    1.301   .     A
N803   O804    1.301   .     A
N803   O805    1.301   .     A
N806   O807    1.300   .     A
N806   O808    1.301   .     A
O809   C318    1.413   1_655 S
C810   H812    1.115   .     S
C810   H811    1.115   .     S
C813   H814    1.112   .     S
C813   H815    1.112   .     S
C813   C318    1.527   1_655 S
C813   C324    1.527   1_655 S
C816   H817    1.111   .     S
C816   H819    1.111   .     S
C816   H818    1.110   .     S
O820   C821    1.415   .     S
C821   H823    1.112   .     S
C821   H822    1.114   .     S
C821   C824    1.529   .     S
C824   H825    1.110   .     S
C824   C827    1.526   .     S
C824   H826    1.112   .     S
C827   H829    1.111   .     S
C827   H828    1.111   .     S
C827   H830    1.111   .     S
O831   C832    1.415   .     S
C832   H833    1.114   .     S
C832   H834    1.112   .     S
C832   C835    1.529   .     S
C835   H837    1.112   .     S
C835   H836    1.110   .     S
C835   C838    1.526   .     S
C838   H840    1.111   .     S
C838   H841    1.111   .     S
C838   H839    1.111   .     S
O842   C1827   1.413   .     S
C843   H844    1.115   .     S
C843   H845    1.115   .     S
C843   O1826   1.413   1_545 S
C843   C1830   1.527   1_545 S
C846   H847    1.112   .     S
C846   H848    1.112   .     S
C846   C1827   1.527   .     S
C846   C1833   1.527   .     S
C849   H850    1.111   .     S
C849   H852    1.111   .     S
C849   H851    1.110   .     S
C849   C1830   1.527   1_545 S
C854   H855    1.115   .     S
C854   H856    1.115   .     S
C854   O361    1.413   1_655 S
C854   C365    1.527   1_655 S
C857   H858    1.112   .     S
C857   H859    1.112   .     S
C860   H861    1.111   .     S
C860   H863    1.111   .     S
C860   H862    1.110   .     S
C860   C365    1.527   1_655 S
O864   C865    1.415   .     S
C865   C868    1.529   .     S
C865   H867    1.112   .     S
C865   H866    1.114   .     S
C868   H869    1.110   .     S
C868   H870    1.112   .     S
C868   C871    1.526   .     S
C871   H874    1.111   .     S
C871   H872    1.111   .     S
C871   H873    1.111   .     S
O875   C876    1.415   .     S
C876   H878    1.112   .     S
C876   H877    1.114   .     S
C876   C879    1.529   .     S
C879   C882    1.526   .     S
C879   H881    1.112   .     S
C879   H880    1.110   .     S
C882   H884    1.111   .     S
C882   H883    1.111   .     S
C882   H885    1.111   .     S
O886   C1871   1.413   1_545 S
C887   H888    1.115   .     S
C887   H889    1.115   .     S
C887   O1870   1.413   .     S
C887   C1874   1.527   .     S
C890   H892    1.112   .     S
C890   H891    1.112   .     S
C890   C1871   1.527   1_545 S
C890   C1877   1.527   1_545 S
C893   H894    1.111   .     S
C893   H896    1.111   .     S
C893   H895    1.110   .     S
C893   C1874   1.527   .     S
O897   C898    1.413   .     S
C898   H900    1.115   .     S
C898   H899    1.114   .     S
C898   C901    1.527   .     S
C901   H902    1.112   .     S
C901   C904    1.527   .     S
C901   H903    1.112   .     S
C904   H905    1.111   .     S
C904   H907    1.111   .     S
C904   H906    1.110   .     S
O908   C909    1.415   .     S
C909   H911    1.112   .     S
C909   H910    1.114   .     S
C909   C912    1.529   .     S
C912   H913    1.110   .     S
C912   C915    1.526   .     S
C912   H914    1.112   .     S
C915   H918    1.111   .     S
C915   H917    1.111   .     S
C915   H916    1.111   .     S
O919   C920    1.415   .     S
C920   H921    1.114   .     S
C920   C923    1.529   .     S
C920   H922    1.112   .     S
C923   H925    1.112   .     S
C923   H924    1.110   .     S
C923   C926    1.526   .     S
C926   H927    1.111   .     S
C926   H928    1.111   .     S
C926   H929    1.111   .     S
O930   C931    1.413   .     S
C931   H933    1.115   .     S
C931   H932    1.114   .     S
C931   C934    1.527   .     S
C934   H935    1.112   .     S
C934   H936    1.112   .     S
C934   C937    1.527   .     S
C937   H938    1.111   .     S
C937   H940    1.111   .     S
C937   H939    1.110   .     S
O941   C942    1.413   .     S
C942   H944    1.115   .     S
C942   C945    1.527   .     S
C942   H943    1.114   .     S
C945   H947    1.112   .     S
C945   C948    1.527   .     S
C945   H946    1.112   .     S
C948   H949    1.111   .     S
C948   H951    1.111   .     S
C948   H950    1.110   .     S
O952   C953    1.415   .     S
C953   H954    1.114   .     S
C953   C956    1.529   .     S
C953   H955    1.112   .     S
C956   H957    1.110   .     S
C956   H958    1.112   .     S
C956   C959    1.526   .     S
C959   H961    1.111   .     S
C959   H962    1.111   .     S
C959   H960    1.111   .     S
O963   C964    1.415   .     S
C964   C967    1.529   .     S
C964   H965    1.114   .     S
C964   H966    1.112   .     S
C967   H969    1.112   .     S
C967   H968    1.110   .     S
C967   C970    1.526   .     S
C970   H971    1.111   .     S
C970   H973    1.111   .     S
C970   H972    1.111   .     S
O974   C975    1.413   .     S
C975   C978    1.527   .     S
C975   H976    1.114   .     S
C975   H977    1.115   .     S
C978   C981    1.527   .     S
C978   H979    1.112   .     S
C978   H980    1.112   .     S
C981   H983    1.110   .     S
C981   H982    1.111   .     S
C981   H984    1.111   .     S
Zn985  O1040   1.943   .     S
Zn985  O1025   1.953   .     S
Zn985  O1087   1.945   .     S
Zn986  O1039   1.943   .     S
Zn986  O1026   1.953   .     S
Zn986  O1083   1.949   .     S
Zn987  O1577   1.949   1_455 S
Zn987  O1042   1.944   .     S
Zn987  O1027   1.953   .     S
Zn987  O1078   1.945   .     S
Zn988  O1569   1.945   1_455 S
Zn988  O1028   1.953   .     S
Zn988  O1041   1.944   .     S
Zn988  O1086   1.949   .     S
Zn989  O1044   1.943   .     S
Zn989  O1080   1.949   .     S
Zn989  O1025   1.953   .     S
Zn990  O1026   1.953   .     S
Zn990  O1043   1.943   .     S
Zn990  O1092   1.945   .     S
Zn991  O1027   1.953   .     S
Zn991  O1038   1.943   .     S
Zn991  O1574   1.945   1_455 S
Zn991  O1089   1.949   .     S
Zn992  O1037   1.943   .     S
Zn992  O1582   1.949   1_455 S
Zn992  O1028   1.953   .     S
Zn992  O1081   1.945   .     S
Zn993  O1032   1.943   .     S
Zn993  O1071   1.945   .     S
Zn993  O1068   1.949   .     S
Zn993  O1520   1.953   .     S
Zn994  O1031   1.943   .     S
Zn994  O1072   1.945   .     S
Zn994  O1067   1.949   .     S
Zn994  O1027   1.953   .     S
Zn995  O1034   1.944   .     S
Zn995  O1069   1.949   .     S
Zn995  O1062   1.945   .     S
Zn995  O42     1.953   1_565 S
Zn996  O1033   1.944   .     S
Zn996  O1070   1.949   .     S
Zn996  O1061   1.945   .     S
Zn996  O1025   1.953   .     S
Zn997  O1075   1.945   .     S
Zn997  O1064   1.949   .     S
Zn997  O1036   1.943   .     S
Zn997  O1028   1.953   .     S
Zn998  O1519   1.953   .     S
Zn998  O1063   1.949   .     S
Zn998  O1035   1.943   .     S
Zn998  O1076   1.945   .     S
Zn999  O1026   1.953   .     S
Zn999  O1066   1.945   .     S
Zn999  O1073   1.949   .     S
Zn999  O1030   1.943   .     S
Zn1000 O1029   1.943   .     S
Zn1000 O1065   1.945   .     S
Zn1000 O1074   1.949   .     S
Zn1000 O41     1.953   1_565 S
C1001  C1169   1.404   .     A
C1001  O1301   1.385   .     S
C1001  C1509   1.403   .     S
C1002  C1170   1.405   .     A
C1002  O1312   1.387   .     S
C1002  C1018   1.406   .     S
C1003  C1019   1.406   .     A
C1003  C1171   1.405   .     A
C1003  O1323   1.387   .     S
C1004  C1172   1.404   .     A
C1004  C36     1.403   1_565 A
C1004  O1334   1.385   .     S
C1005  C1017   1.403   .     A
C1005  O1345   1.385   .     S
C1005  C1165   1.404   .     A
C1006  C1510   1.406   .     A
C1006  C1166   1.405   .     A
C1006  O1356   1.387   .     S
C1007  O1367   1.387   .     S
C1007  C1167   1.405   .     A
C1007  C35     1.406   1_565 S
C1008  C1168   1.404   .     A
C1008  O1378   1.385   .     S
C1008  C1020   1.403   .     S
C1009  C1177   1.404   .     A
C1009  O1389   1.385   .     S
C1009  C1021   1.403   .     A
C1010  C38     1.406   1_565 A
C1010  C1178   1.405   .     A
C1010  O1400   1.386   .     S
C1011  O1411   1.386   .     S
C1011  C1179   1.405   .     A
C1011  C1515   1.406   .     A
C1012  C1024   1.403   .     A
C1012  C1180   1.404   .     A
C1012  O1422   1.385   .     S
C1013  O1433   1.385   .     S
C1013  C1173   1.404   .     A
C1013  C37     1.403   1_565 S
C1014  C1174   1.405   .     A
C1014  O1444   1.386   .     S
C1014  C1022   1.406   .     S
C1015  C1175   1.405   .     A
C1015  O1455   1.386   .     S
C1015  C1023   1.406   .     S
C1016  O1466   1.385   .     S
C1016  C1176   1.404   .     A
C1016  C1516   1.403   .     S
C1017  C1493   1.403   1_455 S
C1017  C1111   1.449   .     S
C1018  C1498   1.406   1_455 A
C1018  C1112   1.453   .     S
C1019  C1109   1.453   .     S
C1020  C1110   1.449   .     S
C1021  C1115   1.449   .     S
C1022  C1116   1.453   .     S
C1023  C1113   1.452   .     S
C1023  C1503   1.406   1_455 A
C1024  C1114   1.449   .     S
C1024  C1508   1.403   1_455 S
O1027  Zn1490  1.953   1_455 S
O1028  Zn1485  1.953   1_455 S
O1029  C125    1.282   1_565 S
O1030  C1110   1.281   .     S
O1031  C1111   1.280   .     S
O1032  C1604   1.282   .     A
O1033  C1109   1.282   .     A
O1034  C126    1.281   1_565 A
O1035  C1603   1.280   .     A
O1036  C1112   1.282   .     S
O1037  C1113   1.282   .     A
O1038  C1114   1.281   .     S
O1039  C1115   1.281   .     S
O1040  C1116   1.282   .     S
O1041  C1113   1.282   .     A
O1042  C1114   1.281   .     S
O1043  C1115   1.281   .     S
O1044  C1116   1.282   .     S
H1045  C1093   1.083   .     S
H1046  C1094   1.083   .     S
H1047  C1095   1.083   .     S
H1048  C1096   1.083   .     S
H1049  C1097   1.083   .     S
H1050  C1098   1.082   .     S
H1051  C1099   1.083   .     S
H1052  C1100   1.083   .     S
H1053  C1101   1.083   .     S
H1054  C1102   1.083   .     S
H1055  C1103   1.083   .     S
H1056  C1104   1.083   .     S
H1057  C1105   1.083   .     S
H1058  C1106   1.083   .     S
H1059  C1107   1.083   .     S
H1060  C1108   1.083   .     S
O1061  C1117   1.281   .     A
O1062  C1118   1.285   .     A
O1063  C1119   1.283   .     A
O1064  C1120   1.283   .     A
O1065  C1121   1.281   .     A
O1066  C1122   1.285   .     A
O1067  C1123   1.283   .     A
O1068  C1124   1.283   .     A
O1069  C1125   1.283   .     A
O1070  C1126   1.283   .     A
O1071  C1127   1.281   .     A
O1072  C1128   1.285   .     A
O1073  C1129   1.283   .     A
O1074  C1130   1.283   .     A
O1075  C1131   1.281   .     A
O1076  C1132   1.285   .     A
O1077  Zn1480  1.945   .     S
O1077  C1127   1.282   .     A
O1078  C1128   1.284   .     A
O1079  C1125   1.283   .     A
O1079  Zn6     1.949   1_565 S
O1080  C1126   1.283   .     A
O1081  C1131   1.282   .     A
O1082  C1132   1.284   .     A
O1082  Zn1483  1.945   .     S
O1083  C1129   1.283   .     A
O1084  C1130   1.283   .     A
O1084  Zn1     1.949   1_565 S
O1085  Zn1479  1.949   .     S
O1085  C1119   1.283   .     A
O1086  C1120   1.283   .     A
O1087  C1117   1.281   .     A
O1088  C1118   1.285   .     A
O1088  Zn2     1.945   1_565 S
O1089  C1123   1.283   .     A
O1090  C1124   1.283   .     A
O1090  Zn1484  1.949   .     S
O1091  C1121   1.281   .     A
O1091  Zn5     1.945   1_565 S
O1092  C1122   1.285   .     A
C1093  C1098   1.389   .     A
C1093  C1165   1.403   .     A
C1094  C1166   1.404   .     A
C1094  C1097   1.389   .     A
C1095  C1167   1.404   .     A
C1095  C1100   1.389   .     A
C1096  C1168   1.403   .     A
C1096  C1099   1.389   .     A
C1097  C1169   1.403   .     A
C1098  C1170   1.404   .     A
C1099  C1171   1.404   .     A
C1100  C1172   1.403   .     A
C1101  C1173   1.403   .     A
C1101  C1106   1.389   1_556 S
C1102  C1174   1.404   .     A
C1102  C1105   1.390   1_554 S
C1103  C1175   1.404   .     A
C1103  C1108   1.390   1_556 S
C1104  C1176   1.403   .     A
C1104  C1107   1.390   1_554 S
C1105  C1177   1.403   .     A
C1105  C1102   1.390   1_556 S
C1106  C1178   1.404   .     A
C1106  C1101   1.389   1_554 S
C1107  C1179   1.404   .     A
C1107  C1104   1.390   1_556 S
C1108  C1180   1.403   .     A
C1108  C1103   1.390   1_554 S
C1111  O1527   1.280   1_455 A
C1112  O1524   1.282   1_455 A
C1117  C1183   1.457   .     S
C1118  C1184   1.468   .     S
C1119  C1185   1.466   .     S
C1120  C1186   1.466   .     S
C1121  C1187   1.457   .     S
C1122  C1188   1.468   .     S
C1123  C1181   1.466   .     S
C1124  C1182   1.466   .     S
C1125  C1191   1.466   .     S
C1126  C1192   1.466   .     S
C1127  C1193   1.458   .     S
C1128  C1194   1.468   .     S
C1129  C1195   1.466   .     S
C1130  C1196   1.466   .     S
C1131  C1189   1.458   .     S
C1132  C1190   1.468   .     S
C1133  C1196   1.408   .     A
C1133  C1148   1.400   .     A
C1133  N1205   1.431   .     S
C1134  C1147   1.400   .     A
C1134  N1208   1.434   .     S
C1134  C1195   1.409   .     A
C1135  N1211   1.428   .     S
C1135  C1194   1.408   .     A
C1135  C1146   1.400   .     A
C1136  C1193   1.406   .     A
C1136  C1145   1.400   .     A
C1136  N1214   1.436   .     S
C1137  C1192   1.408   .     A
C1137  C1144   1.400   .     A
C1137  N1217   1.431   .     S
C1138  N1220   1.434   .     S
C1138  C1191   1.409   .     A
C1138  C1143   1.400   .     A
C1139  C1142   1.400   .     A
C1139  N1223   1.428   .     S
C1139  C1190   1.408   .     A
C1140  C1189   1.406   .     A
C1140  C1141   1.400   .     A
C1140  N1226   1.436   .     S
C1141  C1188   1.408   .     A
C1141  N1229   1.428   .     S
C1142  N1232   1.436   .     S
C1142  C1187   1.406   .     A
C1143  N1235   1.431   .     S
C1143  C1186   1.408   .     A
C1144  C1185   1.409   .     A
C1144  N1238   1.434   .     S
C1145  C1184   1.408   .     A
C1145  N1241   1.428   .     S
C1146  N1244   1.436   .     S
C1146  C1183   1.406   .     A
C1147  C1182   1.408   .     A
C1147  N1247   1.431   .     S
C1148  C1181   1.409   .     A
C1148  N1250   1.434   .     S
C1149  N1253   1.431   .     S
C1149  C1182   1.408   .     A
C1149  C1164   1.400   .     A
C1150  N1256   1.434   .     S
C1150  C1181   1.409   .     A
C1150  C1163   1.400   .     A
C1151  C1184   1.408   .     A
C1151  C1162   1.400   .     A
C1151  N1259   1.428   .     S
C1152  N1262   1.436   .     S
C1152  C1183   1.406   .     A
C1152  C1161   1.400   .     A
C1153  C1160   1.400   .     A
C1153  C1186   1.408   .     A
C1153  N1265   1.431   .     S
C1154  N1268   1.434   .     S
C1154  C1159   1.400   .     A
C1154  C1185   1.409   .     A
C1155  C1188   1.408   .     A
C1155  N1271   1.428   .     S
C1155  C1158   1.400   .     A
C1156  C1187   1.406   .     A
C1156  N1274   1.436   .     S
C1156  C1157   1.400   .     A
C1157  N1277   1.428   .     S
C1157  C1190   1.408   .     A
C1158  N1280   1.436   .     S
C1158  C1189   1.406   .     A
C1159  N1283   1.431   .     S
C1159  C1192   1.408   .     A
C1160  N1286   1.434   .     S
C1160  C1191   1.409   .     A
C1161  N1289   1.428   .     S
C1161  C1194   1.408   .     A
C1162  N1292   1.436   .     S
C1162  C1193   1.406   .     A
C1163  N1295   1.431   .     S
C1163  C1196   1.408   .     A
C1164  C1195   1.409   .     A
C1164  N1298   1.434   .     S
C1165  C1197   1.414   .     A
C1166  C1690   1.415   .     S
C1167  C215    1.415   1_565 S
C1168  C1200   1.414   .     A
C1169  C1689   1.414   .     S
C1170  C1198   1.415   .     A
C1171  C1199   1.415   .     A
C1172  C216    1.414   1_565 S
C1173  C217    1.414   1_565 S
C1174  C1202   1.415   .     A
C1175  C1203   1.415   .     A
C1176  C1696   1.414   .     S
C1177  C1201   1.414   .     A
C1178  C218    1.415   1_565 S
C1179  C1695   1.415   .     S
C1180  C1204   1.414   .     A
C1197  C1198   1.410   .     A
C1197  C1661   1.414   1_455 S
C1198  C1658   1.415   1_455 S
C1199  C1200   1.410   .     A
C1201  C1202   1.410   1_556 S
C1202  C1201   1.410   1_554 S
C1203  C1671   1.415   1_455 S
C1203  C1204   1.410   1_556 S
C1204  C1668   1.414   1_455 S
C1204  C1203   1.410   1_554 S
N1205  O1206   1.301   .     A
N1205  O1207   1.301   .     A
N1208  O1209   1.300   .     A
N1208  O1210   1.301   .     A
N1211  O1212   1.300   .     A
N1211  O1213   1.301   .     A
N1214  O1216   1.301   .     A
N1214  O1215   1.301   .     A
N1217  O1219   1.301   .     A
N1217  O1218   1.301   .     A
N1220  O1221   1.300   .     A
N1220  O1222   1.301   .     A
N1223  O1224   1.300   .     A
N1223  O1225   1.301   .     A
N1226  O1228   1.301   .     A
N1226  O1227   1.301   .     A
N1229  O1230   1.300   .     A
N1229  O1231   1.301   .     A
N1232  O1234   1.301   .     A
N1232  O1233   1.301   .     A
N1235  O1236   1.301   .     A
N1235  O1237   1.301   .     A
N1238  O1240   1.301   .     A
N1238  O1239   1.300   .     A
N1241  O1242   1.300   .     A
N1241  O1243   1.301   .     A
N1244  O1245   1.301   .     A
N1244  O1246   1.301   .     A
N1247  O1249   1.301   .     A
N1247  O1248   1.301   .     A
N1250  O1252   1.301   .     A
N1250  O1251   1.300   .     A
N1253  O1255   1.301   .     A
N1253  O1254   1.301   .     A
N1256  O1257   1.300   .     A
N1256  O1258   1.301   .     A
N1259  O1260   1.300   .     A
N1259  O1261   1.301   .     A
N1262  O1263   1.301   .     A
N1262  O1264   1.301   .     A
N1265  O1267   1.301   .     A
N1265  O1266   1.301   .     A
N1268  O1269   1.300   .     A
N1268  O1270   1.301   .     A
N1271  O1273   1.301   .     A
N1271  O1272   1.300   .     A
N1274  O1275   1.301   .     A
N1274  O1276   1.301   .     A
N1277  O1278   1.300   .     A
N1277  O1279   1.301   .     A
N1280  O1281   1.301   .     A
N1280  O1282   1.301   .     A
N1283  O1284   1.301   .     A
N1283  O1285   1.301   .     A
N1286  O1288   1.301   .     A
N1286  O1287   1.300   .     A
N1289  O1291   1.301   .     A
N1289  O1290   1.300   .     A
N1292  O1294   1.301   .     A
N1292  O1293   1.301   .     A
N1295  O1296   1.301   .     A
N1295  O1297   1.301   .     A
N1298  O1299   1.300   .     A
N1298  O1300   1.301   .     A
O1301  C1794   1.413   .     S
C1302  H1304   1.115   .     S
C1302  H1303   1.115   .     S
C1302  O1793   1.413   1_455 S
C1302  C1797   1.527   1_455 S
C1305  H1306   1.112   .     S
C1305  H1307   1.112   .     S
C1305  C1794   1.527   .     S
C1305  C1800   1.527   .     S
C1308  H1309   1.111   .     S
C1308  H1311   1.111   .     S
C1308  H1310   1.110   .     S
C1308  C1797   1.527   1_455 S
O1312  C1313   1.415   .     S
C1313  H1315   1.112   .     S
C1313  H1314   1.114   .     S
C1313  C1316   1.529   .     S
C1316  H1317   1.110   .     S
C1316  C1319   1.526   .     S
C1316  H1318   1.112   .     S
C1319  H1321   1.111   .     S
C1319  H1320   1.111   .     S
C1319  H1322   1.111   .     S
O1323  C1324   1.415   .     S
C1324  H1325   1.114   .     S
C1324  H1326   1.112   .     S
C1324  C1327   1.529   .     S
C1327  H1329   1.112   .     S
C1327  H1328   1.110   .     S
C1327  C1330   1.526   .     S
C1330  H1332   1.111   .     S
C1330  H1333   1.111   .     S
C1330  H1331   1.111   .     S
O1334  C351    1.413   1_565 S
C1335  H1336   1.115   .     S
C1335  H1337   1.115   .     S
C1338  H1339   1.112   .     S
C1338  H1340   1.112   .     S
C1338  C351    1.527   1_565 S
C1338  C357    1.527   1_565 S
C1341  H1342   1.111   .     S
C1341  H1344   1.111   .     S
C1341  H1343   1.110   .     S
O1345  C1838   1.413   1_455 S
C1346  H1347   1.115   .     S
C1346  H1348   1.115   .     S
C1346  O1837   1.413   .     S
C1346  C1841   1.527   .     S
C1349  H1350   1.112   .     S
C1349  H1351   1.112   .     S
C1349  C1838   1.527   1_455 S
C1349  C1844   1.527   1_455 S
C1352  H1353   1.111   .     S
C1352  H1355   1.111   .     S
C1352  H1354   1.110   .     S
C1352  C1841   1.527   .     S
O1356  C1357   1.415   .     S
C1357  C1360   1.529   .     S
C1357  H1359   1.112   .     S
C1357  H1358   1.114   .     S
C1360  H1361   1.110   .     S
C1360  H1362   1.112   .     S
C1360  C1363   1.526   .     S
C1363  H1366   1.111   .     S
C1363  H1364   1.111   .     S
C1363  H1365   1.111   .     S
O1367  C1368   1.415   .     S
C1368  H1370   1.112   .     S
C1368  H1369   1.114   .     S
C1368  C1371   1.529   .     S
C1371  C1374   1.526   .     S
C1371  H1373   1.112   .     S
C1371  H1372   1.110   .     S
C1374  H1376   1.111   .     S
C1374  H1375   1.111   .     S
C1374  H1377   1.111   .     S
C1379  H1380   1.115   .     S
C1379  H1381   1.115   .     S
C1379  O394    1.413   1_565 S
C1379  C398    1.527   1_565 S
C1382  H1384   1.112   .     S
C1382  H1383   1.112   .     S
C1385  H1386   1.111   .     S
C1385  H1388   1.111   .     S
C1385  H1387   1.110   .     S
C1385  C398    1.527   1_565 S
O1389  C1390   1.413   .     S
C1390  H1392   1.115   .     S
C1390  H1391   1.114   .     S
C1390  C1393   1.527   .     S
C1393  H1394   1.112   .     S
C1393  C1396   1.527   .     S
C1393  H1395   1.112   .     S
C1396  H1397   1.111   .     S
C1396  H1399   1.111   .     S
C1396  H1398   1.110   .     S
O1400  C1401   1.415   .     S
C1401  H1403   1.112   .     S
C1401  H1402   1.114   .     S
C1401  C1404   1.529   .     S
C1404  H1405   1.110   .     S
C1404  C1407   1.526   .     S
C1404  H1406   1.112   .     S
C1407  H1410   1.111   .     S
C1407  H1409   1.111   .     S
C1407  H1408   1.111   .     S
O1411  C1412   1.415   .     S
C1412  H1413   1.114   .     S
C1412  C1415   1.529   .     S
C1412  H1414   1.112   .     S
C1415  H1417   1.112   .     S
C1415  H1416   1.110   .     S
C1415  C1418   1.526   .     S
C1418  H1419   1.111   .     S
C1418  H1420   1.111   .     S
C1418  H1421   1.111   .     S
O1422  C1423   1.413   .     S
C1423  H1425   1.115   .     S
C1423  H1424   1.114   .     S
C1423  C1426   1.527   .     S
C1426  H1427   1.112   .     S
C1426  H1428   1.112   .     S
C1426  C1429   1.527   .     S
C1429  H1430   1.111   .     S
C1429  H1432   1.111   .     S
C1429  H1431   1.110   .     S
O1433  C1434   1.413   .     S
C1434  H1436   1.115   .     S
C1434  C1437   1.527   .     S
C1434  H1435   1.114   .     S
C1437  H1439   1.112   .     S
C1437  C1440   1.527   .     S
C1437  H1438   1.112   .     S
C1440  H1441   1.111   .     S
C1440  H1443   1.111   .     S
C1440  H1442   1.110   .     S
O1444  C1445   1.415   .     S
C1445  H1446   1.114   .     S
C1445  C1448   1.529   .     S
C1445  H1447   1.112   .     S
C1448  H1449   1.110   .     S
C1448  H1450   1.112   .     S
C1448  C1451   1.526   .     S
C1451  H1453   1.111   .     S
C1451  H1454   1.111   .     S
C1451  H1452   1.111   .     S
O1455  C1456   1.415   .     S
C1456  C1459   1.529   .     S
C1456  H1457   1.114   .     S
C1456  H1458   1.112   .     S
C1459  H1461   1.112   .     S
C1459  H1460   1.110   .     S
C1459  C1462   1.526   .     S
C1462  H1463   1.111   .     S
C1462  H1465   1.111   .     S
C1462  H1464   1.111   .     S
O1466  C1467   1.413   .     S
C1467  C1470   1.527   .     S
C1467  H1468   1.114   .     S
C1467  H1469   1.115   .     S
C1470  C1473   1.527   .     S
C1470  H1471   1.112   .     S
C1470  H1472   1.112   .     S
C1473  H1475   1.110   .     S
C1473  H1474   1.111   .     S
C1473  H1476   1.111   .     S
Zn1477 O1532   1.943   .     S
Zn1477 O1517   1.953   .     S
Zn1477 O1579   1.945   .     S
Zn1478 O1531   1.943   .     S
Zn1478 O1518   1.953   .     S
Zn1478 O1575   1.949   .     S
Zn1479 O1534   1.944   .     S
Zn1479 O1519   1.953   .     S
Zn1479 O1570   1.945   .     S
Zn1480 O1520   1.953   .     S
Zn1480 O1533   1.944   .     S
Zn1480 O1578   1.949   .     S
Zn1481 O1536   1.943   .     S
Zn1481 O1572   1.949   .     S
Zn1481 O1517   1.953   .     S
Zn1482 O1518   1.953   .     S
Zn1482 O1535   1.943   .     S
Zn1482 O1584   1.945   .     S
Zn1483 O1519   1.953   .     S
Zn1483 O1530   1.943   .     S
Zn1483 O1581   1.949   .     S
Zn1484 O1529   1.943   .     S
Zn1484 O1520   1.953   .     S
Zn1484 O1573   1.945   .     S
Zn1485 O1524   1.943   .     S
Zn1485 O1563   1.945   .     S
Zn1485 O1560   1.949   .     S
Zn1485 O1028   1.953   1_655 S
Zn1486 O1523   1.943   .     S
Zn1486 O1564   1.945   .     S
Zn1486 O1559   1.949   .     S
Zn1486 O1519   1.953   .     S
Zn1487 O1526   1.944   .     S
Zn1487 O1561   1.949   .     S
Zn1487 O1554   1.945   .     S
Zn1487 O534    1.953   1_565 S
Zn1488 O1525   1.944   .     S
Zn1488 O1562   1.949   .     S
Zn1488 O1553   1.945   .     S
Zn1488 O1517   1.953   .     S
Zn1489 O1567   1.945   .     S
Zn1489 O1556   1.949   .     S
Zn1489 O1528   1.943   .     S
Zn1489 O1520   1.953   .     S
Zn1490 O1027   1.953   1_655 S
Zn1490 O1555   1.949   .     S
Zn1490 O1527   1.943   .     S
Zn1490 O1568   1.945   .     S
Zn1491 O1518   1.953   .     S
Zn1491 O1558   1.945   .     S
Zn1491 O1565   1.949   .     S
Zn1491 O1522   1.943   .     S
Zn1492 O1521   1.943   .     S
Zn1492 O1557   1.945   .     S
Zn1492 O1566   1.949   .     S
Zn1492 O533    1.953   1_565 S
C1493  C1661   1.404   .     A
C1493  O1793   1.385   .     S
C1493  C1017   1.403   1_655 S
C1494  C1662   1.405   .     A
C1494  O1804   1.387   .     S
C1494  C1510   1.406   .     S
C1495  C1511   1.406   .     A
C1495  C1663   1.405   .     A
C1495  O1815   1.387   .     S
C1496  C1664   1.404   .     A
C1496  C528    1.403   1_565 A
C1496  O1826   1.385   .     S
C1497  C1509   1.403   .     A
C1497  O1837   1.385   .     S
C1497  C1657   1.404   .     A
C1498  C1018   1.406   1_655 A
C1498  C1658   1.405   .     A
C1498  O1848   1.387   .     S
C1499  O1859   1.387   .     S
C1499  C1659   1.405   .     A
C1499  C527    1.406   1_565 S
C1500  C1660   1.404   .     A
C1500  O1870   1.385   .     S
C1500  C1512   1.403   .     S
C1501  C1669   1.404   .     A
C1501  O1881   1.385   .     S
C1501  C1513   1.403   .     A
C1502  C530    1.406   1_565 A
C1502  C1670   1.405   .     A
C1502  O1892   1.386   .     S
C1503  O1903   1.386   .     S
C1503  C1671   1.405   .     A
C1503  C1023   1.406   1_655 A
C1504  C1516   1.403   .     A
C1504  C1672   1.404   .     A
C1504  O1914   1.385   .     S
C1505  O1925   1.385   .     S
C1505  C1665   1.404   .     A
C1505  C529    1.403   1_565 S
C1506  C1666   1.405   .     A
C1506  O1936   1.386   .     S
C1506  C1514   1.406   .     S
C1507  C1667   1.405   .     A
C1507  O1947   1.386   .     S
C1507  C1515   1.406   .     S
C1508  O1958   1.385   .     S
C1508  C1668   1.404   .     A
C1508  C1024   1.403   1_655 S
C1509  C1603   1.449   .     S
C1510  C1604   1.453   .     S
C1511  C1601   1.453   .     S
C1512  C1602   1.449   .     S
C1513  C1607   1.449   .     S
C1514  C1608   1.453   .     S
C1515  C1605   1.452   .     S
C1516  C1606   1.449   .     S
O1521  C617    1.282   1_565 S
O1522  C1602   1.281   .     S
O1523  C1603   1.280   .     S
O1524  C1112   1.282   1_655 A
O1525  C1601   1.282   .     A
O1526  C618    1.281   1_565 A
O1527  C1111   1.280   1_655 A
O1528  C1604   1.282   .     S
O1529  C1605   1.282   .     A
O1530  C1606   1.281   .     S
O1531  C1607   1.281   .     S
O1532  C1608   1.282   .     S
O1533  C1605   1.282   .     A
O1534  C1606   1.281   .     S
O1535  C1607   1.281   .     S
O1536  C1608   1.282   .     S
H1537  C1585   1.083   .     S
H1538  C1586   1.083   .     S
H1539  C1587   1.083   .     S
H1540  C1588   1.083   .     S
H1541  C1589   1.083   .     S
H1542  C1590   1.082   .     S
H1543  C1591   1.083   .     S
H1544  C1592   1.083   .     S
H1545  C1593   1.083   .     S
H1546  C1594   1.083   .     S
H1547  C1595   1.083   .     S
H1548  C1596   1.083   .     S
H1549  C1597   1.083   .     S
H1550  C1598   1.083   .     S
H1551  C1599   1.083   .     S
H1552  C1600   1.083   .     S
O1553  C1609   1.281   .     A
O1554  C1610   1.285   .     A
O1555  C1611   1.283   .     A
O1556  C1612   1.283   .     A
O1557  C1613   1.281   .     A
O1558  C1614   1.285   .     A
O1559  C1615   1.283   .     A
O1560  C1616   1.283   .     A
O1561  C1617   1.283   .     A
O1562  C1618   1.283   .     A
O1563  C1619   1.281   .     A
O1564  C1620   1.285   .     A
O1565  C1621   1.283   .     A
O1566  C1622   1.283   .     A
O1567  C1623   1.281   .     A
O1568  C1624   1.285   .     A
O1569  Zn988   1.945   1_655 S
O1569  C1619   1.282   .     A
O1570  C1620   1.284   .     A
O1571  C1617   1.283   .     A
O1571  Zn498   1.949   1_565 S
O1572  C1618   1.283   .     A
O1573  C1623   1.282   .     A
O1574  C1624   1.284   .     A
O1574  Zn991   1.945   1_655 S
O1575  C1621   1.283   .     A
O1576  C1622   1.283   .     A
O1576  Zn493   1.949   1_565 S
O1577  Zn987   1.949   1_655 S
O1577  C1611   1.283   .     A
O1578  C1612   1.283   .     A
O1579  C1609   1.281   .     A
O1580  C1610   1.285   .     A
O1580  Zn494   1.945   1_565 S
O1581  C1615   1.283   .     A
O1582  C1616   1.283   .     A
O1582  Zn992   1.949   1_655 S
O1583  C1613   1.281   .     A
O1583  Zn497   1.945   1_565 S
O1584  C1614   1.285   .     A
C1585  C1590   1.389   .     A
C1585  C1657   1.403   .     A
C1586  C1658   1.404   .     A
C1586  C1589   1.389   .     A
C1587  C1659   1.404   .     A
C1587  C1592   1.389   .     A
C1588  C1660   1.403   .     A
C1588  C1591   1.389   .     A
C1589  C1661   1.403   .     A
C1590  C1662   1.404   .     A
C1591  C1663   1.404   .     A
C1592  C1664   1.403   .     A
C1593  C1665   1.403   .     A
C1593  C1598   1.389   1_556 S
C1594  C1666   1.404   .     A
C1594  C1597   1.390   1_554 S
C1595  C1667   1.404   .     A
C1595  C1600   1.390   1_556 S
C1596  C1668   1.403   .     A
C1596  C1599   1.390   1_554 S
C1597  C1669   1.403   .     A
C1597  C1594   1.390   1_556 S
C1598  C1670   1.404   .     A
C1598  C1593   1.389   1_554 S
C1599  C1671   1.404   .     A
C1599  C1596   1.390   1_556 S
C1600  C1672   1.403   .     A
C1600  C1595   1.390   1_554 S
C1609  C1675   1.457   .     S
C1610  C1676   1.468   .     S
C1611  C1677   1.466   .     S
C1612  C1678   1.466   .     S
C1613  C1679   1.457   .     S
C1614  C1680   1.468   .     S
C1615  C1673   1.466   .     S
C1616  C1674   1.466   .     S
C1617  C1683   1.466   .     S
C1618  C1684   1.466   .     S
C1619  C1685   1.458   .     S
C1620  C1686   1.468   .     S
C1621  C1687   1.466   .     S
C1622  C1688   1.466   .     S
C1623  C1681   1.458   .     S
C1624  C1682   1.468   .     S
C1625  C1688   1.408   .     A
C1625  C1640   1.400   .     A
C1625  N1697   1.431   .     S
C1626  C1639   1.400   .     A
C1626  N1700   1.434   .     S
C1626  C1687   1.409   .     A
C1627  N1703   1.428   .     S
C1627  C1686   1.408   .     A
C1627  C1638   1.400   .     A
C1628  C1685   1.406   .     A
C1628  C1637   1.400   .     A
C1628  N1706   1.436   .     S
C1629  C1684   1.408   .     A
C1629  C1636   1.400   .     A
C1629  N1709   1.431   .     S
C1630  N1712   1.434   .     S
C1630  C1683   1.409   .     A
C1630  C1635   1.400   .     A
C1631  C1634   1.400   .     A
C1631  N1715   1.428   .     S
C1631  C1682   1.408   .     A
C1632  C1681   1.406   .     A
C1632  C1633   1.400   .     A
C1632  N1718   1.436   .     S
C1633  C1680   1.408   .     A
C1633  N1721   1.428   .     S
C1634  N1724   1.436   .     S
C1634  C1679   1.406   .     A
C1635  N1727   1.431   .     S
C1635  C1678   1.408   .     A
C1636  C1677   1.409   .     A
C1636  N1730   1.434   .     S
C1637  C1676   1.408   .     A
C1637  N1733   1.428   .     S
C1638  N1736   1.436   .     S
C1638  C1675   1.406   .     A
C1639  C1674   1.408   .     A
C1639  N1739   1.431   .     S
C1640  C1673   1.409   .     A
C1640  N1742   1.434   .     S
C1641  N1745   1.431   .     S
C1641  C1674   1.408   .     A
C1641  C1656   1.400   .     A
C1642  N1748   1.434   .     S
C1642  C1673   1.409   .     A
C1642  C1655   1.400   .     A
C1643  C1676   1.408   .     A
C1643  C1654   1.400   .     A
C1643  N1751   1.428   .     S
C1644  N1754   1.436   .     S
C1644  C1675   1.406   .     A
C1644  C1653   1.400   .     A
C1645  C1652   1.400   .     A
C1645  C1678   1.408   .     A
C1645  N1757   1.431   .     S
C1646  N1760   1.434   .     S
C1646  C1651   1.400   .     A
C1646  C1677   1.409   .     A
C1647  C1680   1.408   .     A
C1647  N1763   1.428   .     S
C1647  C1650   1.400   .     A
C1648  C1679   1.406   .     A
C1648  N1766   1.436   .     S
C1648  C1649   1.400   .     A
C1649  N1769   1.428   .     S
C1649  C1682   1.408   .     A
C1650  N1772   1.436   .     S
C1650  C1681   1.406   .     A
C1651  N1775   1.431   .     S
C1651  C1684   1.408   .     A
C1652  N1778   1.434   .     S
C1652  C1683   1.409   .     A
C1653  N1781   1.428   .     S
C1653  C1686   1.408   .     A
C1654  N1784   1.436   .     S
C1654  C1685   1.406   .     A
C1655  N1787   1.431   .     S
C1655  C1688   1.408   .     A
C1656  C1687   1.409   .     A
C1656  N1790   1.434   .     S
C1657  C1689   1.414   .     A
C1658  C1198   1.415   1_655 S
C1659  C707    1.415   1_565 S
C1660  C1692   1.414   .     A
C1661  C1197   1.414   1_655 S
C1662  C1690   1.415   .     A
C1663  C1691   1.415   .     A
C1664  C708    1.414   1_565 S
C1665  C709    1.414   1_565 S
C1666  C1694   1.415   .     A
C1667  C1695   1.415   .     A
C1668  C1204   1.414   1_655 S
C1669  C1693   1.414   .     A
C1670  C710    1.415   1_565 S
C1671  C1203   1.415   1_655 S
C1672  C1696   1.414   .     A
C1689  C1690   1.410   .     A
C1691  C1692   1.410   .     A
C1693  C1694   1.410   1_556 S
C1694  C1693   1.410   1_554 S
C1695  C1696   1.410   1_556 S
C1696  C1695   1.410   1_554 S
N1697  O1698   1.301   .     A
N1697  O1699   1.301   .     A
N1700  O1701   1.300   .     A
N1700  O1702   1.301   .     A
N1703  O1704   1.300   .     A
N1703  O1705   1.301   .     A
N1706  O1708   1.301   .     A
N1706  O1707   1.301   .     A
N1709  O1711   1.301   .     A
N1709  O1710   1.301   .     A
N1712  O1713   1.300   .     A
N1712  O1714   1.301   .     A
N1715  O1716   1.300   .     A
N1715  O1717   1.301   .     A
N1718  O1720   1.301   .     A
N1718  O1719   1.301   .     A
N1721  O1722   1.300   .     A
N1721  O1723   1.301   .     A
N1724  O1726   1.301   .     A
N1724  O1725   1.301   .     A
N1727  O1728   1.301   .     A
N1727  O1729   1.301   .     A
N1730  O1732   1.301   .     A
N1730  O1731   1.300   .     A
N1733  O1734   1.300   .     A
N1733  O1735   1.301   .     A
N1736  O1737   1.301   .     A
N1736  O1738   1.301   .     A
N1739  O1741   1.301   .     A
N1739  O1740   1.301   .     A
N1742  O1744   1.301   .     A
N1742  O1743   1.300   .     A
N1745  O1747   1.301   .     A
N1745  O1746   1.301   .     A
N1748  O1749   1.300   .     A
N1748  O1750   1.301   .     A
N1751  O1752   1.300   .     A
N1751  O1753   1.301   .     A
N1754  O1755   1.301   .     A
N1754  O1756   1.301   .     A
N1757  O1759   1.301   .     A
N1757  O1758   1.301   .     A
N1760  O1761   1.300   .     A
N1760  O1762   1.301   .     A
N1763  O1765   1.301   .     A
N1763  O1764   1.300   .     A
N1766  O1767   1.301   .     A
N1766  O1768   1.301   .     A
N1769  O1770   1.300   .     A
N1769  O1771   1.301   .     A
N1772  O1773   1.301   .     A
N1772  O1774   1.301   .     A
N1775  O1776   1.301   .     A
N1775  O1777   1.301   .     A
N1778  O1780   1.301   .     A
N1778  O1779   1.300   .     A
N1781  O1783   1.301   .     A
N1781  O1782   1.300   .     A
N1784  O1786   1.301   .     A
N1784  O1785   1.301   .     A
N1787  O1788   1.301   .     A
N1787  O1789   1.301   .     A
N1790  O1791   1.300   .     A
N1790  O1792   1.301   .     A
O1793  C1302   1.413   1_655 S
C1794  H1796   1.115   .     S
C1794  H1795   1.115   .     S
C1797  H1798   1.112   .     S
C1797  H1799   1.112   .     S
C1797  C1302   1.527   1_655 S
C1797  C1308   1.527   1_655 S
C1800  H1801   1.111   .     S
C1800  H1803   1.111   .     S
C1800  H1802   1.110   .     S
O1804  C1805   1.415   .     S
C1805  H1807   1.112   .     S
C1805  H1806   1.114   .     S
C1805  C1808   1.529   .     S
C1808  H1809   1.110   .     S
C1808  C1811   1.526   .     S
C1808  H1810   1.112   .     S
C1811  H1813   1.111   .     S
C1811  H1812   1.111   .     S
C1811  H1814   1.111   .     S
O1815  C1816   1.415   .     S
C1816  H1817   1.114   .     S
C1816  H1818   1.112   .     S
C1816  C1819   1.529   .     S
C1819  H1821   1.112   .     S
C1819  H1820   1.110   .     S
C1819  C1822   1.526   .     S
C1822  H1824   1.111   .     S
C1822  H1825   1.111   .     S
C1822  H1823   1.111   .     S
O1826  C843    1.413   1_565 S
C1827  H1828   1.115   .     S
C1827  H1829   1.115   .     S
C1830  H1831   1.112   .     S
C1830  H1832   1.112   .     S
C1830  C843    1.527   1_565 S
C1830  C849    1.527   1_565 S
C1833  H1834   1.111   .     S
C1833  H1836   1.111   .     S
C1833  H1835   1.110   .     S
C1838  H1839   1.115   .     S
C1838  H1840   1.115   .     S
C1838  O1345   1.413   1_655 S
C1838  C1349   1.527   1_655 S
C1841  H1842   1.112   .     S
C1841  H1843   1.112   .     S
C1844  H1845   1.111   .     S
C1844  H1847   1.111   .     S
C1844  H1846   1.110   .     S
C1844  C1349   1.527   1_655 S
O1848  C1849   1.415   .     S
C1849  C1852   1.529   .     S
C1849  H1851   1.112   .     S
C1849  H1850   1.114   .     S
C1852  H1853   1.110   .     S
C1852  H1854   1.112   .     S
C1852  C1855   1.526   .     S
C1855  H1858   1.111   .     S
C1855  H1856   1.111   .     S
C1855  H1857   1.111   .     S
O1859  C1860   1.415   .     S
C1860  H1862   1.112   .     S
C1860  H1861   1.114   .     S
C1860  C1863   1.529   .     S
C1863  C1866   1.526   .     S
C1863  H1865   1.112   .     S
C1863  H1864   1.110   .     S
C1866  H1868   1.111   .     S
C1866  H1867   1.111   .     S
C1866  H1869   1.111   .     S
C1871  H1872   1.115   .     S
C1871  H1873   1.115   .     S
C1871  O886    1.413   1_565 S
C1871  C890    1.527   1_565 S
C1874  H1876   1.112   .     S
C1874  H1875   1.112   .     S
C1877  H1878   1.111   .     S
C1877  H1880   1.111   .     S
C1877  H1879   1.110   .     S
C1877  C890    1.527   1_565 S
O1881  C1882   1.413   .     S
C1882  H1884   1.115   .     S
C1882  H1883   1.114   .     S
C1882  C1885   1.527   .     S
C1885  H1886   1.112   .     S
C1885  C1888   1.527   .     S
C1885  H1887   1.112   .     S
C1888  H1889   1.111   .     S
C1888  H1891   1.111   .     S
C1888  H1890   1.110   .     S
O1892  C1893   1.415   .     S
C1893  H1895   1.112   .     S
C1893  H1894   1.114   .     S
C1893  C1896   1.529   .     S
C1896  H1897   1.110   .     S
C1896  C1899   1.526   .     S
C1896  H1898   1.112   .     S
C1899  H1902   1.111   .     S
C1899  H1901   1.111   .     S
C1899  H1900   1.111   .     S
O1903  C1904   1.415   .     S
C1904  H1905   1.114   .     S
C1904  C1907   1.529   .     S
C1904  H1906   1.112   .     S
C1907  H1909   1.112   .     S
C1907  H1908   1.110   .     S
C1907  C1910   1.526   .     S
C1910  H1911   1.111   .     S
C1910  H1912   1.111   .     S
C1910  H1913   1.111   .     S
O1914  C1915   1.413   .     S
C1915  H1917   1.115   .     S
C1915  H1916   1.114   .     S
C1915  C1918   1.527   .     S
C1918  H1919   1.112   .     S
C1918  H1920   1.112   .     S
C1918  C1921   1.527   .     S
C1921  H1922   1.111   .     S
C1921  H1924   1.111   .     S
C1921  H1923   1.110   .     S
O1925  C1926   1.413   .     S
C1926  H1928   1.115   .     S
C1926  C1929   1.527   .     S
C1926  H1927   1.114   .     S
C1929  H1931   1.112   .     S
C1929  C1932   1.527   .     S
C1929  H1930   1.112   .     S
C1932  H1933   1.111   .     S
C1932  H1935   1.111   .     S
C1932  H1934   1.110   .     S
O1936  C1937   1.415   .     S
C1937  H1938   1.114   .     S
C1937  C1940   1.529   .     S
C1937  H1939   1.112   .     S
C1940  H1941   1.110   .     S
C1940  H1942   1.112   .     S
C1940  C1943   1.526   .     S
C1943  H1945   1.111   .     S
C1943  H1946   1.111   .     S
C1943  H1944   1.111   .     S
O1947  C1948   1.415   .     S
C1948  C1951   1.529   .     S
C1948  H1949   1.114   .     S
C1948  H1950   1.112   .     S
C1951  H1953   1.112   .     S
C1951  H1952   1.110   .     S
C1951  C1954   1.526   .     S
C1954  H1955   1.111   .     S
C1954  H1957   1.111   .     S
C1954  H1956   1.111   .     S
O1958  C1959   1.413   .     S
C1959  C1962   1.527   .     S
C1959  H1960   1.114   .     S
C1959  H1961   1.115   .     S
C1962  C1965   1.527   .     S
C1962  H1963   1.112   .     S
C1962  H1964   1.112   .     S
C1965  H1967   1.110   .     S
C1965  H1966   1.111   .     S
C1965  H1968   1.111   .     S
