data_str_m3_o10_o17_pcu_sym.125
_audit_creation_date              2020-01-03
_audit_creation_method            'Materials Studio'
_symmetry_space_group_name_H-M    'P1'
_symmetry_Int_Tables_number       1
_symmetry_cell_setting            triclinic
loop_
_symmetry_equiv_pos_as_xyz
  x,y,z
_cell_length_a                    23.5016
_cell_length_b                    26.0068
_cell_length_c                    29.8794
_cell_angle_alpha                 92.6530
_cell_angle_beta                  84.9471
_cell_angle_gamma                 93.2702
loop_
_atom_site_label
_atom_site_type_symbol
_atom_site_fract_x
_atom_site_fract_y
_atom_site_fract_z
_atom_site_U_iso_or_equiv
_atom_site_adp_type
_atom_site_occupancy
C1     C     0.18178   0.26463   0.25084   0.00000  Uiso   1.00
C2     C     0.20135   0.20581   0.40583   0.00000  Uiso   1.00
C3     C     0.16687   0.16745   0.11599   0.00000  Uiso   1.00
C4     C     0.16537   0.16980   0.38458   0.00000  Uiso   1.00
C5     C     0.20494   0.20161   0.09253   0.00000  Uiso   1.00
C6     C     0.12328   0.14033   0.40906   0.00000  Uiso   1.00
C7     C     0.20441   0.20371   0.04605   0.00000  Uiso   1.00
C8     C     0.12091   0.14177   0.45570   0.00000  Uiso   1.00
C9     C     0.16367   0.17168   0.02404   0.00000  Uiso   1.00
C10    C     0.16243   0.17303   0.47744   0.00000  Uiso   1.00
C11    C     0.12464   0.13766   0.04858   0.00000  Uiso   1.00
C12    C     0.15197   0.06876   0.25278   0.00000  Uiso   1.00
C13    C     0.20262   0.20560   0.45251   0.00000  Uiso   1.00
C14    C     0.24293   0.23743   0.02122   0.00000  Uiso   1.00
C15    C     0.07856   0.11217   0.48102   0.00000  Uiso   1.00
C16    C     0.12728   0.05211   0.11898   0.00000  Uiso   1.00
C17    C     0.20069   0.28525   0.37780   0.00000  Uiso   1.00
C18    C     0.26356   0.31838   0.04883   0.00000  Uiso   1.00
C19    C     0.31998   0.11266   0.46355   0.00000  Uiso   1.00
C20    C     0.28096   0.01048   0.26863   0.00000  Uiso   1.00
C21    C     0.08274   0.02105   0.32512   0.00000  Uiso   1.00
C22    C     0.31486   0.10163   0.17581   0.00000  Uiso   1.00
C23    C     0.24289   0.23712   0.47461   0.00000  Uiso   1.00
C24    C     0.01742   0.22646   0.32653   0.00000  Uiso   1.00
C25    C     0.08186   0.10892   0.02695   0.00000  Uiso   1.00
C26    C     0.19078   0.31880   0.25102   0.00000  Uiso   1.00
C27    C     0.14565   0.01534   0.26190   0.00000  Uiso   1.00
C28    C     0.16665   0.16717   0.33649   0.00000  Uiso   1.00
C29    C     0.16667   0.16704   0.16369   0.00000  Uiso   1.00
C30    C     0.12920   0.13348   0.09443   0.00000  Uiso   1.00
F31    F     0.24159   0.23285   0.11563   0.00000  Uiso   1.00
F32    F     0.08476   0.11041   0.38700   0.00000  Uiso   1.00
F33    F     0.28355   0.26691   0.45129   0.00000  Uiso   1.00
F34    F     0.04205   0.07822   0.05014   0.00000  Uiso   1.00
H35    H     0.10146   0.02328   0.13947   0.00000  Uiso   1.00
H36    H     0.28596   0.09025   0.44647   0.00000  Uiso   1.00
H37    H     0.32873   0.14958   0.44611   0.00000  Uiso   1.00
H38    H     0.30318   0.12037   0.49909   0.00000  Uiso   1.00
H39    H     0.28598   0.30692   0.28460   0.00000  Uiso   1.00
H40    H     0.26570   0.03959   0.29474   0.00000  Uiso   1.00
H41    H     0.32390   0.02427   0.25429   0.00000  Uiso   1.00
H42    H     0.05738   0.05506   0.32150   0.00000  Uiso   1.00
H43    H     0.12221   0.03211   0.34225   0.00000  Uiso   1.00
H44    H     0.05617   0.32852   0.34773   0.00000  Uiso   1.00
H45    H     0.31601   0.13439   0.15308   0.00000  Uiso   1.00
H46    H     0.16845   0.05989   0.13448   0.00000  Uiso   1.00
H47    H     0.27087   0.08669   0.18490   0.00000  Uiso   1.00
H48    H     0.00262   0.06919   0.15710   0.00000  Uiso   1.00
H49    H     0.06119   0.24256   0.31816   0.00000  Uiso   1.00
H50    H     0.01659   0.19148   0.34668   0.00000  Uiso   1.00
H51    H     0.32897   0.25660   0.34759   0.00000  Uiso   1.00
H52    H     0.13510   0.03484   0.08437   0.00000  Uiso   1.00
H53    H     0.18603   0.30179   0.41162   0.00000  Uiso   1.00
H54    H     0.16341   0.27540   0.35794   0.00000  Uiso   1.00
H55    H     0.22770   0.31563   0.36016   0.00000  Uiso   1.00
H56    H     0.29334   0.00842   0.06938   0.00000  Uiso   1.00
H57    H     0.22064   0.31800   0.06785   0.00000  Uiso   1.00
H58    H     0.26247   0.00417   0.01640   0.00000  Uiso   1.00
N59    N     0.31678   0.15265   0.23783   0.00000  Uiso   1.00
N60    N     0.01656   0.18068   0.26217   0.00000  Uiso   1.00
O61    O     0.12975   0.24619   0.25298   0.00000  Uiso   1.00
O62    O     0.23367   0.24204   0.38082   0.00000  Uiso   1.00
O63    O     0.28367   0.26830   0.04190   0.00000  Uiso   1.00
O64    O     0.03572   0.08343   0.46084   0.00000  Uiso   1.00
O65    O     0.24426   0.00440   0.23353   0.00000  Uiso   1.00
O66    O     0.09423   0.32885   0.28275   0.00000  Uiso   1.00
O67    O     0.01129   0.11538   0.21359   0.00000  Uiso   1.00
O68    O     0.32167   0.21634   0.28797   0.00000  Uiso   1.00
O69    O     0.20358   0.08714   0.24701   0.00000  Uiso   1.00
O70    O     0.22613   0.23721   0.24518   0.00000  Uiso   1.00
O71    O     0.10720   0.09613   0.25481   0.00000  Uiso   1.00
O72    O     0.11847   0.17117   0.31997   0.00000  Uiso   1.00
O73    O     0.21486   0.16216   0.18002   0.00000  Uiso   1.00
O74    O     0.21485   0.16219   0.31217   0.00000  Uiso   1.00
O75    O     0.11848   0.17115   0.18782   0.00000  Uiso   1.00
O76    O     0.09629   0.09700   0.11886   0.00000  Uiso   1.00
Zn77   Zn    0.10231   0.17266   0.25521   0.00000  Uiso   1.00
Zn78   Zn    0.23102   0.16067   0.24479   0.00000  Uiso   1.00
C79    C     0.51511   0.26463   0.25084   0.00000  Uiso   1.00
C80    C     0.53469   0.20581   0.40583   0.00000  Uiso   1.00
C81    C     0.50021   0.16745   0.11599   0.00000  Uiso   1.00
C82    C     0.49871   0.16980   0.38458   0.00000  Uiso   1.00
C83    C     0.53827   0.20161   0.09253   0.00000  Uiso   1.00
C84    C     0.45661   0.14033   0.40906   0.00000  Uiso   1.00
C85    C     0.53774   0.20371   0.04605   0.00000  Uiso   1.00
C86    C     0.45424   0.14177   0.45570   0.00000  Uiso   1.00
C87    C     0.49700   0.17168   0.02404   0.00000  Uiso   1.00
C88    C     0.49576   0.17303   0.47744   0.00000  Uiso   1.00
C89    C     0.45797   0.13766   0.04858   0.00000  Uiso   1.00
C90    C     0.48530   0.06876   0.25278   0.00000  Uiso   1.00
C91    C     0.53595   0.20560   0.45251   0.00000  Uiso   1.00
C92    C     0.57626   0.23743   0.02122   0.00000  Uiso   1.00
C93    C     0.41190   0.11217   0.48102   0.00000  Uiso   1.00
C94    C     0.46061   0.05211   0.11898   0.00000  Uiso   1.00
C95    C     0.53402   0.28525   0.37780   0.00000  Uiso   1.00
C96    C     0.59689   0.31838   0.04883   0.00000  Uiso   1.00
C97    C     0.65331   0.11266   0.46355   0.00000  Uiso   1.00
C98    C     0.61429   0.01048   0.26863   0.00000  Uiso   1.00
C99    C     0.41607   0.02105   0.32512   0.00000  Uiso   1.00
C100   C     0.64820   0.10163   0.17581   0.00000  Uiso   1.00
C101   C     0.57622   0.23712   0.47461   0.00000  Uiso   1.00
C102   C     0.35076   0.22646   0.32653   0.00000  Uiso   1.00
C103   C     0.41519   0.10892   0.02695   0.00000  Uiso   1.00
C104   C     0.52411   0.31880   0.25102   0.00000  Uiso   1.00
C105   C     0.47899   0.01534   0.26190   0.00000  Uiso   1.00
C106   C     0.49998   0.16717   0.33649   0.00000  Uiso   1.00
C107   C     0.50000   0.16704   0.16369   0.00000  Uiso   1.00
C108   C     0.46253   0.13348   0.09443   0.00000  Uiso   1.00
F109   F     0.57492   0.23285   0.11563   0.00000  Uiso   1.00
F110   F     0.41809   0.11041   0.38700   0.00000  Uiso   1.00
F111   F     0.61689   0.26691   0.45129   0.00000  Uiso   1.00
F112   F     0.37539   0.07822   0.05014   0.00000  Uiso   1.00
H113   H     0.43479   0.02328   0.13947   0.00000  Uiso   1.00
H114   H     0.61929   0.09025   0.44647   0.00000  Uiso   1.00
H115   H     0.66206   0.14958   0.44611   0.00000  Uiso   1.00
H116   H     0.63651   0.12037   0.49909   0.00000  Uiso   1.00
H117   H     0.61932   0.30692   0.28460   0.00000  Uiso   1.00
H118   H     0.59903   0.03959   0.29474   0.00000  Uiso   1.00
H119   H     0.65724   0.02427   0.25429   0.00000  Uiso   1.00
H120   H     0.39071   0.05506   0.32150   0.00000  Uiso   1.00
H121   H     0.45554   0.03211   0.34225   0.00000  Uiso   1.00
H122   H     0.38950   0.32852   0.34773   0.00000  Uiso   1.00
H123   H     0.64935   0.13439   0.15308   0.00000  Uiso   1.00
H124   H     0.50179   0.05989   0.13448   0.00000  Uiso   1.00
H125   H     0.60421   0.08669   0.18490   0.00000  Uiso   1.00
H126   H     0.33595   0.06919   0.15710   0.00000  Uiso   1.00
H127   H     0.39453   0.24256   0.31816   0.00000  Uiso   1.00
H128   H     0.34993   0.19148   0.34668   0.00000  Uiso   1.00
H129   H     0.66230   0.25660   0.34759   0.00000  Uiso   1.00
H130   H     0.46843   0.03484   0.08437   0.00000  Uiso   1.00
H131   H     0.51936   0.30179   0.41162   0.00000  Uiso   1.00
H132   H     0.49674   0.27540   0.35794   0.00000  Uiso   1.00
H133   H     0.56103   0.31563   0.36016   0.00000  Uiso   1.00
H134   H     0.62667   0.00842   0.06938   0.00000  Uiso   1.00
H135   H     0.55397   0.31800   0.06785   0.00000  Uiso   1.00
H136   H     0.59580   0.00417   0.01640   0.00000  Uiso   1.00
N137   N     0.65011   0.15265   0.23783   0.00000  Uiso   1.00
N138   N     0.34989   0.18068   0.26217   0.00000  Uiso   1.00
O139   O     0.46308   0.24619   0.25298   0.00000  Uiso   1.00
O140   O     0.56701   0.24204   0.38082   0.00000  Uiso   1.00
O141   O     0.61700   0.26830   0.04190   0.00000  Uiso   1.00
O142   O     0.36906   0.08343   0.46084   0.00000  Uiso   1.00
O143   O     0.57759   0.00440   0.23353   0.00000  Uiso   1.00
O144   O     0.42756   0.32885   0.28275   0.00000  Uiso   1.00
O145   O     0.34463   0.11538   0.21359   0.00000  Uiso   1.00
O146   O     0.65500   0.21634   0.28797   0.00000  Uiso   1.00
O147   O     0.53692   0.08714   0.24701   0.00000  Uiso   1.00
O148   O     0.55946   0.23721   0.24518   0.00000  Uiso   1.00
O149   O     0.44054   0.09613   0.25481   0.00000  Uiso   1.00
O150   O     0.45181   0.17117   0.31997   0.00000  Uiso   1.00
O151   O     0.54819   0.16216   0.18002   0.00000  Uiso   1.00
O152   O     0.54819   0.16219   0.31217   0.00000  Uiso   1.00
O153   O     0.45181   0.17115   0.18782   0.00000  Uiso   1.00
O154   O     0.42962   0.09700   0.11886   0.00000  Uiso   1.00
Zn155  Zn    0.43565   0.17266   0.25521   0.00000  Uiso   1.00
Zn156  Zn    0.56435   0.16067   0.24479   0.00000  Uiso   1.00
C157   C     0.84845   0.26463   0.25084   0.00000  Uiso   1.00
C158   C     0.86802   0.20581   0.40583   0.00000  Uiso   1.00
C159   C     0.83354   0.16745   0.11599   0.00000  Uiso   1.00
C160   C     0.83204   0.16980   0.38458   0.00000  Uiso   1.00
C161   C     0.87160   0.20161   0.09253   0.00000  Uiso   1.00
C162   C     0.78995   0.14033   0.40906   0.00000  Uiso   1.00
C163   C     0.87107   0.20371   0.04605   0.00000  Uiso   1.00
C164   C     0.78758   0.14177   0.45570   0.00000  Uiso   1.00
C165   C     0.83034   0.17168   0.02404   0.00000  Uiso   1.00
C166   C     0.82909   0.17303   0.47744   0.00000  Uiso   1.00
C167   C     0.79131   0.13766   0.04858   0.00000  Uiso   1.00
C168   C     0.81863   0.06876   0.25278   0.00000  Uiso   1.00
C169   C     0.86929   0.20560   0.45251   0.00000  Uiso   1.00
C170   C     0.90960   0.23743   0.02122   0.00000  Uiso   1.00
C171   C     0.74523   0.11217   0.48102   0.00000  Uiso   1.00
C172   C     0.79394   0.05211   0.11898   0.00000  Uiso   1.00
C173   C     0.86735   0.28525   0.37780   0.00000  Uiso   1.00
C174   C     0.93023   0.31838   0.04883   0.00000  Uiso   1.00
C175   C     0.98665   0.11266   0.46355   0.00000  Uiso   1.00
C176   C     0.94762   0.01048   0.26863   0.00000  Uiso   1.00
C177   C     0.74941   0.02105   0.32512   0.00000  Uiso   1.00
C178   C     0.98153   0.10163   0.17581   0.00000  Uiso   1.00
C179   C     0.90955   0.23712   0.47461   0.00000  Uiso   1.00
C180   C     0.68409   0.22646   0.32653   0.00000  Uiso   1.00
C181   C     0.74852   0.10892   0.02695   0.00000  Uiso   1.00
C182   C     0.85744   0.31880   0.25102   0.00000  Uiso   1.00
C183   C     0.81232   0.01534   0.26190   0.00000  Uiso   1.00
C184   C     0.83331   0.16717   0.33649   0.00000  Uiso   1.00
C185   C     0.83333   0.16704   0.16369   0.00000  Uiso   1.00
C186   C     0.79586   0.13348   0.09443   0.00000  Uiso   1.00
F187   F     0.90826   0.23285   0.11563   0.00000  Uiso   1.00
F188   F     0.75142   0.11041   0.38700   0.00000  Uiso   1.00
F189   F     0.95022   0.26691   0.45129   0.00000  Uiso   1.00
F190   F     0.70872   0.07822   0.05014   0.00000  Uiso   1.00
H191   H     0.76813   0.02328   0.13947   0.00000  Uiso   1.00
H192   H     0.95262   0.09025   0.44647   0.00000  Uiso   1.00
H193   H     0.99539   0.14958   0.44611   0.00000  Uiso   1.00
H194   H     0.96985   0.12037   0.49909   0.00000  Uiso   1.00
H195   H     0.95265   0.30692   0.28460   0.00000  Uiso   1.00
H196   H     0.93236   0.03959   0.29474   0.00000  Uiso   1.00
H197   H     0.99057   0.02427   0.25429   0.00000  Uiso   1.00
H198   H     0.72404   0.05506   0.32150   0.00000  Uiso   1.00
H199   H     0.78887   0.03211   0.34225   0.00000  Uiso   1.00
H200   H     0.72283   0.32852   0.34773   0.00000  Uiso   1.00
H201   H     0.98268   0.13439   0.15308   0.00000  Uiso   1.00
H202   H     0.83512   0.05989   0.13448   0.00000  Uiso   1.00
H203   H     0.93754   0.08669   0.18490   0.00000  Uiso   1.00
H204   H     0.66928   0.06919   0.15710   0.00000  Uiso   1.00
H205   H     0.72786   0.24256   0.31816   0.00000  Uiso   1.00
H206   H     0.68326   0.19148   0.34668   0.00000  Uiso   1.00
H207   H     0.99563   0.25660   0.34759   0.00000  Uiso   1.00
H208   H     0.80176   0.03484   0.08437   0.00000  Uiso   1.00
H209   H     0.85270   0.30179   0.41162   0.00000  Uiso   1.00
H210   H     0.83008   0.27540   0.35794   0.00000  Uiso   1.00
H211   H     0.89436   0.31563   0.36016   0.00000  Uiso   1.00
H212   H     0.96000   0.00842   0.06938   0.00000  Uiso   1.00
H213   H     0.88730   0.31800   0.06785   0.00000  Uiso   1.00
H214   H     0.92914   0.00417   0.01640   0.00000  Uiso   1.00
N215   N     0.98344   0.15265   0.23783   0.00000  Uiso   1.00
N216   N     0.68322   0.18068   0.26217   0.00000  Uiso   1.00
O217   O     0.79642   0.24619   0.25298   0.00000  Uiso   1.00
O218   O     0.90034   0.24204   0.38082   0.00000  Uiso   1.00
O219   O     0.95034   0.26830   0.04190   0.00000  Uiso   1.00
O220   O     0.70239   0.08343   0.46084   0.00000  Uiso   1.00
O221   O     0.91093   0.00440   0.23353   0.00000  Uiso   1.00
O222   O     0.76090   0.32885   0.28275   0.00000  Uiso   1.00
O223   O     0.67796   0.11538   0.21359   0.00000  Uiso   1.00
O224   O     0.98833   0.21634   0.28797   0.00000  Uiso   1.00
O225   O     0.87025   0.08714   0.24701   0.00000  Uiso   1.00
O226   O     0.89280   0.23721   0.24518   0.00000  Uiso   1.00
O227   O     0.77387   0.09613   0.25481   0.00000  Uiso   1.00
O228   O     0.78514   0.17117   0.31997   0.00000  Uiso   1.00
O229   O     0.88153   0.16216   0.18002   0.00000  Uiso   1.00
O230   O     0.88152   0.16219   0.31217   0.00000  Uiso   1.00
O231   O     0.78515   0.17115   0.18782   0.00000  Uiso   1.00
O232   O     0.76296   0.09700   0.11886   0.00000  Uiso   1.00
Zn233  Zn    0.76898   0.17266   0.25521   0.00000  Uiso   1.00
Zn234  Zn    0.89769   0.16067   0.24479   0.00000  Uiso   1.00
C235   C     0.18178   0.59797   0.25084   0.00000  Uiso   1.00
C236   C     0.20135   0.53914   0.40583   0.00000  Uiso   1.00
C237   C     0.16687   0.50078   0.11599   0.00000  Uiso   1.00
C238   C     0.16537   0.50314   0.38458   0.00000  Uiso   1.00
C239   C     0.20494   0.53494   0.09253   0.00000  Uiso   1.00
C240   C     0.12328   0.47366   0.40906   0.00000  Uiso   1.00
C241   C     0.20441   0.53704   0.04605   0.00000  Uiso   1.00
C242   C     0.12091   0.47510   0.45570   0.00000  Uiso   1.00
C243   C     0.16367   0.50501   0.02404   0.00000  Uiso   1.00
C244   C     0.16243   0.50636   0.47744   0.00000  Uiso   1.00
C245   C     0.12464   0.47099   0.04858   0.00000  Uiso   1.00
C246   C     0.15197   0.40209   0.25278   0.00000  Uiso   1.00
C247   C     0.20262   0.53893   0.45251   0.00000  Uiso   1.00
C248   C     0.24293   0.57076   0.02122   0.00000  Uiso   1.00
C249   C     0.07856   0.44551   0.48102   0.00000  Uiso   1.00
C250   C     0.12728   0.38545   0.11898   0.00000  Uiso   1.00
C251   C     0.20069   0.61858   0.37780   0.00000  Uiso   1.00
C252   C     0.26356   0.65172   0.04883   0.00000  Uiso   1.00
C253   C     0.31998   0.44600   0.46355   0.00000  Uiso   1.00
C254   C     0.28096   0.34381   0.26863   0.00000  Uiso   1.00
C255   C     0.08274   0.35438   0.32512   0.00000  Uiso   1.00
C256   C     0.31486   0.43496   0.17581   0.00000  Uiso   1.00
C257   C     0.24289   0.57045   0.47461   0.00000  Uiso   1.00
C258   C     0.01742   0.55979   0.32653   0.00000  Uiso   1.00
C259   C     0.08186   0.44226   0.02695   0.00000  Uiso   1.00
C260   C     0.19078   0.65213   0.25102   0.00000  Uiso   1.00
C261   C     0.14565   0.34867   0.26190   0.00000  Uiso   1.00
C262   C     0.16665   0.50050   0.33649   0.00000  Uiso   1.00
C263   C     0.16667   0.50037   0.16369   0.00000  Uiso   1.00
C264   C     0.12920   0.46682   0.09443   0.00000  Uiso   1.00
F265   F     0.24159   0.56618   0.11563   0.00000  Uiso   1.00
F266   F     0.08476   0.44374   0.38700   0.00000  Uiso   1.00
F267   F     0.28355   0.60024   0.45129   0.00000  Uiso   1.00
F268   F     0.04205   0.41156   0.05014   0.00000  Uiso   1.00
H269   H     0.10146   0.35661   0.13947   0.00000  Uiso   1.00
H270   H     0.28596   0.42358   0.44647   0.00000  Uiso   1.00
H271   H     0.32873   0.48291   0.44611   0.00000  Uiso   1.00
H272   H     0.30318   0.45370   0.49909   0.00000  Uiso   1.00
H273   H     0.28598   0.64025   0.28460   0.00000  Uiso   1.00
H274   H     0.26570   0.37292   0.29474   0.00000  Uiso   1.00
H275   H     0.32390   0.35760   0.25429   0.00000  Uiso   1.00
H276   H     0.05738   0.38839   0.32150   0.00000  Uiso   1.00
H277   H     0.12221   0.36545   0.34225   0.00000  Uiso   1.00
H278   H     0.05617   0.66186   0.34773   0.00000  Uiso   1.00
H279   H     0.31601   0.46773   0.15308   0.00000  Uiso   1.00
H280   H     0.16845   0.39322   0.13448   0.00000  Uiso   1.00
H281   H     0.27087   0.42002   0.18490   0.00000  Uiso   1.00
H282   H     0.00262   0.40252   0.15710   0.00000  Uiso   1.00
H283   H     0.06119   0.57589   0.31816   0.00000  Uiso   1.00
H284   H     0.01659   0.52481   0.34668   0.00000  Uiso   1.00
H285   H     0.32897   0.58993   0.34759   0.00000  Uiso   1.00
H286   H     0.13510   0.36817   0.08437   0.00000  Uiso   1.00
H287   H     0.18603   0.63513   0.41162   0.00000  Uiso   1.00
H288   H     0.16341   0.60874   0.35794   0.00000  Uiso   1.00
H289   H     0.22770   0.64896   0.36016   0.00000  Uiso   1.00
H290   H     0.29334   0.34175   0.06938   0.00000  Uiso   1.00
H291   H     0.22064   0.65134   0.06785   0.00000  Uiso   1.00
H292   H     0.26247   0.33750   0.01640   0.00000  Uiso   1.00
N293   N     0.31678   0.48598   0.23783   0.00000  Uiso   1.00
N294   N     0.01656   0.51402   0.26217   0.00000  Uiso   1.00
O295   O     0.12975   0.57952   0.25298   0.00000  Uiso   1.00
O296   O     0.23367   0.57537   0.38082   0.00000  Uiso   1.00
O297   O     0.28367   0.60163   0.04190   0.00000  Uiso   1.00
O298   O     0.03572   0.41676   0.46084   0.00000  Uiso   1.00
O299   O     0.24426   0.33773   0.23353   0.00000  Uiso   1.00
O300   O     0.09423   0.66218   0.28275   0.00000  Uiso   1.00
O301   O     0.01129   0.44871   0.21359   0.00000  Uiso   1.00
O302   O     0.32167   0.54968   0.28797   0.00000  Uiso   1.00
O303   O     0.20358   0.42048   0.24701   0.00000  Uiso   1.00
O304   O     0.22613   0.57054   0.24518   0.00000  Uiso   1.00
O305   O     0.10720   0.42946   0.25481   0.00000  Uiso   1.00
O306   O     0.11847   0.50450   0.31997   0.00000  Uiso   1.00
O307   O     0.21486   0.49550   0.18002   0.00000  Uiso   1.00
O308   O     0.21485   0.49552   0.31217   0.00000  Uiso   1.00
O309   O     0.11848   0.50448   0.18782   0.00000  Uiso   1.00
O310   O     0.09629   0.43034   0.11886   0.00000  Uiso   1.00
Zn311  Zn    0.10231   0.50600   0.25521   0.00000  Uiso   1.00
Zn312  Zn    0.23102   0.49400   0.24479   0.00000  Uiso   1.00
C313   C     0.51511   0.59797   0.25084   0.00000  Uiso   1.00
C314   C     0.53469   0.53914   0.40583   0.00000  Uiso   1.00
C315   C     0.50021   0.50078   0.11599   0.00000  Uiso   1.00
C316   C     0.49871   0.50314   0.38458   0.00000  Uiso   1.00
C317   C     0.53827   0.53494   0.09253   0.00000  Uiso   1.00
C318   C     0.45661   0.47366   0.40906   0.00000  Uiso   1.00
C319   C     0.53774   0.53704   0.04605   0.00000  Uiso   1.00
C320   C     0.45424   0.47510   0.45570   0.00000  Uiso   1.00
C321   C     0.49700   0.50501   0.02404   0.00000  Uiso   1.00
C322   C     0.49576   0.50636   0.47744   0.00000  Uiso   1.00
C323   C     0.45797   0.47099   0.04858   0.00000  Uiso   1.00
C324   C     0.48530   0.40209   0.25278   0.00000  Uiso   1.00
C325   C     0.53595   0.53893   0.45251   0.00000  Uiso   1.00
C326   C     0.57626   0.57076   0.02122   0.00000  Uiso   1.00
C327   C     0.41190   0.44551   0.48102   0.00000  Uiso   1.00
C328   C     0.46061   0.38545   0.11898   0.00000  Uiso   1.00
C329   C     0.53402   0.61858   0.37780   0.00000  Uiso   1.00
C330   C     0.59689   0.65172   0.04883   0.00000  Uiso   1.00
C331   C     0.65331   0.44600   0.46355   0.00000  Uiso   1.00
C332   C     0.61429   0.34381   0.26863   0.00000  Uiso   1.00
C333   C     0.41607   0.35438   0.32512   0.00000  Uiso   1.00
C334   C     0.64820   0.43496   0.17581   0.00000  Uiso   1.00
C335   C     0.57622   0.57045   0.47461   0.00000  Uiso   1.00
C336   C     0.35076   0.55979   0.32653   0.00000  Uiso   1.00
C337   C     0.41519   0.44226   0.02695   0.00000  Uiso   1.00
C338   C     0.52411   0.65213   0.25102   0.00000  Uiso   1.00
C339   C     0.47899   0.34867   0.26190   0.00000  Uiso   1.00
C340   C     0.49998   0.50050   0.33649   0.00000  Uiso   1.00
C341   C     0.50000   0.50037   0.16369   0.00000  Uiso   1.00
C342   C     0.46253   0.46682   0.09443   0.00000  Uiso   1.00
F343   F     0.57492   0.56618   0.11563   0.00000  Uiso   1.00
F344   F     0.41809   0.44374   0.38700   0.00000  Uiso   1.00
F345   F     0.61689   0.60024   0.45129   0.00000  Uiso   1.00
F346   F     0.37539   0.41156   0.05014   0.00000  Uiso   1.00
H347   H     0.43479   0.35661   0.13947   0.00000  Uiso   1.00
H348   H     0.61929   0.42358   0.44647   0.00000  Uiso   1.00
H349   H     0.66206   0.48291   0.44611   0.00000  Uiso   1.00
H350   H     0.63651   0.45370   0.49909   0.00000  Uiso   1.00
H351   H     0.61932   0.64025   0.28460   0.00000  Uiso   1.00
H352   H     0.59903   0.37292   0.29474   0.00000  Uiso   1.00
H353   H     0.65724   0.35760   0.25429   0.00000  Uiso   1.00
H354   H     0.39071   0.38839   0.32150   0.00000  Uiso   1.00
H355   H     0.45554   0.36545   0.34225   0.00000  Uiso   1.00
H356   H     0.38950   0.66186   0.34773   0.00000  Uiso   1.00
H357   H     0.64935   0.46773   0.15308   0.00000  Uiso   1.00
H358   H     0.50179   0.39322   0.13448   0.00000  Uiso   1.00
H359   H     0.60421   0.42002   0.18490   0.00000  Uiso   1.00
H360   H     0.33595   0.40252   0.15710   0.00000  Uiso   1.00
H361   H     0.39453   0.57589   0.31816   0.00000  Uiso   1.00
H362   H     0.34993   0.52481   0.34668   0.00000  Uiso   1.00
H363   H     0.66230   0.58993   0.34759   0.00000  Uiso   1.00
H364   H     0.46843   0.36817   0.08437   0.00000  Uiso   1.00
H365   H     0.51936   0.63513   0.41162   0.00000  Uiso   1.00
H366   H     0.49674   0.60874   0.35794   0.00000  Uiso   1.00
H367   H     0.56103   0.64896   0.36016   0.00000  Uiso   1.00
H368   H     0.62667   0.34175   0.06938   0.00000  Uiso   1.00
H369   H     0.55397   0.65134   0.06785   0.00000  Uiso   1.00
H370   H     0.59580   0.33750   0.01640   0.00000  Uiso   1.00
N371   N     0.65011   0.48598   0.23783   0.00000  Uiso   1.00
N372   N     0.34989   0.51402   0.26217   0.00000  Uiso   1.00
O373   O     0.46308   0.57952   0.25298   0.00000  Uiso   1.00
O374   O     0.56701   0.57537   0.38082   0.00000  Uiso   1.00
O375   O     0.61700   0.60163   0.04190   0.00000  Uiso   1.00
O376   O     0.36906   0.41676   0.46084   0.00000  Uiso   1.00
O377   O     0.57759   0.33773   0.23353   0.00000  Uiso   1.00
O378   O     0.42756   0.66218   0.28275   0.00000  Uiso   1.00
O379   O     0.34463   0.44871   0.21359   0.00000  Uiso   1.00
O380   O     0.65500   0.54968   0.28797   0.00000  Uiso   1.00
O381   O     0.53692   0.42048   0.24701   0.00000  Uiso   1.00
O382   O     0.55946   0.57054   0.24518   0.00000  Uiso   1.00
O383   O     0.44054   0.42946   0.25481   0.00000  Uiso   1.00
O384   O     0.45181   0.50450   0.31997   0.00000  Uiso   1.00
O385   O     0.54819   0.49550   0.18002   0.00000  Uiso   1.00
O386   O     0.54819   0.49552   0.31217   0.00000  Uiso   1.00
O387   O     0.45181   0.50448   0.18782   0.00000  Uiso   1.00
O388   O     0.42962   0.43034   0.11886   0.00000  Uiso   1.00
Zn389  Zn    0.43565   0.50600   0.25521   0.00000  Uiso   1.00
Zn390  Zn    0.56435   0.49400   0.24479   0.00000  Uiso   1.00
C391   C     0.84845   0.59797   0.25084   0.00000  Uiso   1.00
C392   C     0.86802   0.53914   0.40583   0.00000  Uiso   1.00
C393   C     0.83354   0.50078   0.11599   0.00000  Uiso   1.00
C394   C     0.83204   0.50314   0.38458   0.00000  Uiso   1.00
C395   C     0.87160   0.53494   0.09253   0.00000  Uiso   1.00
C396   C     0.78995   0.47366   0.40906   0.00000  Uiso   1.00
C397   C     0.87107   0.53704   0.04605   0.00000  Uiso   1.00
C398   C     0.78758   0.47510   0.45570   0.00000  Uiso   1.00
C399   C     0.83034   0.50501   0.02404   0.00000  Uiso   1.00
C400   C     0.82909   0.50636   0.47744   0.00000  Uiso   1.00
C401   C     0.79131   0.47099   0.04858   0.00000  Uiso   1.00
C402   C     0.81863   0.40209   0.25278   0.00000  Uiso   1.00
C403   C     0.86929   0.53893   0.45251   0.00000  Uiso   1.00
C404   C     0.90960   0.57076   0.02122   0.00000  Uiso   1.00
C405   C     0.74523   0.44551   0.48102   0.00000  Uiso   1.00
C406   C     0.79394   0.38545   0.11898   0.00000  Uiso   1.00
C407   C     0.86735   0.61858   0.37780   0.00000  Uiso   1.00
C408   C     0.93023   0.65172   0.04883   0.00000  Uiso   1.00
C409   C     0.98665   0.44600   0.46355   0.00000  Uiso   1.00
C410   C     0.94762   0.34381   0.26863   0.00000  Uiso   1.00
C411   C     0.74941   0.35438   0.32512   0.00000  Uiso   1.00
C412   C     0.98153   0.43496   0.17581   0.00000  Uiso   1.00
C413   C     0.90955   0.57045   0.47461   0.00000  Uiso   1.00
C414   C     0.68409   0.55979   0.32653   0.00000  Uiso   1.00
C415   C     0.74852   0.44226   0.02695   0.00000  Uiso   1.00
C416   C     0.85744   0.65213   0.25102   0.00000  Uiso   1.00
C417   C     0.81232   0.34867   0.26190   0.00000  Uiso   1.00
C418   C     0.83331   0.50050   0.33649   0.00000  Uiso   1.00
C419   C     0.83333   0.50037   0.16369   0.00000  Uiso   1.00
C420   C     0.79586   0.46682   0.09443   0.00000  Uiso   1.00
F421   F     0.90826   0.56618   0.11563   0.00000  Uiso   1.00
F422   F     0.75142   0.44374   0.38700   0.00000  Uiso   1.00
F423   F     0.95022   0.60024   0.45129   0.00000  Uiso   1.00
F424   F     0.70872   0.41156   0.05014   0.00000  Uiso   1.00
H425   H     0.76813   0.35661   0.13947   0.00000  Uiso   1.00
H426   H     0.95262   0.42358   0.44647   0.00000  Uiso   1.00
H427   H     0.99539   0.48291   0.44611   0.00000  Uiso   1.00
H428   H     0.96985   0.45370   0.49909   0.00000  Uiso   1.00
H429   H     0.95265   0.64025   0.28460   0.00000  Uiso   1.00
H430   H     0.93236   0.37292   0.29474   0.00000  Uiso   1.00
H431   H     0.99057   0.35760   0.25429   0.00000  Uiso   1.00
H432   H     0.72404   0.38839   0.32150   0.00000  Uiso   1.00
H433   H     0.78887   0.36545   0.34225   0.00000  Uiso   1.00
H434   H     0.72283   0.66186   0.34773   0.00000  Uiso   1.00
H435   H     0.98268   0.46773   0.15308   0.00000  Uiso   1.00
H436   H     0.83512   0.39322   0.13448   0.00000  Uiso   1.00
H437   H     0.93754   0.42002   0.18490   0.00000  Uiso   1.00
H438   H     0.66928   0.40252   0.15710   0.00000  Uiso   1.00
H439   H     0.72786   0.57589   0.31816   0.00000  Uiso   1.00
H440   H     0.68326   0.52481   0.34668   0.00000  Uiso   1.00
H441   H     0.99563   0.58993   0.34759   0.00000  Uiso   1.00
H442   H     0.80176   0.36817   0.08437   0.00000  Uiso   1.00
H443   H     0.85270   0.63513   0.41162   0.00000  Uiso   1.00
H444   H     0.83008   0.60874   0.35794   0.00000  Uiso   1.00
H445   H     0.89436   0.64896   0.36016   0.00000  Uiso   1.00
H446   H     0.96000   0.34175   0.06938   0.00000  Uiso   1.00
H447   H     0.88730   0.65134   0.06785   0.00000  Uiso   1.00
H448   H     0.92914   0.33750   0.01640   0.00000  Uiso   1.00
N449   N     0.98344   0.48598   0.23783   0.00000  Uiso   1.00
N450   N     0.68322   0.51402   0.26217   0.00000  Uiso   1.00
O451   O     0.79642   0.57952   0.25298   0.00000  Uiso   1.00
O452   O     0.90034   0.57537   0.38082   0.00000  Uiso   1.00
O453   O     0.95034   0.60163   0.04190   0.00000  Uiso   1.00
O454   O     0.70239   0.41676   0.46084   0.00000  Uiso   1.00
O455   O     0.91093   0.33773   0.23353   0.00000  Uiso   1.00
O456   O     0.76090   0.66218   0.28275   0.00000  Uiso   1.00
O457   O     0.67796   0.44871   0.21359   0.00000  Uiso   1.00
O458   O     0.98833   0.54968   0.28797   0.00000  Uiso   1.00
O459   O     0.87025   0.42048   0.24701   0.00000  Uiso   1.00
O460   O     0.89280   0.57054   0.24518   0.00000  Uiso   1.00
O461   O     0.77387   0.42946   0.25481   0.00000  Uiso   1.00
O462   O     0.78514   0.50450   0.31997   0.00000  Uiso   1.00
O463   O     0.88153   0.49550   0.18002   0.00000  Uiso   1.00
O464   O     0.88152   0.49552   0.31217   0.00000  Uiso   1.00
O465   O     0.78515   0.50448   0.18782   0.00000  Uiso   1.00
O466   O     0.76296   0.43034   0.11886   0.00000  Uiso   1.00
Zn467  Zn    0.76898   0.50600   0.25521   0.00000  Uiso   1.00
Zn468  Zn    0.89769   0.49400   0.24479   0.00000  Uiso   1.00
C469   C     0.18178   0.93130   0.25084   0.00000  Uiso   1.00
C470   C     0.20135   0.87247   0.40583   0.00000  Uiso   1.00
C471   C     0.16687   0.83412   0.11599   0.00000  Uiso   1.00
C472   C     0.16537   0.83647   0.38458   0.00000  Uiso   1.00
C473   C     0.20494   0.86827   0.09253   0.00000  Uiso   1.00
C474   C     0.12328   0.80699   0.40906   0.00000  Uiso   1.00
C475   C     0.20441   0.87038   0.04605   0.00000  Uiso   1.00
C476   C     0.12091   0.80844   0.45570   0.00000  Uiso   1.00
C477   C     0.16367   0.83835   0.02404   0.00000  Uiso   1.00
C478   C     0.16243   0.83970   0.47744   0.00000  Uiso   1.00
C479   C     0.12464   0.80432   0.04858   0.00000  Uiso   1.00
C480   C     0.15197   0.73542   0.25278   0.00000  Uiso   1.00
C481   C     0.20262   0.87227   0.45251   0.00000  Uiso   1.00
C482   C     0.24293   0.90409   0.02122   0.00000  Uiso   1.00
C483   C     0.07856   0.77884   0.48102   0.00000  Uiso   1.00
C484   C     0.12728   0.71878   0.11898   0.00000  Uiso   1.00
C485   C     0.20069   0.95192   0.37780   0.00000  Uiso   1.00
C486   C     0.26356   0.98505   0.04883   0.00000  Uiso   1.00
C487   C     0.31998   0.77933   0.46355   0.00000  Uiso   1.00
C488   C     0.28096   0.67714   0.26863   0.00000  Uiso   1.00
C489   C     0.08274   0.68772   0.32512   0.00000  Uiso   1.00
C490   C     0.31486   0.76829   0.17581   0.00000  Uiso   1.00
C491   C     0.24289   0.90378   0.47461   0.00000  Uiso   1.00
C492   C     0.01742   0.89313   0.32653   0.00000  Uiso   1.00
C493   C     0.08186   0.77559   0.02695   0.00000  Uiso   1.00
C494   C     0.19078   0.98546   0.25102   0.00000  Uiso   1.00
C495   C     0.14565   0.68200   0.26190   0.00000  Uiso   1.00
C496   C     0.16665   0.83384   0.33649   0.00000  Uiso   1.00
C497   C     0.16667   0.83370   0.16369   0.00000  Uiso   1.00
C498   C     0.12920   0.80015   0.09443   0.00000  Uiso   1.00
F499   F     0.24159   0.89952   0.11563   0.00000  Uiso   1.00
F500   F     0.08476   0.77707   0.38700   0.00000  Uiso   1.00
F501   F     0.28355   0.93358   0.45129   0.00000  Uiso   1.00
F502   F     0.04205   0.74489   0.05014   0.00000  Uiso   1.00
H503   H     0.10146   0.68994   0.13947   0.00000  Uiso   1.00
H504   H     0.28596   0.75691   0.44647   0.00000  Uiso   1.00
H505   H     0.32873   0.81624   0.44611   0.00000  Uiso   1.00
H506   H     0.30318   0.78704   0.49909   0.00000  Uiso   1.00
H507   H     0.28598   0.97359   0.28460   0.00000  Uiso   1.00
H508   H     0.26570   0.70625   0.29474   0.00000  Uiso   1.00
H509   H     0.32390   0.69094   0.25429   0.00000  Uiso   1.00
H510   H     0.05738   0.72173   0.32150   0.00000  Uiso   1.00
H511   H     0.12221   0.69878   0.34225   0.00000  Uiso   1.00
H512   H     0.05617   0.99519   0.34773   0.00000  Uiso   1.00
H513   H     0.31601   0.80106   0.15308   0.00000  Uiso   1.00
H514   H     0.16845   0.72655   0.13448   0.00000  Uiso   1.00
H515   H     0.27087   0.75335   0.18490   0.00000  Uiso   1.00
H516   H     0.00262   0.73586   0.15710   0.00000  Uiso   1.00
H517   H     0.06119   0.90923   0.31816   0.00000  Uiso   1.00
H518   H     0.01659   0.85815   0.34668   0.00000  Uiso   1.00
H519   H     0.32897   0.92326   0.34759   0.00000  Uiso   1.00
H520   H     0.13510   0.70151   0.08437   0.00000  Uiso   1.00
H521   H     0.18603   0.96846   0.41162   0.00000  Uiso   1.00
H522   H     0.16341   0.94207   0.35794   0.00000  Uiso   1.00
H523   H     0.22770   0.98230   0.36016   0.00000  Uiso   1.00
H524   H     0.29334   0.67508   0.06938   0.00000  Uiso   1.00
H525   H     0.22064   0.98467   0.06785   0.00000  Uiso   1.00
H526   H     0.26247   0.67084   0.01640   0.00000  Uiso   1.00
N527   N     0.31678   0.81932   0.23783   0.00000  Uiso   1.00
N528   N     0.01656   0.84735   0.26217   0.00000  Uiso   1.00
O529   O     0.12975   0.91286   0.25298   0.00000  Uiso   1.00
O530   O     0.23367   0.90870   0.38082   0.00000  Uiso   1.00
O531   O     0.28367   0.93496   0.04190   0.00000  Uiso   1.00
O532   O     0.03572   0.75010   0.46084   0.00000  Uiso   1.00
O533   O     0.24426   0.67107   0.23353   0.00000  Uiso   1.00
O534   O     0.09423   0.99552   0.28275   0.00000  Uiso   1.00
O535   O     0.01129   0.78205   0.21359   0.00000  Uiso   1.00
O536   O     0.32167   0.88301   0.28797   0.00000  Uiso   1.00
O537   O     0.20358   0.75381   0.24701   0.00000  Uiso   1.00
O538   O     0.22613   0.90387   0.24518   0.00000  Uiso   1.00
O539   O     0.10720   0.76279   0.25481   0.00000  Uiso   1.00
O540   O     0.11847   0.83784   0.31997   0.00000  Uiso   1.00
O541   O     0.21486   0.82883   0.18002   0.00000  Uiso   1.00
O542   O     0.21485   0.82885   0.31217   0.00000  Uiso   1.00
O543   O     0.11848   0.83781   0.18782   0.00000  Uiso   1.00
O544   O     0.09629   0.76367   0.11886   0.00000  Uiso   1.00
Zn545  Zn    0.10231   0.83933   0.25521   0.00000  Uiso   1.00
Zn546  Zn    0.23102   0.82734   0.24479   0.00000  Uiso   1.00
C547   C     0.51511   0.93130   0.25084   0.00000  Uiso   1.00
C548   C     0.53469   0.87247   0.40583   0.00000  Uiso   1.00
C549   C     0.50021   0.83412   0.11599   0.00000  Uiso   1.00
C550   C     0.49871   0.83647   0.38458   0.00000  Uiso   1.00
C551   C     0.53827   0.86827   0.09253   0.00000  Uiso   1.00
C552   C     0.45661   0.80699   0.40906   0.00000  Uiso   1.00
C553   C     0.53774   0.87038   0.04605   0.00000  Uiso   1.00
C554   C     0.45424   0.80844   0.45570   0.00000  Uiso   1.00
C555   C     0.49700   0.83835   0.02404   0.00000  Uiso   1.00
C556   C     0.49576   0.83970   0.47744   0.00000  Uiso   1.00
C557   C     0.45797   0.80432   0.04858   0.00000  Uiso   1.00
C558   C     0.48530   0.73542   0.25278   0.00000  Uiso   1.00
C559   C     0.53595   0.87227   0.45251   0.00000  Uiso   1.00
C560   C     0.57626   0.90409   0.02122   0.00000  Uiso   1.00
C561   C     0.41190   0.77884   0.48102   0.00000  Uiso   1.00
C562   C     0.46061   0.71878   0.11898   0.00000  Uiso   1.00
C563   C     0.53402   0.95192   0.37780   0.00000  Uiso   1.00
C564   C     0.59689   0.98505   0.04883   0.00000  Uiso   1.00
C565   C     0.65331   0.77933   0.46355   0.00000  Uiso   1.00
C566   C     0.61429   0.67714   0.26863   0.00000  Uiso   1.00
C567   C     0.41607   0.68772   0.32512   0.00000  Uiso   1.00
C568   C     0.64820   0.76829   0.17581   0.00000  Uiso   1.00
C569   C     0.57622   0.90378   0.47461   0.00000  Uiso   1.00
C570   C     0.35076   0.89313   0.32653   0.00000  Uiso   1.00
C571   C     0.41519   0.77559   0.02695   0.00000  Uiso   1.00
C572   C     0.52411   0.98546   0.25102   0.00000  Uiso   1.00
C573   C     0.47899   0.68200   0.26190   0.00000  Uiso   1.00
C574   C     0.49998   0.83384   0.33649   0.00000  Uiso   1.00
C575   C     0.50000   0.83370   0.16369   0.00000  Uiso   1.00
C576   C     0.46253   0.80015   0.09443   0.00000  Uiso   1.00
F577   F     0.57492   0.89952   0.11563   0.00000  Uiso   1.00
F578   F     0.41809   0.77707   0.38700   0.00000  Uiso   1.00
F579   F     0.61689   0.93358   0.45129   0.00000  Uiso   1.00
F580   F     0.37539   0.74489   0.05014   0.00000  Uiso   1.00
H581   H     0.43479   0.68994   0.13947   0.00000  Uiso   1.00
H582   H     0.61929   0.75691   0.44647   0.00000  Uiso   1.00
H583   H     0.66206   0.81624   0.44611   0.00000  Uiso   1.00
H584   H     0.63651   0.78704   0.49909   0.00000  Uiso   1.00
H585   H     0.61932   0.97359   0.28460   0.00000  Uiso   1.00
H586   H     0.59903   0.70625   0.29474   0.00000  Uiso   1.00
H587   H     0.65724   0.69094   0.25429   0.00000  Uiso   1.00
H588   H     0.39071   0.72173   0.32150   0.00000  Uiso   1.00
H589   H     0.45554   0.69878   0.34225   0.00000  Uiso   1.00
H590   H     0.38950   0.99519   0.34773   0.00000  Uiso   1.00
H591   H     0.64935   0.80106   0.15308   0.00000  Uiso   1.00
H592   H     0.50179   0.72655   0.13448   0.00000  Uiso   1.00
H593   H     0.60421   0.75335   0.18490   0.00000  Uiso   1.00
H594   H     0.33595   0.73586   0.15710   0.00000  Uiso   1.00
H595   H     0.39453   0.90923   0.31816   0.00000  Uiso   1.00
H596   H     0.34993   0.85815   0.34668   0.00000  Uiso   1.00
H597   H     0.66230   0.92326   0.34759   0.00000  Uiso   1.00
H598   H     0.46843   0.70151   0.08437   0.00000  Uiso   1.00
H599   H     0.51936   0.96846   0.41162   0.00000  Uiso   1.00
H600   H     0.49674   0.94207   0.35794   0.00000  Uiso   1.00
H601   H     0.56103   0.98230   0.36016   0.00000  Uiso   1.00
H602   H     0.62667   0.67508   0.06938   0.00000  Uiso   1.00
H603   H     0.55397   0.98467   0.06785   0.00000  Uiso   1.00
H604   H     0.59580   0.67084   0.01640   0.00000  Uiso   1.00
N605   N     0.65011   0.81932   0.23783   0.00000  Uiso   1.00
N606   N     0.34989   0.84735   0.26217   0.00000  Uiso   1.00
O607   O     0.46308   0.91286   0.25298   0.00000  Uiso   1.00
O608   O     0.56701   0.90870   0.38082   0.00000  Uiso   1.00
O609   O     0.61700   0.93496   0.04190   0.00000  Uiso   1.00
O610   O     0.36906   0.75010   0.46084   0.00000  Uiso   1.00
O611   O     0.57759   0.67107   0.23353   0.00000  Uiso   1.00
O612   O     0.42756   0.99552   0.28275   0.00000  Uiso   1.00
O613   O     0.34463   0.78205   0.21359   0.00000  Uiso   1.00
O614   O     0.65500   0.88301   0.28797   0.00000  Uiso   1.00
O615   O     0.53692   0.75381   0.24701   0.00000  Uiso   1.00
O616   O     0.55946   0.90387   0.24518   0.00000  Uiso   1.00
O617   O     0.44054   0.76279   0.25481   0.00000  Uiso   1.00
O618   O     0.45181   0.83784   0.31997   0.00000  Uiso   1.00
O619   O     0.54819   0.82883   0.18002   0.00000  Uiso   1.00
O620   O     0.54819   0.82885   0.31217   0.00000  Uiso   1.00
O621   O     0.45181   0.83781   0.18782   0.00000  Uiso   1.00
O622   O     0.42962   0.76367   0.11886   0.00000  Uiso   1.00
Zn623  Zn    0.43565   0.83933   0.25521   0.00000  Uiso   1.00
Zn624  Zn    0.56435   0.82734   0.24479   0.00000  Uiso   1.00
C625   C     0.84845   0.93130   0.25084   0.00000  Uiso   1.00
C626   C     0.86802   0.87247   0.40583   0.00000  Uiso   1.00
C627   C     0.83354   0.83412   0.11599   0.00000  Uiso   1.00
C628   C     0.83204   0.83647   0.38458   0.00000  Uiso   1.00
C629   C     0.87160   0.86827   0.09253   0.00000  Uiso   1.00
C630   C     0.78995   0.80699   0.40906   0.00000  Uiso   1.00
C631   C     0.87107   0.87038   0.04605   0.00000  Uiso   1.00
C632   C     0.78758   0.80844   0.45570   0.00000  Uiso   1.00
C633   C     0.83034   0.83835   0.02404   0.00000  Uiso   1.00
C634   C     0.82909   0.83970   0.47744   0.00000  Uiso   1.00
C635   C     0.79131   0.80432   0.04858   0.00000  Uiso   1.00
C636   C     0.81863   0.73542   0.25278   0.00000  Uiso   1.00
C637   C     0.86929   0.87227   0.45251   0.00000  Uiso   1.00
C638   C     0.90960   0.90409   0.02122   0.00000  Uiso   1.00
C639   C     0.74523   0.77884   0.48102   0.00000  Uiso   1.00
C640   C     0.79394   0.71878   0.11898   0.00000  Uiso   1.00
C641   C     0.86735   0.95192   0.37780   0.00000  Uiso   1.00
C642   C     0.93023   0.98505   0.04883   0.00000  Uiso   1.00
C643   C     0.98665   0.77933   0.46355   0.00000  Uiso   1.00
C644   C     0.94762   0.67714   0.26863   0.00000  Uiso   1.00
C645   C     0.74941   0.68772   0.32512   0.00000  Uiso   1.00
C646   C     0.98153   0.76829   0.17581   0.00000  Uiso   1.00
C647   C     0.90955   0.90378   0.47461   0.00000  Uiso   1.00
C648   C     0.68409   0.89313   0.32653   0.00000  Uiso   1.00
C649   C     0.74852   0.77559   0.02695   0.00000  Uiso   1.00
C650   C     0.85744   0.98546   0.25102   0.00000  Uiso   1.00
C651   C     0.81232   0.68200   0.26190   0.00000  Uiso   1.00
C652   C     0.83331   0.83384   0.33649   0.00000  Uiso   1.00
C653   C     0.83333   0.83370   0.16369   0.00000  Uiso   1.00
C654   C     0.79586   0.80015   0.09443   0.00000  Uiso   1.00
F655   F     0.90826   0.89952   0.11563   0.00000  Uiso   1.00
F656   F     0.75142   0.77707   0.38700   0.00000  Uiso   1.00
F657   F     0.95022   0.93358   0.45129   0.00000  Uiso   1.00
F658   F     0.70872   0.74489   0.05014   0.00000  Uiso   1.00
H659   H     0.76813   0.68994   0.13947   0.00000  Uiso   1.00
H660   H     0.95262   0.75691   0.44647   0.00000  Uiso   1.00
H661   H     0.99539   0.81624   0.44611   0.00000  Uiso   1.00
H662   H     0.96985   0.78704   0.49909   0.00000  Uiso   1.00
H663   H     0.95265   0.97359   0.28460   0.00000  Uiso   1.00
H664   H     0.93236   0.70625   0.29474   0.00000  Uiso   1.00
H665   H     0.99057   0.69094   0.25429   0.00000  Uiso   1.00
H666   H     0.72404   0.72173   0.32150   0.00000  Uiso   1.00
H667   H     0.78887   0.69878   0.34225   0.00000  Uiso   1.00
H668   H     0.72283   0.99519   0.34773   0.00000  Uiso   1.00
H669   H     0.98268   0.80106   0.15308   0.00000  Uiso   1.00
H670   H     0.83512   0.72655   0.13448   0.00000  Uiso   1.00
H671   H     0.93754   0.75335   0.18490   0.00000  Uiso   1.00
H672   H     0.66928   0.73586   0.15710   0.00000  Uiso   1.00
H673   H     0.72786   0.90923   0.31816   0.00000  Uiso   1.00
H674   H     0.68326   0.85815   0.34668   0.00000  Uiso   1.00
H675   H     0.99563   0.92326   0.34759   0.00000  Uiso   1.00
H676   H     0.80176   0.70151   0.08437   0.00000  Uiso   1.00
H677   H     0.85270   0.96846   0.41162   0.00000  Uiso   1.00
H678   H     0.83008   0.94207   0.35794   0.00000  Uiso   1.00
H679   H     0.89436   0.98230   0.36016   0.00000  Uiso   1.00
H680   H     0.96000   0.67508   0.06938   0.00000  Uiso   1.00
H681   H     0.88730   0.98467   0.06785   0.00000  Uiso   1.00
H682   H     0.92914   0.67084   0.01640   0.00000  Uiso   1.00
N683   N     0.98344   0.81932   0.23783   0.00000  Uiso   1.00
N684   N     0.68322   0.84735   0.26217   0.00000  Uiso   1.00
O685   O     0.79642   0.91286   0.25298   0.00000  Uiso   1.00
O686   O     0.90034   0.90870   0.38082   0.00000  Uiso   1.00
O687   O     0.95034   0.93496   0.04190   0.00000  Uiso   1.00
O688   O     0.70239   0.75010   0.46084   0.00000  Uiso   1.00
O689   O     0.91093   0.67107   0.23353   0.00000  Uiso   1.00
O690   O     0.76090   0.99552   0.28275   0.00000  Uiso   1.00
O691   O     0.67796   0.78205   0.21359   0.00000  Uiso   1.00
O692   O     0.98833   0.88301   0.28797   0.00000  Uiso   1.00
O693   O     0.87025   0.75381   0.24701   0.00000  Uiso   1.00
O694   O     0.89280   0.90387   0.24518   0.00000  Uiso   1.00
O695   O     0.77387   0.76279   0.25481   0.00000  Uiso   1.00
O696   O     0.78514   0.83784   0.31997   0.00000  Uiso   1.00
O697   O     0.88153   0.82883   0.18002   0.00000  Uiso   1.00
O698   O     0.88152   0.82885   0.31217   0.00000  Uiso   1.00
O699   O     0.78515   0.83781   0.18782   0.00000  Uiso   1.00
O700   O     0.76296   0.76367   0.11886   0.00000  Uiso   1.00
Zn701  Zn    0.76898   0.83933   0.25521   0.00000  Uiso   1.00
Zn702  Zn    0.89769   0.82734   0.24479   0.00000  Uiso   1.00
C703   C     0.18178   0.26463   0.75084   0.00000  Uiso   1.00
C704   C     0.20135   0.20581   0.90583   0.00000  Uiso   1.00
C705   C     0.16687   0.16745   0.61599   0.00000  Uiso   1.00
C706   C     0.16537   0.16980   0.88458   0.00000  Uiso   1.00
C707   C     0.20494   0.20161   0.59253   0.00000  Uiso   1.00
C708   C     0.12328   0.14033   0.90906   0.00000  Uiso   1.00
C709   C     0.20441   0.20371   0.54605   0.00000  Uiso   1.00
C710   C     0.12091   0.14177   0.95570   0.00000  Uiso   1.00
C711   C     0.16367   0.17168   0.52404   0.00000  Uiso   1.00
C712   C     0.16243   0.17303   0.97744   0.00000  Uiso   1.00
C713   C     0.12464   0.13766   0.54858   0.00000  Uiso   1.00
C714   C     0.15197   0.06876   0.75278   0.00000  Uiso   1.00
C715   C     0.20262   0.20560   0.95251   0.00000  Uiso   1.00
C716   C     0.24293   0.23743   0.52122   0.00000  Uiso   1.00
C717   C     0.07856   0.11217   0.98102   0.00000  Uiso   1.00
C718   C     0.12728   0.05211   0.61898   0.00000  Uiso   1.00
C719   C     0.20069   0.28525   0.87780   0.00000  Uiso   1.00
C720   C     0.26356   0.31838   0.54883   0.00000  Uiso   1.00
C721   C     0.31998   0.11266   0.96355   0.00000  Uiso   1.00
C722   C     0.28096   0.01048   0.76863   0.00000  Uiso   1.00
C723   C     0.08274   0.02105   0.82512   0.00000  Uiso   1.00
C724   C     0.31486   0.10163   0.67581   0.00000  Uiso   1.00
C725   C     0.24289   0.23712   0.97461   0.00000  Uiso   1.00
C726   C     0.01742   0.22646   0.82653   0.00000  Uiso   1.00
C727   C     0.08186   0.10892   0.52695   0.00000  Uiso   1.00
C728   C     0.19078   0.31880   0.75102   0.00000  Uiso   1.00
C729   C     0.14565   0.01534   0.76190   0.00000  Uiso   1.00
C730   C     0.16665   0.16717   0.83649   0.00000  Uiso   1.00
C731   C     0.16667   0.16704   0.66369   0.00000  Uiso   1.00
C732   C     0.12920   0.13348   0.59443   0.00000  Uiso   1.00
F733   F     0.24159   0.23285   0.61563   0.00000  Uiso   1.00
F734   F     0.08476   0.11041   0.88700   0.00000  Uiso   1.00
F735   F     0.28355   0.26691   0.95129   0.00000  Uiso   1.00
F736   F     0.04205   0.07822   0.55014   0.00000  Uiso   1.00
H737   H     0.10146   0.02328   0.63947   0.00000  Uiso   1.00
H738   H     0.28596   0.09025   0.94647   0.00000  Uiso   1.00
H739   H     0.32873   0.14958   0.94611   0.00000  Uiso   1.00
H740   H     0.30318   0.12037   0.99909   0.00000  Uiso   1.00
H741   H     0.28598   0.30692   0.78460   0.00000  Uiso   1.00
H742   H     0.26570   0.03959   0.79474   0.00000  Uiso   1.00
H743   H     0.32390   0.02427   0.75429   0.00000  Uiso   1.00
H744   H     0.05738   0.05506   0.82150   0.00000  Uiso   1.00
H745   H     0.12221   0.03211   0.84225   0.00000  Uiso   1.00
H746   H     0.05617   0.32852   0.84773   0.00000  Uiso   1.00
H747   H     0.31601   0.13439   0.65308   0.00000  Uiso   1.00
H748   H     0.16845   0.05989   0.63448   0.00000  Uiso   1.00
H749   H     0.27087   0.08669   0.68490   0.00000  Uiso   1.00
H750   H     0.00262   0.06919   0.65710   0.00000  Uiso   1.00
H751   H     0.06119   0.24256   0.81816   0.00000  Uiso   1.00
H752   H     0.01659   0.19148   0.84668   0.00000  Uiso   1.00
H753   H     0.32897   0.25660   0.84759   0.00000  Uiso   1.00
H754   H     0.13510   0.03484   0.58437   0.00000  Uiso   1.00
H755   H     0.18603   0.30179   0.91162   0.00000  Uiso   1.00
H756   H     0.16341   0.27540   0.85794   0.00000  Uiso   1.00
H757   H     0.22770   0.31563   0.86016   0.00000  Uiso   1.00
H758   H     0.29334   0.00842   0.56938   0.00000  Uiso   1.00
H759   H     0.22064   0.31800   0.56785   0.00000  Uiso   1.00
H760   H     0.26247   0.00417   0.51640   0.00000  Uiso   1.00
N761   N     0.31678   0.15265   0.73783   0.00000  Uiso   1.00
N762   N     0.01656   0.18068   0.76217   0.00000  Uiso   1.00
O763   O     0.12975   0.24619   0.75298   0.00000  Uiso   1.00
O764   O     0.23367   0.24204   0.88082   0.00000  Uiso   1.00
O765   O     0.28367   0.26830   0.54190   0.00000  Uiso   1.00
O766   O     0.03572   0.08343   0.96084   0.00000  Uiso   1.00
O767   O     0.24426   0.00440   0.73353   0.00000  Uiso   1.00
O768   O     0.09423   0.32885   0.78275   0.00000  Uiso   1.00
O769   O     0.01129   0.11538   0.71359   0.00000  Uiso   1.00
O770   O     0.32167   0.21634   0.78797   0.00000  Uiso   1.00
O771   O     0.20358   0.08714   0.74701   0.00000  Uiso   1.00
O772   O     0.22613   0.23721   0.74518   0.00000  Uiso   1.00
O773   O     0.10720   0.09613   0.75481   0.00000  Uiso   1.00
O774   O     0.11847   0.17117   0.81997   0.00000  Uiso   1.00
O775   O     0.21486   0.16216   0.68002   0.00000  Uiso   1.00
O776   O     0.21485   0.16219   0.81217   0.00000  Uiso   1.00
O777   O     0.11848   0.17115   0.68782   0.00000  Uiso   1.00
O778   O     0.09629   0.09700   0.61886   0.00000  Uiso   1.00
Zn779  Zn    0.10231   0.17266   0.75521   0.00000  Uiso   1.00
Zn780  Zn    0.23102   0.16067   0.74479   0.00000  Uiso   1.00
C781   C     0.51511   0.26463   0.75084   0.00000  Uiso   1.00
C782   C     0.53469   0.20581   0.90583   0.00000  Uiso   1.00
C783   C     0.50021   0.16745   0.61599   0.00000  Uiso   1.00
C784   C     0.49871   0.16980   0.88458   0.00000  Uiso   1.00
C785   C     0.53827   0.20161   0.59253   0.00000  Uiso   1.00
C786   C     0.45661   0.14033   0.90906   0.00000  Uiso   1.00
C787   C     0.53774   0.20371   0.54605   0.00000  Uiso   1.00
C788   C     0.45424   0.14177   0.95570   0.00000  Uiso   1.00
C789   C     0.49700   0.17168   0.52404   0.00000  Uiso   1.00
C790   C     0.49576   0.17303   0.97744   0.00000  Uiso   1.00
C791   C     0.45797   0.13766   0.54858   0.00000  Uiso   1.00
C792   C     0.48530   0.06876   0.75278   0.00000  Uiso   1.00
C793   C     0.53595   0.20560   0.95251   0.00000  Uiso   1.00
C794   C     0.57626   0.23743   0.52122   0.00000  Uiso   1.00
C795   C     0.41190   0.11217   0.98102   0.00000  Uiso   1.00
C796   C     0.46061   0.05211   0.61898   0.00000  Uiso   1.00
C797   C     0.53402   0.28525   0.87780   0.00000  Uiso   1.00
C798   C     0.59689   0.31838   0.54883   0.00000  Uiso   1.00
C799   C     0.65331   0.11266   0.96355   0.00000  Uiso   1.00
C800   C     0.61429   0.01048   0.76863   0.00000  Uiso   1.00
C801   C     0.41607   0.02105   0.82512   0.00000  Uiso   1.00
C802   C     0.64820   0.10163   0.67581   0.00000  Uiso   1.00
C803   C     0.57622   0.23712   0.97461   0.00000  Uiso   1.00
C804   C     0.35076   0.22646   0.82653   0.00000  Uiso   1.00
C805   C     0.41519   0.10892   0.52695   0.00000  Uiso   1.00
C806   C     0.52411   0.31880   0.75102   0.00000  Uiso   1.00
C807   C     0.47899   0.01534   0.76190   0.00000  Uiso   1.00
C808   C     0.49998   0.16717   0.83649   0.00000  Uiso   1.00
C809   C     0.50000   0.16704   0.66369   0.00000  Uiso   1.00
C810   C     0.46253   0.13348   0.59443   0.00000  Uiso   1.00
F811   F     0.57492   0.23285   0.61563   0.00000  Uiso   1.00
F812   F     0.41809   0.11041   0.88700   0.00000  Uiso   1.00
F813   F     0.61689   0.26691   0.95129   0.00000  Uiso   1.00
F814   F     0.37539   0.07822   0.55014   0.00000  Uiso   1.00
H815   H     0.43479   0.02328   0.63947   0.00000  Uiso   1.00
H816   H     0.61929   0.09025   0.94647   0.00000  Uiso   1.00
H817   H     0.66206   0.14958   0.94611   0.00000  Uiso   1.00
H818   H     0.63651   0.12037   0.99909   0.00000  Uiso   1.00
H819   H     0.61932   0.30692   0.78460   0.00000  Uiso   1.00
H820   H     0.59903   0.03959   0.79474   0.00000  Uiso   1.00
H821   H     0.65724   0.02427   0.75429   0.00000  Uiso   1.00
H822   H     0.39071   0.05506   0.82150   0.00000  Uiso   1.00
H823   H     0.45554   0.03211   0.84225   0.00000  Uiso   1.00
H824   H     0.38950   0.32852   0.84773   0.00000  Uiso   1.00
H825   H     0.64935   0.13439   0.65308   0.00000  Uiso   1.00
H826   H     0.50179   0.05989   0.63448   0.00000  Uiso   1.00
H827   H     0.60421   0.08669   0.68490   0.00000  Uiso   1.00
H828   H     0.33595   0.06919   0.65710   0.00000  Uiso   1.00
H829   H     0.39453   0.24256   0.81816   0.00000  Uiso   1.00
H830   H     0.34993   0.19148   0.84668   0.00000  Uiso   1.00
H831   H     0.66230   0.25660   0.84759   0.00000  Uiso   1.00
H832   H     0.46843   0.03484   0.58437   0.00000  Uiso   1.00
H833   H     0.51936   0.30179   0.91162   0.00000  Uiso   1.00
H834   H     0.49674   0.27540   0.85794   0.00000  Uiso   1.00
H835   H     0.56103   0.31563   0.86016   0.00000  Uiso   1.00
H836   H     0.62667   0.00842   0.56938   0.00000  Uiso   1.00
H837   H     0.55397   0.31800   0.56785   0.00000  Uiso   1.00
H838   H     0.59580   0.00417   0.51640   0.00000  Uiso   1.00
N839   N     0.65011   0.15265   0.73783   0.00000  Uiso   1.00
N840   N     0.34989   0.18068   0.76217   0.00000  Uiso   1.00
O841   O     0.46308   0.24619   0.75298   0.00000  Uiso   1.00
O842   O     0.56701   0.24204   0.88082   0.00000  Uiso   1.00
O843   O     0.61700   0.26830   0.54190   0.00000  Uiso   1.00
O844   O     0.36906   0.08343   0.96084   0.00000  Uiso   1.00
O845   O     0.57759   0.00440   0.73353   0.00000  Uiso   1.00
O846   O     0.42756   0.32885   0.78275   0.00000  Uiso   1.00
O847   O     0.34463   0.11538   0.71359   0.00000  Uiso   1.00
O848   O     0.65500   0.21634   0.78797   0.00000  Uiso   1.00
O849   O     0.53692   0.08714   0.74701   0.00000  Uiso   1.00
O850   O     0.55946   0.23721   0.74518   0.00000  Uiso   1.00
O851   O     0.44054   0.09613   0.75481   0.00000  Uiso   1.00
O852   O     0.45181   0.17117   0.81997   0.00000  Uiso   1.00
O853   O     0.54819   0.16216   0.68002   0.00000  Uiso   1.00
O854   O     0.54819   0.16219   0.81217   0.00000  Uiso   1.00
O855   O     0.45181   0.17115   0.68782   0.00000  Uiso   1.00
O856   O     0.42962   0.09700   0.61886   0.00000  Uiso   1.00
Zn857  Zn    0.43565   0.17266   0.75521   0.00000  Uiso   1.00
Zn858  Zn    0.56435   0.16067   0.74479   0.00000  Uiso   1.00
C859   C     0.84845   0.26463   0.75084   0.00000  Uiso   1.00
C860   C     0.86802   0.20581   0.90583   0.00000  Uiso   1.00
C861   C     0.83354   0.16745   0.61599   0.00000  Uiso   1.00
C862   C     0.83204   0.16980   0.88458   0.00000  Uiso   1.00
C863   C     0.87160   0.20161   0.59253   0.00000  Uiso   1.00
C864   C     0.78995   0.14033   0.90906   0.00000  Uiso   1.00
C865   C     0.87107   0.20371   0.54605   0.00000  Uiso   1.00
C866   C     0.78758   0.14177   0.95570   0.00000  Uiso   1.00
C867   C     0.83034   0.17168   0.52404   0.00000  Uiso   1.00
C868   C     0.82909   0.17303   0.97744   0.00000  Uiso   1.00
C869   C     0.79131   0.13766   0.54858   0.00000  Uiso   1.00
C870   C     0.81863   0.06876   0.75278   0.00000  Uiso   1.00
C871   C     0.86929   0.20560   0.95251   0.00000  Uiso   1.00
C872   C     0.90960   0.23743   0.52122   0.00000  Uiso   1.00
C873   C     0.74523   0.11217   0.98102   0.00000  Uiso   1.00
C874   C     0.79394   0.05211   0.61898   0.00000  Uiso   1.00
C875   C     0.86735   0.28525   0.87780   0.00000  Uiso   1.00
C876   C     0.93023   0.31838   0.54883   0.00000  Uiso   1.00
C877   C     0.98665   0.11266   0.96355   0.00000  Uiso   1.00
C878   C     0.94762   0.01048   0.76863   0.00000  Uiso   1.00
C879   C     0.74941   0.02105   0.82512   0.00000  Uiso   1.00
C880   C     0.98153   0.10163   0.67581   0.00000  Uiso   1.00
C881   C     0.90955   0.23712   0.97461   0.00000  Uiso   1.00
C882   C     0.68409   0.22646   0.82653   0.00000  Uiso   1.00
C883   C     0.74852   0.10892   0.52695   0.00000  Uiso   1.00
C884   C     0.85744   0.31880   0.75102   0.00000  Uiso   1.00
C885   C     0.81232   0.01534   0.76190   0.00000  Uiso   1.00
C886   C     0.83331   0.16717   0.83649   0.00000  Uiso   1.00
C887   C     0.83333   0.16704   0.66369   0.00000  Uiso   1.00
C888   C     0.79586   0.13348   0.59443   0.00000  Uiso   1.00
F889   F     0.90826   0.23285   0.61563   0.00000  Uiso   1.00
F890   F     0.75142   0.11041   0.88700   0.00000  Uiso   1.00
F891   F     0.95022   0.26691   0.95129   0.00000  Uiso   1.00
F892   F     0.70872   0.07822   0.55014   0.00000  Uiso   1.00
H893   H     0.76813   0.02328   0.63947   0.00000  Uiso   1.00
H894   H     0.95262   0.09025   0.94647   0.00000  Uiso   1.00
H895   H     0.99539   0.14958   0.94611   0.00000  Uiso   1.00
H896   H     0.96985   0.12037   0.99909   0.00000  Uiso   1.00
H897   H     0.95265   0.30692   0.78460   0.00000  Uiso   1.00
H898   H     0.93236   0.03959   0.79474   0.00000  Uiso   1.00
H899   H     0.99057   0.02427   0.75429   0.00000  Uiso   1.00
H900   H     0.72404   0.05506   0.82150   0.00000  Uiso   1.00
H901   H     0.78887   0.03211   0.84225   0.00000  Uiso   1.00
H902   H     0.72283   0.32852   0.84773   0.00000  Uiso   1.00
H903   H     0.98268   0.13439   0.65308   0.00000  Uiso   1.00
H904   H     0.83512   0.05989   0.63448   0.00000  Uiso   1.00
H905   H     0.93754   0.08669   0.68490   0.00000  Uiso   1.00
H906   H     0.66928   0.06919   0.65710   0.00000  Uiso   1.00
H907   H     0.72786   0.24256   0.81816   0.00000  Uiso   1.00
H908   H     0.68326   0.19148   0.84668   0.00000  Uiso   1.00
H909   H     0.99563   0.25660   0.84759   0.00000  Uiso   1.00
H910   H     0.80176   0.03484   0.58437   0.00000  Uiso   1.00
H911   H     0.85270   0.30179   0.91162   0.00000  Uiso   1.00
H912   H     0.83008   0.27540   0.85794   0.00000  Uiso   1.00
H913   H     0.89436   0.31563   0.86016   0.00000  Uiso   1.00
H914   H     0.96000   0.00842   0.56938   0.00000  Uiso   1.00
H915   H     0.88730   0.31800   0.56785   0.00000  Uiso   1.00
H916   H     0.92914   0.00417   0.51640   0.00000  Uiso   1.00
N917   N     0.98344   0.15265   0.73783   0.00000  Uiso   1.00
N918   N     0.68322   0.18068   0.76217   0.00000  Uiso   1.00
O919   O     0.79642   0.24619   0.75298   0.00000  Uiso   1.00
O920   O     0.90034   0.24204   0.88082   0.00000  Uiso   1.00
O921   O     0.95034   0.26830   0.54190   0.00000  Uiso   1.00
O922   O     0.70239   0.08343   0.96084   0.00000  Uiso   1.00
O923   O     0.91093   0.00440   0.73353   0.00000  Uiso   1.00
O924   O     0.76090   0.32885   0.78275   0.00000  Uiso   1.00
O925   O     0.67796   0.11538   0.71359   0.00000  Uiso   1.00
O926   O     0.98833   0.21634   0.78797   0.00000  Uiso   1.00
O927   O     0.87025   0.08714   0.74701   0.00000  Uiso   1.00
O928   O     0.89280   0.23721   0.74518   0.00000  Uiso   1.00
O929   O     0.77387   0.09613   0.75481   0.00000  Uiso   1.00
O930   O     0.78514   0.17117   0.81997   0.00000  Uiso   1.00
O931   O     0.88153   0.16216   0.68002   0.00000  Uiso   1.00
O932   O     0.88152   0.16219   0.81217   0.00000  Uiso   1.00
O933   O     0.78515   0.17115   0.68782   0.00000  Uiso   1.00
O934   O     0.76296   0.09700   0.61886   0.00000  Uiso   1.00
Zn935  Zn    0.76898   0.17266   0.75521   0.00000  Uiso   1.00
Zn936  Zn    0.89769   0.16067   0.74479   0.00000  Uiso   1.00
C937   C     0.18178   0.59797   0.75084   0.00000  Uiso   1.00
C938   C     0.20135   0.53914   0.90583   0.00000  Uiso   1.00
C939   C     0.16687   0.50078   0.61599   0.00000  Uiso   1.00
C940   C     0.16537   0.50314   0.88458   0.00000  Uiso   1.00
C941   C     0.20494   0.53494   0.59253   0.00000  Uiso   1.00
C942   C     0.12328   0.47366   0.90906   0.00000  Uiso   1.00
C943   C     0.20441   0.53704   0.54605   0.00000  Uiso   1.00
C944   C     0.12091   0.47510   0.95570   0.00000  Uiso   1.00
C945   C     0.16367   0.50501   0.52404   0.00000  Uiso   1.00
C946   C     0.16243   0.50636   0.97744   0.00000  Uiso   1.00
C947   C     0.12464   0.47099   0.54858   0.00000  Uiso   1.00
C948   C     0.15197   0.40209   0.75278   0.00000  Uiso   1.00
C949   C     0.20262   0.53893   0.95251   0.00000  Uiso   1.00
C950   C     0.24293   0.57076   0.52122   0.00000  Uiso   1.00
C951   C     0.07856   0.44551   0.98102   0.00000  Uiso   1.00
C952   C     0.12728   0.38545   0.61898   0.00000  Uiso   1.00
C953   C     0.20069   0.61858   0.87780   0.00000  Uiso   1.00
C954   C     0.26356   0.65172   0.54883   0.00000  Uiso   1.00
C955   C     0.31998   0.44600   0.96355   0.00000  Uiso   1.00
C956   C     0.28096   0.34381   0.76863   0.00000  Uiso   1.00
C957   C     0.08274   0.35438   0.82512   0.00000  Uiso   1.00
C958   C     0.31486   0.43496   0.67581   0.00000  Uiso   1.00
C959   C     0.24289   0.57045   0.97461   0.00000  Uiso   1.00
C960   C     0.01742   0.55979   0.82653   0.00000  Uiso   1.00
C961   C     0.08186   0.44226   0.52695   0.00000  Uiso   1.00
C962   C     0.19078   0.65213   0.75102   0.00000  Uiso   1.00
C963   C     0.14565   0.34867   0.76190   0.00000  Uiso   1.00
C964   C     0.16665   0.50050   0.83649   0.00000  Uiso   1.00
C965   C     0.16667   0.50037   0.66369   0.00000  Uiso   1.00
C966   C     0.12920   0.46682   0.59443   0.00000  Uiso   1.00
F967   F     0.24159   0.56618   0.61563   0.00000  Uiso   1.00
F968   F     0.08476   0.44374   0.88700   0.00000  Uiso   1.00
F969   F     0.28355   0.60024   0.95129   0.00000  Uiso   1.00
F970   F     0.04205   0.41156   0.55014   0.00000  Uiso   1.00
H971   H     0.10146   0.35661   0.63947   0.00000  Uiso   1.00
H972   H     0.28596   0.42358   0.94647   0.00000  Uiso   1.00
H973   H     0.32873   0.48291   0.94611   0.00000  Uiso   1.00
H974   H     0.30318   0.45370   0.99909   0.00000  Uiso   1.00
H975   H     0.28598   0.64025   0.78460   0.00000  Uiso   1.00
H976   H     0.26570   0.37292   0.79474   0.00000  Uiso   1.00
H977   H     0.32390   0.35760   0.75429   0.00000  Uiso   1.00
H978   H     0.05738   0.38839   0.82150   0.00000  Uiso   1.00
H979   H     0.12221   0.36545   0.84225   0.00000  Uiso   1.00
H980   H     0.05617   0.66186   0.84773   0.00000  Uiso   1.00
H981   H     0.31601   0.46773   0.65308   0.00000  Uiso   1.00
H982   H     0.16845   0.39322   0.63448   0.00000  Uiso   1.00
H983   H     0.27087   0.42002   0.68490   0.00000  Uiso   1.00
H984   H     0.00262   0.40252   0.65710   0.00000  Uiso   1.00
H985   H     0.06119   0.57589   0.81816   0.00000  Uiso   1.00
H986   H     0.01659   0.52481   0.84668   0.00000  Uiso   1.00
H987   H     0.32897   0.58993   0.84759   0.00000  Uiso   1.00
H988   H     0.13510   0.36817   0.58437   0.00000  Uiso   1.00
H989   H     0.18603   0.63513   0.91162   0.00000  Uiso   1.00
H990   H     0.16341   0.60874   0.85794   0.00000  Uiso   1.00
H991   H     0.22770   0.64896   0.86016   0.00000  Uiso   1.00
H992   H     0.29334   0.34175   0.56938   0.00000  Uiso   1.00
H993   H     0.22064   0.65134   0.56785   0.00000  Uiso   1.00
H994   H     0.26247   0.33750   0.51640   0.00000  Uiso   1.00
N995   N     0.31678   0.48598   0.73783   0.00000  Uiso   1.00
N996   N     0.01656   0.51402   0.76217   0.00000  Uiso   1.00
O997   O     0.12975   0.57952   0.75298   0.00000  Uiso   1.00
O998   O     0.23367   0.57537   0.88082   0.00000  Uiso   1.00
O999   O     0.28367   0.60163   0.54190   0.00000  Uiso   1.00
O1000  O     0.03572   0.41676   0.96084   0.00000  Uiso   1.00
O1001  O     0.24426   0.33773   0.73353   0.00000  Uiso   1.00
O1002  O     0.09423   0.66218   0.78275   0.00000  Uiso   1.00
O1003  O     0.01129   0.44871   0.71359   0.00000  Uiso   1.00
O1004  O     0.32167   0.54968   0.78797   0.00000  Uiso   1.00
O1005  O     0.20358   0.42048   0.74701   0.00000  Uiso   1.00
O1006  O     0.22613   0.57054   0.74518   0.00000  Uiso   1.00
O1007  O     0.10720   0.42946   0.75481   0.00000  Uiso   1.00
O1008  O     0.11847   0.50450   0.81997   0.00000  Uiso   1.00
O1009  O     0.21486   0.49550   0.68002   0.00000  Uiso   1.00
O1010  O     0.21485   0.49552   0.81217   0.00000  Uiso   1.00
O1011  O     0.11848   0.50448   0.68782   0.00000  Uiso   1.00
O1012  O     0.09629   0.43034   0.61886   0.00000  Uiso   1.00
Zn1013 Zn    0.10231   0.50600   0.75521   0.00000  Uiso   1.00
Zn1014 Zn    0.23102   0.49400   0.74479   0.00000  Uiso   1.00
C1015  C     0.51511   0.59797   0.75084   0.00000  Uiso   1.00
C1016  C     0.53469   0.53914   0.90583   0.00000  Uiso   1.00
C1017  C     0.50021   0.50078   0.61599   0.00000  Uiso   1.00
C1018  C     0.49871   0.50314   0.88458   0.00000  Uiso   1.00
C1019  C     0.53827   0.53494   0.59253   0.00000  Uiso   1.00
C1020  C     0.45661   0.47366   0.90906   0.00000  Uiso   1.00
C1021  C     0.53774   0.53704   0.54605   0.00000  Uiso   1.00
C1022  C     0.45424   0.47510   0.95570   0.00000  Uiso   1.00
C1023  C     0.49700   0.50501   0.52404   0.00000  Uiso   1.00
C1024  C     0.49576   0.50636   0.97744   0.00000  Uiso   1.00
C1025  C     0.45797   0.47099   0.54858   0.00000  Uiso   1.00
C1026  C     0.48530   0.40209   0.75278   0.00000  Uiso   1.00
C1027  C     0.53595   0.53893   0.95251   0.00000  Uiso   1.00
C1028  C     0.57626   0.57076   0.52122   0.00000  Uiso   1.00
C1029  C     0.41190   0.44551   0.98102   0.00000  Uiso   1.00
C1030  C     0.46061   0.38545   0.61898   0.00000  Uiso   1.00
C1031  C     0.53402   0.61858   0.87780   0.00000  Uiso   1.00
C1032  C     0.59689   0.65172   0.54883   0.00000  Uiso   1.00
C1033  C     0.65331   0.44600   0.96355   0.00000  Uiso   1.00
C1034  C     0.61429   0.34381   0.76863   0.00000  Uiso   1.00
C1035  C     0.41607   0.35438   0.82512   0.00000  Uiso   1.00
C1036  C     0.64820   0.43496   0.67581   0.00000  Uiso   1.00
C1037  C     0.57622   0.57045   0.97461   0.00000  Uiso   1.00
C1038  C     0.35076   0.55979   0.82653   0.00000  Uiso   1.00
C1039  C     0.41519   0.44226   0.52695   0.00000  Uiso   1.00
C1040  C     0.52411   0.65213   0.75102   0.00000  Uiso   1.00
C1041  C     0.47899   0.34867   0.76190   0.00000  Uiso   1.00
C1042  C     0.49998   0.50050   0.83649   0.00000  Uiso   1.00
C1043  C     0.50000   0.50037   0.66369   0.00000  Uiso   1.00
C1044  C     0.46253   0.46682   0.59443   0.00000  Uiso   1.00
F1045  F     0.57492   0.56618   0.61563   0.00000  Uiso   1.00
F1046  F     0.41809   0.44374   0.88700   0.00000  Uiso   1.00
F1047  F     0.61689   0.60024   0.95129   0.00000  Uiso   1.00
F1048  F     0.37539   0.41156   0.55014   0.00000  Uiso   1.00
H1049  H     0.43479   0.35661   0.63947   0.00000  Uiso   1.00
H1050  H     0.61929   0.42358   0.94647   0.00000  Uiso   1.00
H1051  H     0.66206   0.48291   0.94611   0.00000  Uiso   1.00
H1052  H     0.63651   0.45370   0.99909   0.00000  Uiso   1.00
H1053  H     0.61932   0.64025   0.78460   0.00000  Uiso   1.00
H1054  H     0.59903   0.37292   0.79474   0.00000  Uiso   1.00
H1055  H     0.65724   0.35760   0.75429   0.00000  Uiso   1.00
H1056  H     0.39071   0.38839   0.82150   0.00000  Uiso   1.00
H1057  H     0.45554   0.36545   0.84225   0.00000  Uiso   1.00
H1058  H     0.38950   0.66186   0.84773   0.00000  Uiso   1.00
H1059  H     0.64935   0.46773   0.65308   0.00000  Uiso   1.00
H1060  H     0.50179   0.39322   0.63448   0.00000  Uiso   1.00
H1061  H     0.60421   0.42002   0.68490   0.00000  Uiso   1.00
H1062  H     0.33595   0.40252   0.65710   0.00000  Uiso   1.00
H1063  H     0.39453   0.57589   0.81816   0.00000  Uiso   1.00
H1064  H     0.34993   0.52481   0.84668   0.00000  Uiso   1.00
H1065  H     0.66230   0.58993   0.84759   0.00000  Uiso   1.00
H1066  H     0.46843   0.36817   0.58437   0.00000  Uiso   1.00
H1067  H     0.51936   0.63513   0.91162   0.00000  Uiso   1.00
H1068  H     0.49674   0.60874   0.85794   0.00000  Uiso   1.00
H1069  H     0.56103   0.64896   0.86016   0.00000  Uiso   1.00
H1070  H     0.62667   0.34175   0.56938   0.00000  Uiso   1.00
H1071  H     0.55397   0.65134   0.56785   0.00000  Uiso   1.00
H1072  H     0.59580   0.33750   0.51640   0.00000  Uiso   1.00
N1073  N     0.65011   0.48598   0.73783   0.00000  Uiso   1.00
N1074  N     0.34989   0.51402   0.76217   0.00000  Uiso   1.00
O1075  O     0.46308   0.57952   0.75298   0.00000  Uiso   1.00
O1076  O     0.56701   0.57537   0.88082   0.00000  Uiso   1.00
O1077  O     0.61700   0.60163   0.54190   0.00000  Uiso   1.00
O1078  O     0.36906   0.41676   0.96084   0.00000  Uiso   1.00
O1079  O     0.57759   0.33773   0.73353   0.00000  Uiso   1.00
O1080  O     0.42756   0.66218   0.78275   0.00000  Uiso   1.00
O1081  O     0.34463   0.44871   0.71359   0.00000  Uiso   1.00
O1082  O     0.65500   0.54968   0.78797   0.00000  Uiso   1.00
O1083  O     0.53692   0.42048   0.74701   0.00000  Uiso   1.00
O1084  O     0.55946   0.57054   0.74518   0.00000  Uiso   1.00
O1085  O     0.44054   0.42946   0.75481   0.00000  Uiso   1.00
O1086  O     0.45181   0.50450   0.81997   0.00000  Uiso   1.00
O1087  O     0.54819   0.49550   0.68002   0.00000  Uiso   1.00
O1088  O     0.54819   0.49552   0.81217   0.00000  Uiso   1.00
O1089  O     0.45181   0.50448   0.68782   0.00000  Uiso   1.00
O1090  O     0.42962   0.43034   0.61886   0.00000  Uiso   1.00
Zn1091 Zn    0.43565   0.50600   0.75521   0.00000  Uiso   1.00
Zn1092 Zn    0.56435   0.49400   0.74479   0.00000  Uiso   1.00
C1093  C     0.84845   0.59797   0.75084   0.00000  Uiso   1.00
C1094  C     0.86802   0.53914   0.90583   0.00000  Uiso   1.00
C1095  C     0.83354   0.50078   0.61599   0.00000  Uiso   1.00
C1096  C     0.83204   0.50314   0.88458   0.00000  Uiso   1.00
C1097  C     0.87160   0.53494   0.59253   0.00000  Uiso   1.00
C1098  C     0.78995   0.47366   0.90906   0.00000  Uiso   1.00
C1099  C     0.87107   0.53704   0.54605   0.00000  Uiso   1.00
C1100  C     0.78758   0.47510   0.95570   0.00000  Uiso   1.00
C1101  C     0.83034   0.50501   0.52404   0.00000  Uiso   1.00
C1102  C     0.82909   0.50636   0.97744   0.00000  Uiso   1.00
C1103  C     0.79131   0.47099   0.54858   0.00000  Uiso   1.00
C1104  C     0.81863   0.40209   0.75278   0.00000  Uiso   1.00
C1105  C     0.86929   0.53893   0.95251   0.00000  Uiso   1.00
C1106  C     0.90960   0.57076   0.52122   0.00000  Uiso   1.00
C1107  C     0.74523   0.44551   0.98102   0.00000  Uiso   1.00
C1108  C     0.79394   0.38545   0.61898   0.00000  Uiso   1.00
C1109  C     0.86735   0.61858   0.87780   0.00000  Uiso   1.00
C1110  C     0.93023   0.65172   0.54883   0.00000  Uiso   1.00
C1111  C     0.98665   0.44600   0.96355   0.00000  Uiso   1.00
C1112  C     0.94762   0.34381   0.76863   0.00000  Uiso   1.00
C1113  C     0.74941   0.35438   0.82512   0.00000  Uiso   1.00
C1114  C     0.98153   0.43496   0.67581   0.00000  Uiso   1.00
C1115  C     0.90955   0.57045   0.97461   0.00000  Uiso   1.00
C1116  C     0.68409   0.55979   0.82653   0.00000  Uiso   1.00
C1117  C     0.74852   0.44226   0.52695   0.00000  Uiso   1.00
C1118  C     0.85744   0.65213   0.75102   0.00000  Uiso   1.00
C1119  C     0.81232   0.34867   0.76190   0.00000  Uiso   1.00
C1120  C     0.83331   0.50050   0.83649   0.00000  Uiso   1.00
C1121  C     0.83333   0.50037   0.66369   0.00000  Uiso   1.00
C1122  C     0.79586   0.46682   0.59443   0.00000  Uiso   1.00
F1123  F     0.90826   0.56618   0.61563   0.00000  Uiso   1.00
F1124  F     0.75142   0.44374   0.88700   0.00000  Uiso   1.00
F1125  F     0.95022   0.60024   0.95129   0.00000  Uiso   1.00
F1126  F     0.70872   0.41156   0.55014   0.00000  Uiso   1.00
H1127  H     0.76813   0.35661   0.63947   0.00000  Uiso   1.00
H1128  H     0.95262   0.42358   0.94647   0.00000  Uiso   1.00
H1129  H     0.99539   0.48291   0.94611   0.00000  Uiso   1.00
H1130  H     0.96985   0.45370   0.99909   0.00000  Uiso   1.00
H1131  H     0.95265   0.64025   0.78460   0.00000  Uiso   1.00
H1132  H     0.93236   0.37292   0.79474   0.00000  Uiso   1.00
H1133  H     0.99057   0.35760   0.75429   0.00000  Uiso   1.00
H1134  H     0.72404   0.38839   0.82150   0.00000  Uiso   1.00
H1135  H     0.78887   0.36545   0.84225   0.00000  Uiso   1.00
H1136  H     0.72283   0.66186   0.84773   0.00000  Uiso   1.00
H1137  H     0.98268   0.46773   0.65308   0.00000  Uiso   1.00
H1138  H     0.83512   0.39322   0.63448   0.00000  Uiso   1.00
H1139  H     0.93754   0.42002   0.68490   0.00000  Uiso   1.00
H1140  H     0.66928   0.40252   0.65710   0.00000  Uiso   1.00
H1141  H     0.72786   0.57589   0.81816   0.00000  Uiso   1.00
H1142  H     0.68326   0.52481   0.84668   0.00000  Uiso   1.00
H1143  H     0.99563   0.58993   0.84759   0.00000  Uiso   1.00
H1144  H     0.80176   0.36817   0.58437   0.00000  Uiso   1.00
H1145  H     0.85270   0.63513   0.91162   0.00000  Uiso   1.00
H1146  H     0.83008   0.60874   0.85794   0.00000  Uiso   1.00
H1147  H     0.89436   0.64896   0.86016   0.00000  Uiso   1.00
H1148  H     0.96000   0.34175   0.56938   0.00000  Uiso   1.00
H1149  H     0.88730   0.65134   0.56785   0.00000  Uiso   1.00
H1150  H     0.92914   0.33750   0.51640   0.00000  Uiso   1.00
N1151  N     0.98344   0.48598   0.73783   0.00000  Uiso   1.00
N1152  N     0.68322   0.51402   0.76217   0.00000  Uiso   1.00
O1153  O     0.79642   0.57952   0.75298   0.00000  Uiso   1.00
O1154  O     0.90034   0.57537   0.88082   0.00000  Uiso   1.00
O1155  O     0.95034   0.60163   0.54190   0.00000  Uiso   1.00
O1156  O     0.70239   0.41676   0.96084   0.00000  Uiso   1.00
O1157  O     0.91093   0.33773   0.73353   0.00000  Uiso   1.00
O1158  O     0.76090   0.66218   0.78275   0.00000  Uiso   1.00
O1159  O     0.67796   0.44871   0.71359   0.00000  Uiso   1.00
O1160  O     0.98833   0.54968   0.78797   0.00000  Uiso   1.00
O1161  O     0.87025   0.42048   0.74701   0.00000  Uiso   1.00
O1162  O     0.89280   0.57054   0.74518   0.00000  Uiso   1.00
O1163  O     0.77387   0.42946   0.75481   0.00000  Uiso   1.00
O1164  O     0.78514   0.50450   0.81997   0.00000  Uiso   1.00
O1165  O     0.88153   0.49550   0.68002   0.00000  Uiso   1.00
O1166  O     0.88152   0.49552   0.81217   0.00000  Uiso   1.00
O1167  O     0.78515   0.50448   0.68782   0.00000  Uiso   1.00
O1168  O     0.76296   0.43034   0.61886   0.00000  Uiso   1.00
Zn1169 Zn    0.76898   0.50600   0.75521   0.00000  Uiso   1.00
Zn1170 Zn    0.89769   0.49400   0.74479   0.00000  Uiso   1.00
C1171  C     0.18178   0.93130   0.75084   0.00000  Uiso   1.00
C1172  C     0.20135   0.87247   0.90583   0.00000  Uiso   1.00
C1173  C     0.16687   0.83412   0.61599   0.00000  Uiso   1.00
C1174  C     0.16537   0.83647   0.88458   0.00000  Uiso   1.00
C1175  C     0.20494   0.86827   0.59253   0.00000  Uiso   1.00
C1176  C     0.12328   0.80699   0.90906   0.00000  Uiso   1.00
C1177  C     0.20441   0.87038   0.54605   0.00000  Uiso   1.00
C1178  C     0.12091   0.80844   0.95570   0.00000  Uiso   1.00
C1179  C     0.16367   0.83835   0.52404   0.00000  Uiso   1.00
C1180  C     0.16243   0.83970   0.97744   0.00000  Uiso   1.00
C1181  C     0.12464   0.80432   0.54858   0.00000  Uiso   1.00
C1182  C     0.15197   0.73542   0.75278   0.00000  Uiso   1.00
C1183  C     0.20262   0.87227   0.95251   0.00000  Uiso   1.00
C1184  C     0.24293   0.90409   0.52122   0.00000  Uiso   1.00
C1185  C     0.07856   0.77884   0.98102   0.00000  Uiso   1.00
C1186  C     0.12728   0.71878   0.61898   0.00000  Uiso   1.00
C1187  C     0.20069   0.95192   0.87780   0.00000  Uiso   1.00
C1188  C     0.26356   0.98505   0.54883   0.00000  Uiso   1.00
C1189  C     0.31998   0.77933   0.96355   0.00000  Uiso   1.00
C1190  C     0.28096   0.67714   0.76863   0.00000  Uiso   1.00
C1191  C     0.08274   0.68772   0.82512   0.00000  Uiso   1.00
C1192  C     0.31486   0.76829   0.67581   0.00000  Uiso   1.00
C1193  C     0.24289   0.90378   0.97461   0.00000  Uiso   1.00
C1194  C     0.01742   0.89313   0.82653   0.00000  Uiso   1.00
C1195  C     0.08186   0.77559   0.52695   0.00000  Uiso   1.00
C1196  C     0.19078   0.98546   0.75102   0.00000  Uiso   1.00
C1197  C     0.14565   0.68200   0.76190   0.00000  Uiso   1.00
C1198  C     0.16665   0.83384   0.83649   0.00000  Uiso   1.00
C1199  C     0.16667   0.83370   0.66369   0.00000  Uiso   1.00
C1200  C     0.12920   0.80015   0.59443   0.00000  Uiso   1.00
F1201  F     0.24159   0.89952   0.61563   0.00000  Uiso   1.00
F1202  F     0.08476   0.77707   0.88700   0.00000  Uiso   1.00
F1203  F     0.28355   0.93358   0.95129   0.00000  Uiso   1.00
F1204  F     0.04205   0.74489   0.55014   0.00000  Uiso   1.00
H1205  H     0.10146   0.68994   0.63947   0.00000  Uiso   1.00
H1206  H     0.28596   0.75691   0.94647   0.00000  Uiso   1.00
H1207  H     0.32873   0.81624   0.94611   0.00000  Uiso   1.00
H1208  H     0.30318   0.78704   0.99909   0.00000  Uiso   1.00
H1209  H     0.28598   0.97359   0.78460   0.00000  Uiso   1.00
H1210  H     0.26570   0.70625   0.79474   0.00000  Uiso   1.00
H1211  H     0.32390   0.69094   0.75429   0.00000  Uiso   1.00
H1212  H     0.05738   0.72173   0.82150   0.00000  Uiso   1.00
H1213  H     0.12221   0.69878   0.84225   0.00000  Uiso   1.00
H1214  H     0.05617   0.99519   0.84773   0.00000  Uiso   1.00
H1215  H     0.31601   0.80106   0.65308   0.00000  Uiso   1.00
H1216  H     0.16845   0.72655   0.63448   0.00000  Uiso   1.00
H1217  H     0.27087   0.75335   0.68490   0.00000  Uiso   1.00
H1218  H     0.00262   0.73586   0.65710   0.00000  Uiso   1.00
H1219  H     0.06119   0.90923   0.81816   0.00000  Uiso   1.00
H1220  H     0.01659   0.85815   0.84668   0.00000  Uiso   1.00
H1221  H     0.32897   0.92326   0.84759   0.00000  Uiso   1.00
H1222  H     0.13510   0.70151   0.58437   0.00000  Uiso   1.00
H1223  H     0.18603   0.96846   0.91162   0.00000  Uiso   1.00
H1224  H     0.16341   0.94207   0.85794   0.00000  Uiso   1.00
H1225  H     0.22770   0.98230   0.86016   0.00000  Uiso   1.00
H1226  H     0.29334   0.67508   0.56938   0.00000  Uiso   1.00
H1227  H     0.22064   0.98467   0.56785   0.00000  Uiso   1.00
H1228  H     0.26247   0.67084   0.51640   0.00000  Uiso   1.00
N1229  N     0.31678   0.81932   0.73783   0.00000  Uiso   1.00
N1230  N     0.01656   0.84735   0.76217   0.00000  Uiso   1.00
O1231  O     0.12975   0.91286   0.75298   0.00000  Uiso   1.00
O1232  O     0.23367   0.90870   0.88082   0.00000  Uiso   1.00
O1233  O     0.28367   0.93496   0.54190   0.00000  Uiso   1.00
O1234  O     0.03572   0.75010   0.96084   0.00000  Uiso   1.00
O1235  O     0.24426   0.67107   0.73353   0.00000  Uiso   1.00
O1236  O     0.09423   0.99552   0.78275   0.00000  Uiso   1.00
O1237  O     0.01129   0.78205   0.71359   0.00000  Uiso   1.00
O1238  O     0.32167   0.88301   0.78797   0.00000  Uiso   1.00
O1239  O     0.20358   0.75381   0.74701   0.00000  Uiso   1.00
O1240  O     0.22613   0.90387   0.74518   0.00000  Uiso   1.00
O1241  O     0.10720   0.76279   0.75481   0.00000  Uiso   1.00
O1242  O     0.11847   0.83784   0.81997   0.00000  Uiso   1.00
O1243  O     0.21486   0.82883   0.68002   0.00000  Uiso   1.00
O1244  O     0.21485   0.82885   0.81217   0.00000  Uiso   1.00
O1245  O     0.11848   0.83781   0.68782   0.00000  Uiso   1.00
O1246  O     0.09629   0.76367   0.61886   0.00000  Uiso   1.00
Zn1247 Zn    0.10231   0.83933   0.75521   0.00000  Uiso   1.00
Zn1248 Zn    0.23102   0.82734   0.74479   0.00000  Uiso   1.00
C1249  C     0.51511   0.93130   0.75084   0.00000  Uiso   1.00
C1250  C     0.53469   0.87247   0.90583   0.00000  Uiso   1.00
C1251  C     0.50021   0.83412   0.61599   0.00000  Uiso   1.00
C1252  C     0.49871   0.83647   0.88458   0.00000  Uiso   1.00
C1253  C     0.53827   0.86827   0.59253   0.00000  Uiso   1.00
C1254  C     0.45661   0.80699   0.90906   0.00000  Uiso   1.00
C1255  C     0.53774   0.87038   0.54605   0.00000  Uiso   1.00
C1256  C     0.45424   0.80844   0.95570   0.00000  Uiso   1.00
C1257  C     0.49700   0.83835   0.52404   0.00000  Uiso   1.00
C1258  C     0.49576   0.83970   0.97744   0.00000  Uiso   1.00
C1259  C     0.45797   0.80432   0.54858   0.00000  Uiso   1.00
C1260  C     0.48530   0.73542   0.75278   0.00000  Uiso   1.00
C1261  C     0.53595   0.87227   0.95251   0.00000  Uiso   1.00
C1262  C     0.57626   0.90409   0.52122   0.00000  Uiso   1.00
C1263  C     0.41190   0.77884   0.98102   0.00000  Uiso   1.00
C1264  C     0.46061   0.71878   0.61898   0.00000  Uiso   1.00
C1265  C     0.53402   0.95192   0.87780   0.00000  Uiso   1.00
C1266  C     0.59689   0.98505   0.54883   0.00000  Uiso   1.00
C1267  C     0.65331   0.77933   0.96355   0.00000  Uiso   1.00
C1268  C     0.61429   0.67714   0.76863   0.00000  Uiso   1.00
C1269  C     0.41607   0.68772   0.82512   0.00000  Uiso   1.00
C1270  C     0.64820   0.76829   0.67581   0.00000  Uiso   1.00
C1271  C     0.57622   0.90378   0.97461   0.00000  Uiso   1.00
C1272  C     0.35076   0.89313   0.82653   0.00000  Uiso   1.00
C1273  C     0.41519   0.77559   0.52695   0.00000  Uiso   1.00
C1274  C     0.52411   0.98546   0.75102   0.00000  Uiso   1.00
C1275  C     0.47899   0.68200   0.76190   0.00000  Uiso   1.00
C1276  C     0.49998   0.83384   0.83649   0.00000  Uiso   1.00
C1277  C     0.50000   0.83370   0.66369   0.00000  Uiso   1.00
C1278  C     0.46253   0.80015   0.59443   0.00000  Uiso   1.00
F1279  F     0.57492   0.89952   0.61563   0.00000  Uiso   1.00
F1280  F     0.41809   0.77707   0.88700   0.00000  Uiso   1.00
F1281  F     0.61689   0.93358   0.95129   0.00000  Uiso   1.00
F1282  F     0.37539   0.74489   0.55014   0.00000  Uiso   1.00
H1283  H     0.43479   0.68994   0.63947   0.00000  Uiso   1.00
H1284  H     0.61929   0.75691   0.94647   0.00000  Uiso   1.00
H1285  H     0.66206   0.81624   0.94611   0.00000  Uiso   1.00
H1286  H     0.63651   0.78704   0.99909   0.00000  Uiso   1.00
H1287  H     0.61932   0.97359   0.78460   0.00000  Uiso   1.00
H1288  H     0.59903   0.70625   0.79474   0.00000  Uiso   1.00
H1289  H     0.65724   0.69094   0.75429   0.00000  Uiso   1.00
H1290  H     0.39071   0.72173   0.82150   0.00000  Uiso   1.00
H1291  H     0.45554   0.69878   0.84225   0.00000  Uiso   1.00
H1292  H     0.38950   0.99519   0.84773   0.00000  Uiso   1.00
H1293  H     0.64935   0.80106   0.65308   0.00000  Uiso   1.00
H1294  H     0.50179   0.72655   0.63448   0.00000  Uiso   1.00
H1295  H     0.60421   0.75335   0.68490   0.00000  Uiso   1.00
H1296  H     0.33595   0.73586   0.65710   0.00000  Uiso   1.00
H1297  H     0.39453   0.90923   0.81816   0.00000  Uiso   1.00
H1298  H     0.34993   0.85815   0.84668   0.00000  Uiso   1.00
H1299  H     0.66230   0.92326   0.84759   0.00000  Uiso   1.00
H1300  H     0.46843   0.70151   0.58437   0.00000  Uiso   1.00
H1301  H     0.51936   0.96846   0.91162   0.00000  Uiso   1.00
H1302  H     0.49674   0.94207   0.85794   0.00000  Uiso   1.00
H1303  H     0.56103   0.98230   0.86016   0.00000  Uiso   1.00
H1304  H     0.62667   0.67508   0.56938   0.00000  Uiso   1.00
H1305  H     0.55397   0.98467   0.56785   0.00000  Uiso   1.00
H1306  H     0.59580   0.67084   0.51640   0.00000  Uiso   1.00
N1307  N     0.65011   0.81932   0.73783   0.00000  Uiso   1.00
N1308  N     0.34989   0.84735   0.76217   0.00000  Uiso   1.00
O1309  O     0.46308   0.91286   0.75298   0.00000  Uiso   1.00
O1310  O     0.56701   0.90870   0.88082   0.00000  Uiso   1.00
O1311  O     0.61700   0.93496   0.54190   0.00000  Uiso   1.00
O1312  O     0.36906   0.75010   0.96084   0.00000  Uiso   1.00
O1313  O     0.57759   0.67107   0.73353   0.00000  Uiso   1.00
O1314  O     0.42756   0.99552   0.78275   0.00000  Uiso   1.00
O1315  O     0.34463   0.78205   0.71359   0.00000  Uiso   1.00
O1316  O     0.65500   0.88301   0.78797   0.00000  Uiso   1.00
O1317  O     0.53692   0.75381   0.74701   0.00000  Uiso   1.00
O1318  O     0.55946   0.90387   0.74518   0.00000  Uiso   1.00
O1319  O     0.44054   0.76279   0.75481   0.00000  Uiso   1.00
O1320  O     0.45181   0.83784   0.81997   0.00000  Uiso   1.00
O1321  O     0.54819   0.82883   0.68002   0.00000  Uiso   1.00
O1322  O     0.54819   0.82885   0.81217   0.00000  Uiso   1.00
O1323  O     0.45181   0.83781   0.68782   0.00000  Uiso   1.00
O1324  O     0.42962   0.76367   0.61886   0.00000  Uiso   1.00
Zn1325 Zn    0.43565   0.83933   0.75521   0.00000  Uiso   1.00
Zn1326 Zn    0.56435   0.82734   0.74479   0.00000  Uiso   1.00
C1327  C     0.84845   0.93130   0.75084   0.00000  Uiso   1.00
C1328  C     0.86802   0.87247   0.90583   0.00000  Uiso   1.00
C1329  C     0.83354   0.83412   0.61599   0.00000  Uiso   1.00
C1330  C     0.83204   0.83647   0.88458   0.00000  Uiso   1.00
C1331  C     0.87160   0.86827   0.59253   0.00000  Uiso   1.00
C1332  C     0.78995   0.80699   0.90906   0.00000  Uiso   1.00
C1333  C     0.87107   0.87038   0.54605   0.00000  Uiso   1.00
C1334  C     0.78758   0.80844   0.95570   0.00000  Uiso   1.00
C1335  C     0.83034   0.83835   0.52404   0.00000  Uiso   1.00
C1336  C     0.82909   0.83970   0.97744   0.00000  Uiso   1.00
C1337  C     0.79131   0.80432   0.54858   0.00000  Uiso   1.00
C1338  C     0.81863   0.73542   0.75278   0.00000  Uiso   1.00
C1339  C     0.86929   0.87227   0.95251   0.00000  Uiso   1.00
C1340  C     0.90960   0.90409   0.52122   0.00000  Uiso   1.00
C1341  C     0.74523   0.77884   0.98102   0.00000  Uiso   1.00
C1342  C     0.79394   0.71878   0.61898   0.00000  Uiso   1.00
C1343  C     0.86735   0.95192   0.87780   0.00000  Uiso   1.00
C1344  C     0.93023   0.98505   0.54883   0.00000  Uiso   1.00
C1345  C     0.98665   0.77933   0.96355   0.00000  Uiso   1.00
C1346  C     0.94762   0.67714   0.76863   0.00000  Uiso   1.00
C1347  C     0.74941   0.68772   0.82512   0.00000  Uiso   1.00
C1348  C     0.98153   0.76829   0.67581   0.00000  Uiso   1.00
C1349  C     0.90955   0.90378   0.97461   0.00000  Uiso   1.00
C1350  C     0.68409   0.89313   0.82653   0.00000  Uiso   1.00
C1351  C     0.74852   0.77559   0.52695   0.00000  Uiso   1.00
C1352  C     0.85744   0.98546   0.75102   0.00000  Uiso   1.00
C1353  C     0.81232   0.68200   0.76190   0.00000  Uiso   1.00
C1354  C     0.83331   0.83384   0.83649   0.00000  Uiso   1.00
C1355  C     0.83333   0.83370   0.66369   0.00000  Uiso   1.00
C1356  C     0.79586   0.80015   0.59443   0.00000  Uiso   1.00
F1357  F     0.90826   0.89952   0.61563   0.00000  Uiso   1.00
F1358  F     0.75142   0.77707   0.88700   0.00000  Uiso   1.00
F1359  F     0.95022   0.93358   0.95129   0.00000  Uiso   1.00
F1360  F     0.70872   0.74489   0.55014   0.00000  Uiso   1.00
H1361  H     0.76813   0.68994   0.63947   0.00000  Uiso   1.00
H1362  H     0.95262   0.75691   0.94647   0.00000  Uiso   1.00
H1363  H     0.99539   0.81624   0.94611   0.00000  Uiso   1.00
H1364  H     0.96985   0.78704   0.99909   0.00000  Uiso   1.00
H1365  H     0.95265   0.97359   0.78460   0.00000  Uiso   1.00
H1366  H     0.93236   0.70625   0.79474   0.00000  Uiso   1.00
H1367  H     0.99057   0.69094   0.75429   0.00000  Uiso   1.00
H1368  H     0.72404   0.72173   0.82150   0.00000  Uiso   1.00
H1369  H     0.78887   0.69878   0.84225   0.00000  Uiso   1.00
H1370  H     0.72283   0.99519   0.84773   0.00000  Uiso   1.00
H1371  H     0.98268   0.80106   0.65308   0.00000  Uiso   1.00
H1372  H     0.83512   0.72655   0.63448   0.00000  Uiso   1.00
H1373  H     0.93754   0.75335   0.68490   0.00000  Uiso   1.00
H1374  H     0.66928   0.73586   0.65710   0.00000  Uiso   1.00
H1375  H     0.72786   0.90923   0.81816   0.00000  Uiso   1.00
H1376  H     0.68326   0.85815   0.84668   0.00000  Uiso   1.00
H1377  H     0.99563   0.92326   0.84759   0.00000  Uiso   1.00
H1378  H     0.80176   0.70151   0.58437   0.00000  Uiso   1.00
H1379  H     0.85270   0.96846   0.91162   0.00000  Uiso   1.00
H1380  H     0.83008   0.94207   0.85794   0.00000  Uiso   1.00
H1381  H     0.89436   0.98230   0.86016   0.00000  Uiso   1.00
H1382  H     0.96000   0.67508   0.56938   0.00000  Uiso   1.00
H1383  H     0.88730   0.98467   0.56785   0.00000  Uiso   1.00
H1384  H     0.92914   0.67084   0.51640   0.00000  Uiso   1.00
N1385  N     0.98344   0.81932   0.73783   0.00000  Uiso   1.00
N1386  N     0.68322   0.84735   0.76217   0.00000  Uiso   1.00
O1387  O     0.79642   0.91286   0.75298   0.00000  Uiso   1.00
O1388  O     0.90034   0.90870   0.88082   0.00000  Uiso   1.00
O1389  O     0.95034   0.93496   0.54190   0.00000  Uiso   1.00
O1390  O     0.70239   0.75010   0.96084   0.00000  Uiso   1.00
O1391  O     0.91093   0.67107   0.73353   0.00000  Uiso   1.00
O1392  O     0.76090   0.99552   0.78275   0.00000  Uiso   1.00
O1393  O     0.67796   0.78205   0.71359   0.00000  Uiso   1.00
O1394  O     0.98833   0.88301   0.78797   0.00000  Uiso   1.00
O1395  O     0.87025   0.75381   0.74701   0.00000  Uiso   1.00
O1396  O     0.89280   0.90387   0.74518   0.00000  Uiso   1.00
O1397  O     0.77387   0.76279   0.75481   0.00000  Uiso   1.00
O1398  O     0.78514   0.83784   0.81997   0.00000  Uiso   1.00
O1399  O     0.88153   0.82883   0.68002   0.00000  Uiso   1.00
O1400  O     0.88152   0.82885   0.81217   0.00000  Uiso   1.00
O1401  O     0.78515   0.83781   0.68782   0.00000  Uiso   1.00
O1402  O     0.76296   0.76367   0.61886   0.00000  Uiso   1.00
Zn1403 Zn    0.76898   0.83933   0.75521   0.00000  Uiso   1.00
Zn1404 Zn    0.89769   0.82734   0.74479   0.00000  Uiso   1.00
loop_
_geom_bond_atom_site_label_1
_geom_bond_atom_site_label_2
_geom_bond_distance
_geom_bond_site_symmetry_2
_ccdc_geom_bond_type
C1     C26     1.412   .     S
C1     O61     1.285   .     A
C1     O70     1.291   .     A
C2     C13     1.398   .     A
C2     C4      1.394   .     A
C2     O62     1.381   .     S
C3     C29     1.425   .     S
C3     C30     1.392   .     A
C3     C5      1.392   .     A
C4     C28     1.433   .     S
C4     C6      1.393   .     A
C5     C7      1.394   .     A
C5     F31     1.361   .     S
C6     F32     1.355   .     S
C6     C8      1.389   .     A
C7     C14     1.411   .     A
C7     C9      1.418   .     A
C8     C15     1.410   .     A
C8     C10     1.417   .     A
C9     C11     1.418   .     A
C9     C712    1.397   1_554 S
C10    C13     1.417   .     A
C10    C711    1.397   .     S
C11    C25     1.404   .     A
C11    C30     1.393   .     A
C12    O69     1.278   .     A
C12    C27     1.425   .     S
C12    O71     1.299   .     A
C13    C23     1.405   .     A
C14    O63     1.383   .     S
C14    C725    1.392   1_554 S
C15    O64     1.384   .     S
C15    C727    1.388   .     S
C16    H35     1.109   .     S
C16    H46     1.113   .     S
C16    O76     1.411   .     S
C16    H52     1.113   .     S
C17    H55     1.108   .     S
C17    O62     1.412   .     S
C17    H53     1.114   .     S
C17    H54     1.112   .     S
C18    O63     1.411   .     S
C18    H57     1.113   .     S
C18    H290    1.108   .     S
C18    H292    1.112   .     S
C19    H36     1.109   .     S
C19    H37     1.114   .     S
C19    H38     1.113   .     S
C19    O142    1.412   .     S
C20    H41     1.108   .     S
C20    H40     1.112   .     S
C20    O65     1.413   .     S
C20    H507    1.108   1_545 S
C21    H43     1.116   .     S
C21    H42     1.109   .     S
C21    H512    1.104   1_545 S
C21    O534    1.414   1_545 S
C22    H47     1.099   .     S
C22    H45     1.112   .     S
C22    H126    1.107   .     S
C22    O145    1.402   .     S
C23    F33     1.359   .     S
C23    C716    1.392   .     S
C24    H50     1.112   .     S
C24    H49     1.101   .     S
C24    H207    1.103   1_455 S
C24    O224    1.398   1_455 S
C25    F34     1.358   .     S
C25    C717    1.388   1_554 S
C26    C261    1.358   .     S
C26    O299    1.390   .     S
C27    C494    1.358   1_545 S
C27    O534    1.393   1_545 S
C28    O74     1.300   .     A
C28    O72     1.286   .     A
C29    O73     1.287   .     A
C29    O75     1.295   .     A
C30    O76     1.383   .     S
H39    C254    1.108   .     S
H44    C255    1.104   .     S
H48    C178    1.107   1_455 S
H51    C102    1.103   .     S
H56    C486    1.108   1_545 S
H58    C486    1.112   1_545 S
N59    Zn78    2.029   .     S
N59    N138    1.285   .     S
N59    O145    1.348   .     S
N60    Zn77    2.029   .     S
N60    N215    1.285   1_455 S
N60    O224    1.345   1_455 S
O61    Zn77    1.985   .     S
O64    C175    1.412   1_455 S
O65    C494    1.390   1_545 S
O66    C261    1.393   .     S
O66    C255    1.414   .     S
O67    N215    1.348   1_455 S
O67    C178    1.402   1_455 S
O68    C102    1.398   .     S
O68    N138    1.345   .     S
O69    Zn78    1.985   .     S
O70    Zn78    2.000   .     S
O71    Zn77    2.000   .     S
O72    Zn77    2.007   .     S
O73    Zn78    2.007   .     S
O74    Zn78    2.015   .     S
O75    Zn77    2.015   .     S
C79    C104    1.412   .     S
C79    O139    1.285   .     A
C79    O148    1.291   .     A
C80    C91     1.398   .     A
C80    C82     1.394   .     A
C80    O140    1.381   .     S
C81    C107    1.425   .     S
C81    C108    1.392   .     A
C81    C83     1.392   .     A
C82    C106    1.433   .     S
C82    C84     1.393   .     A
C83    C85     1.394   .     A
C83    F109    1.361   .     S
C84    F110    1.355   .     S
C84    C86     1.389   .     A
C85    C92     1.411   .     A
C85    C87     1.418   .     A
C86    C93     1.410   .     A
C86    C88     1.417   .     A
C87    C89     1.418   .     A
C87    C790    1.397   1_554 S
C88    C91     1.417   .     A
C88    C789    1.397   .     S
C89    C103    1.404   .     A
C89    C108    1.393   .     A
C90    O147    1.278   .     A
C90    C105    1.425   .     S
C90    O149    1.299   .     A
C91    C101    1.405   .     A
C92    O141    1.383   .     S
C92    C803    1.392   1_554 S
C93    O142    1.384   .     S
C93    C805    1.388   .     S
C94    H113    1.109   .     S
C94    H124    1.113   .     S
C94    O154    1.411   .     S
C94    H130    1.113   .     S
C95    H133    1.108   .     S
C95    O140    1.412   .     S
C95    H131    1.114   .     S
C95    H132    1.112   .     S
C96    O141    1.411   .     S
C96    H135    1.113   .     S
C96    H368    1.108   .     S
C96    H370    1.112   .     S
C97    H114    1.109   .     S
C97    H115    1.114   .     S
C97    H116    1.113   .     S
C97    O220    1.412   .     S
C98    H119    1.108   .     S
C98    H118    1.112   .     S
C98    O143    1.413   .     S
C98    H585    1.108   1_545 S
C99    H121    1.116   .     S
C99    H120    1.109   .     S
C99    H590    1.104   1_545 S
C99    O612    1.414   1_545 S
C100   H125    1.099   .     S
C100   H123    1.112   .     S
C100   H204    1.107   .     S
C100   O223    1.402   .     S
C101   F111    1.359   .     S
C101   C794    1.392   .     S
C102   H128    1.112   .     S
C102   H127    1.101   .     S
C103   F112    1.358   .     S
C103   C795    1.388   1_554 S
C104   C339    1.358   .     S
C104   O377    1.390   .     S
C105   C572    1.358   1_545 S
C105   O612    1.393   1_545 S
C106   O152    1.300   .     A
C106   O150    1.286   .     A
C107   O151    1.287   .     A
C107   O153    1.295   .     A
C108   O154    1.383   .     S
H117   C332    1.108   .     S
H122   C333    1.104   .     S
H129   C180    1.103   .     S
H134   C564    1.108   1_545 S
H136   C564    1.112   1_545 S
N137   Zn156   2.029   .     S
N137   N216    1.285   .     S
N137   O223    1.348   .     S
N138   Zn155   2.029   .     S
O139   Zn155   1.985   .     S
O143   C572    1.390   1_545 S
O144   C339    1.393   .     S
O144   C333    1.414   .     S
O146   C180    1.398   .     S
O146   N216    1.345   .     S
O147   Zn156   1.985   .     S
O148   Zn156   2.000   .     S
O149   Zn155   2.000   .     S
O150   Zn155   2.007   .     S
O151   Zn156   2.007   .     S
O152   Zn156   2.015   .     S
O153   Zn155   2.015   .     S
C157   C182    1.412   .     S
C157   O217    1.285   .     A
C157   O226    1.291   .     A
C158   C169    1.398   .     A
C158   C160    1.394   .     A
C158   O218    1.381   .     S
C159   C185    1.425   .     S
C159   C186    1.392   .     A
C159   C161    1.392   .     A
C160   C184    1.433   .     S
C160   C162    1.393   .     A
C161   C163    1.394   .     A
C161   F187    1.361   .     S
C162   F188    1.355   .     S
C162   C164    1.389   .     A
C163   C170    1.411   .     A
C163   C165    1.418   .     A
C164   C171    1.410   .     A
C164   C166    1.417   .     A
C165   C167    1.418   .     A
C165   C868    1.397   1_554 S
C166   C169    1.417   .     A
C166   C867    1.397   .     S
C167   C181    1.404   .     A
C167   C186    1.393   .     A
C168   O225    1.278   .     A
C168   C183    1.425   .     S
C168   O227    1.299   .     A
C169   C179    1.405   .     A
C170   O219    1.383   .     S
C170   C881    1.392   1_554 S
C171   O220    1.384   .     S
C171   C883    1.388   .     S
C172   H191    1.109   .     S
C172   H202    1.113   .     S
C172   O232    1.411   .     S
C172   H208    1.113   .     S
C173   H211    1.108   .     S
C173   O218    1.412   .     S
C173   H209    1.114   .     S
C173   H210    1.112   .     S
C174   O219    1.411   .     S
C174   H213    1.113   .     S
C174   H446    1.108   .     S
C174   H448    1.112   .     S
C175   H192    1.109   .     S
C175   H193    1.114   .     S
C175   H194    1.113   .     S
C175   O64     1.412   1_655 S
C176   H197    1.108   .     S
C176   H196    1.112   .     S
C176   O221    1.413   .     S
C176   H663    1.108   1_545 S
C177   H199    1.116   .     S
C177   H198    1.109   .     S
C177   H668    1.104   1_545 S
C177   O690    1.414   1_545 S
C178   H203    1.099   .     S
C178   H201    1.112   .     S
C178   H48     1.107   1_655 S
C178   O67     1.402   1_655 S
C179   F189    1.359   .     S
C179   C872    1.392   .     S
C180   H206    1.112   .     S
C180   H205    1.101   .     S
C181   F190    1.358   .     S
C181   C873    1.388   1_554 S
C182   C417    1.358   .     S
C182   O455    1.390   .     S
C183   C650    1.358   1_545 S
C183   O690    1.393   1_545 S
C184   O230    1.300   .     A
C184   O228    1.286   .     A
C185   O229    1.287   .     A
C185   O231    1.295   .     A
C186   O232    1.383   .     S
H195   C410    1.108   .     S
H200   C411    1.104   .     S
H207   C24     1.103   1_655 S
H212   C642    1.108   1_545 S
H214   C642    1.112   1_545 S
N215   Zn234   2.029   .     S
N215   N60     1.285   1_655 S
N215   O67     1.348   1_655 S
N216   Zn233   2.029   .     S
O217   Zn233   1.985   .     S
O221   C650    1.390   1_545 S
O222   C417    1.393   .     S
O222   C411    1.414   .     S
O224   C24     1.398   1_655 S
O224   N60     1.345   1_655 S
O225   Zn234   1.985   .     S
O226   Zn234   2.000   .     S
O227   Zn233   2.000   .     S
O228   Zn233   2.007   .     S
O229   Zn234   2.007   .     S
O230   Zn234   2.015   .     S
O231   Zn233   2.015   .     S
C235   C260    1.412   .     S
C235   O295    1.285   .     A
C235   O304    1.291   .     A
C236   C247    1.398   .     A
C236   C238    1.394   .     A
C236   O296    1.381   .     S
C237   C263    1.425   .     S
C237   C264    1.392   .     A
C237   C239    1.392   .     A
C238   C262    1.433   .     S
C238   C240    1.393   .     A
C239   C241    1.394   .     A
C239   F265    1.361   .     S
C240   F266    1.355   .     S
C240   C242    1.389   .     A
C241   C248    1.411   .     A
C241   C243    1.418   .     A
C242   C249    1.410   .     A
C242   C244    1.417   .     A
C243   C245    1.418   .     A
C243   C946    1.397   1_554 S
C244   C247    1.417   .     A
C244   C945    1.397   .     S
C245   C259    1.404   .     A
C245   C264    1.393   .     A
C246   O303    1.278   .     A
C246   C261    1.425   .     S
C246   O305    1.299   .     A
C247   C257    1.405   .     A
C248   O297    1.383   .     S
C248   C959    1.392   1_554 S
C249   O298    1.384   .     S
C249   C961    1.388   .     S
C250   H269    1.109   .     S
C250   H280    1.113   .     S
C250   O310    1.411   .     S
C250   H286    1.113   .     S
C251   H289    1.108   .     S
C251   O296    1.412   .     S
C251   H287    1.114   .     S
C251   H288    1.112   .     S
C252   O297    1.411   .     S
C252   H291    1.113   .     S
C252   H524    1.108   .     S
C252   H526    1.112   .     S
C253   H270    1.109   .     S
C253   H271    1.114   .     S
C253   H272    1.113   .     S
C253   O376    1.412   .     S
C254   H275    1.108   .     S
C254   H274    1.112   .     S
C254   O299    1.413   .     S
C255   H277    1.116   .     S
C255   H276    1.109   .     S
C256   H281    1.099   .     S
C256   H279    1.112   .     S
C256   H360    1.107   .     S
C256   O379    1.402   .     S
C257   F267    1.359   .     S
C257   C950    1.392   .     S
C258   H284    1.112   .     S
C258   H283    1.101   .     S
C258   H441    1.103   1_455 S
C258   O458    1.398   1_455 S
C259   F268    1.358   .     S
C259   C951    1.388   1_554 S
C260   C495    1.358   .     S
C260   O533    1.390   .     S
C262   O308    1.300   .     A
C262   O306    1.286   .     A
C263   O307    1.287   .     A
C263   O309    1.295   .     A
C264   O310    1.383   .     S
H273   C488    1.108   .     S
H278   C489    1.104   .     S
H282   C412    1.107   1_455 S
H285   C336    1.103   .     S
N293   Zn312   2.029   .     S
N293   N372    1.285   .     S
N293   O379    1.348   .     S
N294   Zn311   2.029   .     S
N294   N449    1.285   1_455 S
N294   O458    1.345   1_455 S
O295   Zn311   1.985   .     S
O298   C409    1.412   1_455 S
O300   C495    1.393   .     S
O300   C489    1.414   .     S
O301   N449    1.348   1_455 S
O301   C412    1.402   1_455 S
O302   C336    1.398   .     S
O302   N372    1.345   .     S
O303   Zn312   1.985   .     S
O304   Zn312   2.000   .     S
O305   Zn311   2.000   .     S
O306   Zn311   2.007   .     S
O307   Zn312   2.007   .     S
O308   Zn312   2.015   .     S
O309   Zn311   2.015   .     S
C313   C338    1.412   .     S
C313   O373    1.285   .     A
C313   O382    1.291   .     A
C314   C325    1.398   .     A
C314   C316    1.394   .     A
C314   O374    1.381   .     S
C315   C341    1.425   .     S
C315   C342    1.392   .     A
C315   C317    1.392   .     A
C316   C340    1.433   .     S
C316   C318    1.393   .     A
C317   C319    1.394   .     A
C317   F343    1.361   .     S
C318   F344    1.355   .     S
C318   C320    1.389   .     A
C319   C326    1.411   .     A
C319   C321    1.418   .     A
C320   C327    1.410   .     A
C320   C322    1.417   .     A
C321   C323    1.418   .     A
C321   C1024   1.397   1_554 S
C322   C325    1.417   .     A
C322   C1023   1.397   .     S
C323   C337    1.404   .     A
C323   C342    1.393   .     A
C324   O381    1.278   .     A
C324   C339    1.425   .     S
C324   O383    1.299   .     A
C325   C335    1.405   .     A
C326   O375    1.383   .     S
C326   C1037   1.392   1_554 S
C327   O376    1.384   .     S
C327   C1039   1.388   .     S
C328   H347    1.109   .     S
C328   H358    1.113   .     S
C328   O388    1.411   .     S
C328   H364    1.113   .     S
C329   H367    1.108   .     S
C329   O374    1.412   .     S
C329   H365    1.114   .     S
C329   H366    1.112   .     S
C330   O375    1.411   .     S
C330   H369    1.113   .     S
C330   H602    1.108   .     S
C330   H604    1.112   .     S
C331   H348    1.109   .     S
C331   H349    1.114   .     S
C331   H350    1.113   .     S
C331   O454    1.412   .     S
C332   H353    1.108   .     S
C332   H352    1.112   .     S
C332   O377    1.413   .     S
C333   H355    1.116   .     S
C333   H354    1.109   .     S
C334   H359    1.099   .     S
C334   H357    1.112   .     S
C334   H438    1.107   .     S
C334   O457    1.402   .     S
C335   F345    1.359   .     S
C335   C1028   1.392   .     S
C336   H362    1.112   .     S
C336   H361    1.101   .     S
C337   F346    1.358   .     S
C337   C1029   1.388   1_554 S
C338   C573    1.358   .     S
C338   O611    1.390   .     S
C340   O386    1.300   .     A
C340   O384    1.286   .     A
C341   O385    1.287   .     A
C341   O387    1.295   .     A
C342   O388    1.383   .     S
H351   C566    1.108   .     S
H356   C567    1.104   .     S
H363   C414    1.103   .     S
N371   Zn390   2.029   .     S
N371   N450    1.285   .     S
N371   O457    1.348   .     S
N372   Zn389   2.029   .     S
O373   Zn389   1.985   .     S
O378   C573    1.393   .     S
O378   C567    1.414   .     S
O380   C414    1.398   .     S
O380   N450    1.345   .     S
O381   Zn390   1.985   .     S
O382   Zn390   2.000   .     S
O383   Zn389   2.000   .     S
O384   Zn389   2.007   .     S
O385   Zn390   2.007   .     S
O386   Zn390   2.015   .     S
O387   Zn389   2.015   .     S
C391   C416    1.412   .     S
C391   O451    1.285   .     A
C391   O460    1.291   .     A
C392   C403    1.398   .     A
C392   C394    1.394   .     A
C392   O452    1.381   .     S
C393   C419    1.425   .     S
C393   C420    1.392   .     A
C393   C395    1.392   .     A
C394   C418    1.433   .     S
C394   C396    1.393   .     A
C395   C397    1.394   .     A
C395   F421    1.361   .     S
C396   F422    1.355   .     S
C396   C398    1.389   .     A
C397   C404    1.411   .     A
C397   C399    1.418   .     A
C398   C405    1.410   .     A
C398   C400    1.417   .     A
C399   C401    1.418   .     A
C399   C1102   1.397   1_554 S
C400   C403    1.417   .     A
C400   C1101   1.397   .     S
C401   C415    1.404   .     A
C401   C420    1.393   .     A
C402   O459    1.278   .     A
C402   C417    1.425   .     S
C402   O461    1.299   .     A
C403   C413    1.405   .     A
C404   O453    1.383   .     S
C404   C1115   1.392   1_554 S
C405   O454    1.384   .     S
C405   C1117   1.388   .     S
C406   H425    1.109   .     S
C406   H436    1.113   .     S
C406   O466    1.411   .     S
C406   H442    1.113   .     S
C407   H445    1.108   .     S
C407   O452    1.412   .     S
C407   H443    1.114   .     S
C407   H444    1.112   .     S
C408   O453    1.411   .     S
C408   H447    1.113   .     S
C408   H680    1.108   .     S
C408   H682    1.112   .     S
C409   H426    1.109   .     S
C409   H427    1.114   .     S
C409   H428    1.113   .     S
C409   O298    1.412   1_655 S
C410   H431    1.108   .     S
C410   H430    1.112   .     S
C410   O455    1.413   .     S
C411   H433    1.116   .     S
C411   H432    1.109   .     S
C412   H437    1.099   .     S
C412   H435    1.112   .     S
C412   H282    1.107   1_655 S
C412   O301    1.402   1_655 S
C413   F423    1.359   .     S
C413   C1106   1.392   .     S
C414   H440    1.112   .     S
C414   H439    1.101   .     S
C415   F424    1.358   .     S
C415   C1107   1.388   1_554 S
C416   C651    1.358   .     S
C416   O689    1.390   .     S
C418   O464    1.300   .     A
C418   O462    1.286   .     A
C419   O463    1.287   .     A
C419   O465    1.295   .     A
C420   O466    1.383   .     S
H429   C644    1.108   .     S
H434   C645    1.104   .     S
H441   C258    1.103   1_655 S
N449   Zn468   2.029   .     S
N449   N294    1.285   1_655 S
N449   O301    1.348   1_655 S
N450   Zn467   2.029   .     S
O451   Zn467   1.985   .     S
O456   C651    1.393   .     S
O456   C645    1.414   .     S
O458   C258    1.398   1_655 S
O458   N294    1.345   1_655 S
O459   Zn468   1.985   .     S
O460   Zn468   2.000   .     S
O461   Zn467   2.000   .     S
O462   Zn467   2.007   .     S
O463   Zn468   2.007   .     S
O464   Zn468   2.015   .     S
O465   Zn467   2.015   .     S
C469   C494    1.412   .     S
C469   O529    1.285   .     A
C469   O538    1.291   .     A
C470   C481    1.398   .     A
C470   C472    1.394   .     A
C470   O530    1.381   .     S
C471   C497    1.425   .     S
C471   C498    1.392   .     A
C471   C473    1.392   .     A
C472   C496    1.433   .     S
C472   C474    1.393   .     A
C473   C475    1.394   .     A
C473   F499    1.361   .     S
C474   F500    1.355   .     S
C474   C476    1.389   .     A
C475   C482    1.411   .     A
C475   C477    1.418   .     A
C476   C483    1.410   .     A
C476   C478    1.417   .     A
C477   C479    1.418   .     A
C477   C1180   1.397   1_554 S
C478   C481    1.417   .     A
C478   C1179   1.397   .     S
C479   C493    1.404   .     A
C479   C498    1.393   .     A
C480   O537    1.278   .     A
C480   C495    1.425   .     S
C480   O539    1.299   .     A
C481   C491    1.405   .     A
C482   O531    1.383   .     S
C482   C1193   1.392   1_554 S
C483   O532    1.384   .     S
C483   C1195   1.388   .     S
C484   H503    1.109   .     S
C484   H514    1.113   .     S
C484   O544    1.411   .     S
C484   H520    1.113   .     S
C485   H523    1.108   .     S
C485   O530    1.412   .     S
C485   H521    1.114   .     S
C485   H522    1.112   .     S
C486   O531    1.411   .     S
C486   H525    1.113   .     S
C486   H56     1.108   1_565 S
C486   H58     1.112   1_565 S
C487   H504    1.109   .     S
C487   H505    1.114   .     S
C487   H506    1.113   .     S
C487   O610    1.412   .     S
C488   H509    1.108   .     S
C488   H508    1.112   .     S
C488   O533    1.413   .     S
C489   H511    1.116   .     S
C489   H510    1.109   .     S
C490   H515    1.099   .     S
C490   H513    1.112   .     S
C490   H594    1.107   .     S
C490   O613    1.402   .     S
C491   F501    1.359   .     S
C491   C1184   1.392   .     S
C492   H518    1.112   .     S
C492   H517    1.101   .     S
C492   H675    1.103   1_455 S
C492   O692    1.398   1_455 S
C493   F502    1.358   .     S
C493   C1185   1.388   1_554 S
C494   C27     1.358   1_565 S
C494   O65     1.390   1_565 S
C496   O542    1.300   .     A
C496   O540    1.286   .     A
C497   O541    1.287   .     A
C497   O543    1.295   .     A
C498   O544    1.383   .     S
H507   C20     1.108   1_565 S
H512   C21     1.104   1_565 S
H516   C646    1.107   1_455 S
H519   C570    1.103   .     S
N527   Zn546   2.029   .     S
N527   N606    1.285   .     S
N527   O613    1.348   .     S
N528   Zn545   2.029   .     S
N528   N683    1.285   1_455 S
N528   O692    1.345   1_455 S
O529   Zn545   1.985   .     S
O532   C643    1.412   1_455 S
O534   C27     1.393   1_565 S
O534   C21     1.414   1_565 S
O535   N683    1.348   1_455 S
O535   C646    1.402   1_455 S
O536   C570    1.398   .     S
O536   N606    1.345   .     S
O537   Zn546   1.985   .     S
O538   Zn546   2.000   .     S
O539   Zn545   2.000   .     S
O540   Zn545   2.007   .     S
O541   Zn546   2.007   .     S
O542   Zn546   2.015   .     S
O543   Zn545   2.015   .     S
C547   C572    1.412   .     S
C547   O607    1.285   .     A
C547   O616    1.291   .     A
C548   C559    1.398   .     A
C548   C550    1.394   .     A
C548   O608    1.381   .     S
C549   C575    1.425   .     S
C549   C576    1.392   .     A
C549   C551    1.392   .     A
C550   C574    1.433   .     S
C550   C552    1.393   .     A
C551   C553    1.394   .     A
C551   F577    1.361   .     S
C552   F578    1.355   .     S
C552   C554    1.389   .     A
C553   C560    1.411   .     A
C553   C555    1.418   .     A
C554   C561    1.410   .     A
C554   C556    1.417   .     A
C555   C557    1.418   .     A
C555   C1258   1.397   1_554 S
C556   C559    1.417   .     A
C556   C1257   1.397   .     S
C557   C571    1.404   .     A
C557   C576    1.393   .     A
C558   O615    1.278   .     A
C558   C573    1.425   .     S
C558   O617    1.299   .     A
C559   C569    1.405   .     A
C560   O609    1.383   .     S
C560   C1271   1.392   1_554 S
C561   O610    1.384   .     S
C561   C1273   1.388   .     S
C562   H581    1.109   .     S
C562   H592    1.113   .     S
C562   O622    1.411   .     S
C562   H598    1.113   .     S
C563   H601    1.108   .     S
C563   O608    1.412   .     S
C563   H599    1.114   .     S
C563   H600    1.112   .     S
C564   O609    1.411   .     S
C564   H603    1.113   .     S
C564   H134    1.108   1_565 S
C564   H136    1.112   1_565 S
C565   H582    1.109   .     S
C565   H583    1.114   .     S
C565   H584    1.113   .     S
C565   O688    1.412   .     S
C566   H587    1.108   .     S
C566   H586    1.112   .     S
C566   O611    1.413   .     S
C567   H589    1.116   .     S
C567   H588    1.109   .     S
C568   H593    1.099   .     S
C568   H591    1.112   .     S
C568   H672    1.107   .     S
C568   O691    1.402   .     S
C569   F579    1.359   .     S
C569   C1262   1.392   .     S
C570   H596    1.112   .     S
C570   H595    1.101   .     S
C571   F580    1.358   .     S
C571   C1263   1.388   1_554 S
C572   C105    1.358   1_565 S
C572   O143    1.390   1_565 S
C574   O620    1.300   .     A
C574   O618    1.286   .     A
C575   O619    1.287   .     A
C575   O621    1.295   .     A
C576   O622    1.383   .     S
H585   C98     1.108   1_565 S
H590   C99     1.104   1_565 S
H597   C648    1.103   .     S
N605   Zn624   2.029   .     S
N605   N684    1.285   .     S
N605   O691    1.348   .     S
N606   Zn623   2.029   .     S
O607   Zn623   1.985   .     S
O612   C105    1.393   1_565 S
O612   C99     1.414   1_565 S
O614   C648    1.398   .     S
O614   N684    1.345   .     S
O615   Zn624   1.985   .     S
O616   Zn624   2.000   .     S
O617   Zn623   2.000   .     S
O618   Zn623   2.007   .     S
O619   Zn624   2.007   .     S
O620   Zn624   2.015   .     S
O621   Zn623   2.015   .     S
C625   C650    1.412   .     S
C625   O685    1.285   .     A
C625   O694    1.291   .     A
C626   C637    1.398   .     A
C626   C628    1.394   .     A
C626   O686    1.381   .     S
C627   C653    1.425   .     S
C627   C654    1.392   .     A
C627   C629    1.392   .     A
C628   C652    1.433   .     S
C628   C630    1.393   .     A
C629   C631    1.394   .     A
C629   F655    1.361   .     S
C630   F656    1.355   .     S
C630   C632    1.389   .     A
C631   C638    1.411   .     A
C631   C633    1.418   .     A
C632   C639    1.410   .     A
C632   C634    1.417   .     A
C633   C635    1.418   .     A
C633   C1336   1.397   1_554 S
C634   C637    1.417   .     A
C634   C1335   1.397   .     S
C635   C649    1.404   .     A
C635   C654    1.393   .     A
C636   O693    1.278   .     A
C636   C651    1.425   .     S
C636   O695    1.299   .     A
C637   C647    1.405   .     A
C638   O687    1.383   .     S
C638   C1349   1.392   1_554 S
C639   O688    1.384   .     S
C639   C1351   1.388   .     S
C640   H659    1.109   .     S
C640   H670    1.113   .     S
C640   O700    1.411   .     S
C640   H676    1.113   .     S
C641   H679    1.108   .     S
C641   O686    1.412   .     S
C641   H677    1.114   .     S
C641   H678    1.112   .     S
C642   O687    1.411   .     S
C642   H681    1.113   .     S
C642   H212    1.108   1_565 S
C642   H214    1.112   1_565 S
C643   H660    1.109   .     S
C643   H661    1.114   .     S
C643   H662    1.113   .     S
C643   O532    1.412   1_655 S
C644   H665    1.108   .     S
C644   H664    1.112   .     S
C644   O689    1.413   .     S
C645   H667    1.116   .     S
C645   H666    1.109   .     S
C646   H671    1.099   .     S
C646   H669    1.112   .     S
C646   H516    1.107   1_655 S
C646   O535    1.402   1_655 S
C647   F657    1.359   .     S
C647   C1340   1.392   .     S
C648   H674    1.112   .     S
C648   H673    1.101   .     S
C649   F658    1.358   .     S
C649   C1341   1.388   1_554 S
C650   C183    1.358   1_565 S
C650   O221    1.390   1_565 S
C652   O698    1.300   .     A
C652   O696    1.286   .     A
C653   O697    1.287   .     A
C653   O699    1.295   .     A
C654   O700    1.383   .     S
H663   C176    1.108   1_565 S
H668   C177    1.104   1_565 S
H675   C492    1.103   1_655 S
N683   Zn702   2.029   .     S
N683   N528    1.285   1_655 S
N683   O535    1.348   1_655 S
N684   Zn701   2.029   .     S
O685   Zn701   1.985   .     S
O690   C183    1.393   1_565 S
O690   C177    1.414   1_565 S
O692   C492    1.398   1_655 S
O692   N528    1.345   1_655 S
O693   Zn702   1.985   .     S
O694   Zn702   2.000   .     S
O695   Zn701   2.000   .     S
O696   Zn701   2.007   .     S
O697   Zn702   2.007   .     S
O698   Zn702   2.015   .     S
O699   Zn701   2.015   .     S
C703   C728    1.412   .     S
C703   O763    1.285   .     A
C703   O772    1.291   .     A
C704   C715    1.398   .     A
C704   C706    1.394   .     A
C704   O764    1.381   .     S
C705   C731    1.425   .     S
C705   C732    1.392   .     A
C705   C707    1.392   .     A
C706   C730    1.433   .     S
C706   C708    1.393   .     A
C707   C709    1.394   .     A
C707   F733    1.361   .     S
C708   F734    1.355   .     S
C708   C710    1.389   .     A
C709   C716    1.411   .     A
C709   C711    1.418   .     A
C710   C717    1.410   .     A
C710   C712    1.417   .     A
C711   C713    1.418   .     A
C712   C715    1.417   .     A
C712   C9      1.397   1_556 S
C713   C727    1.404   .     A
C713   C732    1.393   .     A
C714   O771    1.278   .     A
C714   C729    1.425   .     S
C714   O773    1.299   .     A
C715   C725    1.405   .     A
C716   O765    1.383   .     S
C717   O766    1.384   .     S
C717   C25     1.388   1_556 S
C718   H737    1.109   .     S
C718   H748    1.113   .     S
C718   O778    1.411   .     S
C718   H754    1.113   .     S
C719   H757    1.108   .     S
C719   O764    1.412   .     S
C719   H755    1.114   .     S
C719   H756    1.112   .     S
C720   O765    1.411   .     S
C720   H759    1.113   .     S
C720   H992    1.108   .     S
C720   H994    1.112   .     S
C721   H738    1.109   .     S
C721   H739    1.114   .     S
C721   H740    1.113   .     S
C721   O844    1.412   .     S
C722   H743    1.108   .     S
C722   H742    1.112   .     S
C722   O767    1.413   .     S
C722   H1209   1.108   1_545 S
C723   H745    1.116   .     S
C723   H744    1.109   .     S
C723   H1214   1.104   1_545 S
C723   O1236   1.414   1_545 S
C724   H749    1.099   .     S
C724   H747    1.112   .     S
C724   H828    1.107   .     S
C724   O847    1.402   .     S
C725   F735    1.359   .     S
C725   C14     1.392   1_556 S
C726   H752    1.112   .     S
C726   H751    1.101   .     S
C726   H909    1.103   1_455 S
C726   O926    1.398   1_455 S
C727   F736    1.358   .     S
C728   C963    1.358   .     S
C728   O1001   1.390   .     S
C729   C1196   1.358   1_545 S
C729   O1236   1.393   1_545 S
C730   O776    1.300   .     A
C730   O774    1.286   .     A
C731   O775    1.287   .     A
C731   O777    1.295   .     A
C732   O778    1.383   .     S
H741   C956    1.108   .     S
H746   C957    1.104   .     S
H750   C880    1.107   1_455 S
H753   C804    1.103   .     S
H758   C1188   1.108   1_545 S
H760   C1188   1.112   1_545 S
N761   Zn780   2.029   .     S
N761   N840    1.285   .     S
N761   O847    1.348   .     S
N762   Zn779   2.029   .     S
N762   N917    1.285   1_455 S
N762   O926    1.345   1_455 S
O763   Zn779   1.985   .     S
O766   C877    1.412   1_455 S
O767   C1196   1.390   1_545 S
O768   C963    1.393   .     S
O768   C957    1.414   .     S
O769   N917    1.348   1_455 S
O769   C880    1.402   1_455 S
O770   C804    1.398   .     S
O770   N840    1.345   .     S
O771   Zn780   1.985   .     S
O772   Zn780   2.000   .     S
O773   Zn779   2.000   .     S
O774   Zn779   2.007   .     S
O775   Zn780   2.007   .     S
O776   Zn780   2.015   .     S
O777   Zn779   2.015   .     S
C781   C806    1.412   .     S
C781   O841    1.285   .     A
C781   O850    1.291   .     A
C782   C793    1.398   .     A
C782   C784    1.394   .     A
C782   O842    1.381   .     S
C783   C809    1.425   .     S
C783   C810    1.392   .     A
C783   C785    1.392   .     A
C784   C808    1.433   .     S
C784   C786    1.393   .     A
C785   C787    1.394   .     A
C785   F811    1.361   .     S
C786   F812    1.355   .     S
C786   C788    1.389   .     A
C787   C794    1.411   .     A
C787   C789    1.418   .     A
C788   C795    1.410   .     A
C788   C790    1.417   .     A
C789   C791    1.418   .     A
C790   C793    1.417   .     A
C790   C87     1.397   1_556 S
C791   C805    1.404   .     A
C791   C810    1.393   .     A
C792   O849    1.278   .     A
C792   C807    1.425   .     S
C792   O851    1.299   .     A
C793   C803    1.405   .     A
C794   O843    1.383   .     S
C795   O844    1.384   .     S
C795   C103    1.388   1_556 S
C796   H815    1.109   .     S
C796   H826    1.113   .     S
C796   O856    1.411   .     S
C796   H832    1.113   .     S
C797   H835    1.108   .     S
C797   O842    1.412   .     S
C797   H833    1.114   .     S
C797   H834    1.112   .     S
C798   O843    1.411   .     S
C798   H837    1.113   .     S
C798   H1070   1.108   .     S
C798   H1072   1.112   .     S
C799   H816    1.109   .     S
C799   H817    1.114   .     S
C799   H818    1.113   .     S
C799   O922    1.412   .     S
C800   H821    1.108   .     S
C800   H820    1.112   .     S
C800   O845    1.413   .     S
C800   H1287   1.108   1_545 S
C801   H823    1.116   .     S
C801   H822    1.109   .     S
C801   H1292   1.104   1_545 S
C801   O1314   1.414   1_545 S
C802   H827    1.099   .     S
C802   H825    1.112   .     S
C802   H906    1.107   .     S
C802   O925    1.402   .     S
C803   F813    1.359   .     S
C803   C92     1.392   1_556 S
C804   H830    1.112   .     S
C804   H829    1.101   .     S
C805   F814    1.358   .     S
C806   C1041   1.358   .     S
C806   O1079   1.390   .     S
C807   C1274   1.358   1_545 S
C807   O1314   1.393   1_545 S
C808   O854    1.300   .     A
C808   O852    1.286   .     A
C809   O853    1.287   .     A
C809   O855    1.295   .     A
C810   O856    1.383   .     S
H819   C1034   1.108   .     S
H824   C1035   1.104   .     S
H831   C882    1.103   .     S
H836   C1266   1.108   1_545 S
H838   C1266   1.112   1_545 S
N839   Zn858   2.029   .     S
N839   N918    1.285   .     S
N839   O925    1.348   .     S
N840   Zn857   2.029   .     S
O841   Zn857   1.985   .     S
O845   C1274   1.390   1_545 S
O846   C1041   1.393   .     S
O846   C1035   1.414   .     S
O848   C882    1.398   .     S
O848   N918    1.345   .     S
O849   Zn858   1.985   .     S
O850   Zn858   2.000   .     S
O851   Zn857   2.000   .     S
O852   Zn857   2.007   .     S
O853   Zn858   2.007   .     S
O854   Zn858   2.015   .     S
O855   Zn857   2.015   .     S
C859   C884    1.412   .     S
C859   O919    1.285   .     A
C859   O928    1.291   .     A
C860   C871    1.398   .     A
C860   C862    1.394   .     A
C860   O920    1.381   .     S
C861   C887    1.425   .     S
C861   C888    1.392   .     A
C861   C863    1.392   .     A
C862   C886    1.433   .     S
C862   C864    1.393   .     A
C863   C865    1.394   .     A
C863   F889    1.361   .     S
C864   F890    1.355   .     S
C864   C866    1.389   .     A
C865   C872    1.411   .     A
C865   C867    1.418   .     A
C866   C873    1.410   .     A
C866   C868    1.417   .     A
C867   C869    1.418   .     A
C868   C871    1.417   .     A
C868   C165    1.397   1_556 S
C869   C883    1.404   .     A
C869   C888    1.393   .     A
C870   O927    1.278   .     A
C870   C885    1.425   .     S
C870   O929    1.299   .     A
C871   C881    1.405   .     A
C872   O921    1.383   .     S
C873   O922    1.384   .     S
C873   C181    1.388   1_556 S
C874   H893    1.109   .     S
C874   H904    1.113   .     S
C874   O934    1.411   .     S
C874   H910    1.113   .     S
C875   H913    1.108   .     S
C875   O920    1.412   .     S
C875   H911    1.114   .     S
C875   H912    1.112   .     S
C876   O921    1.411   .     S
C876   H915    1.113   .     S
C876   H1148   1.108   .     S
C876   H1150   1.112   .     S
C877   H894    1.109   .     S
C877   H895    1.114   .     S
C877   H896    1.113   .     S
C877   O766    1.412   1_655 S
C878   H899    1.108   .     S
C878   H898    1.112   .     S
C878   O923    1.413   .     S
C878   H1365   1.108   1_545 S
C879   H901    1.116   .     S
C879   H900    1.109   .     S
C879   H1370   1.104   1_545 S
C879   O1392   1.414   1_545 S
C880   H905    1.099   .     S
C880   H903    1.112   .     S
C880   H750    1.107   1_655 S
C880   O769    1.402   1_655 S
C881   F891    1.359   .     S
C881   C170    1.392   1_556 S
C882   H908    1.112   .     S
C882   H907    1.101   .     S
C883   F892    1.358   .     S
C884   C1119   1.358   .     S
C884   O1157   1.390   .     S
C885   C1352   1.358   1_545 S
C885   O1392   1.393   1_545 S
C886   O932    1.300   .     A
C886   O930    1.286   .     A
C887   O931    1.287   .     A
C887   O933    1.295   .     A
C888   O934    1.383   .     S
H897   C1112   1.108   .     S
H902   C1113   1.104   .     S
H909   C726    1.103   1_655 S
H914   C1344   1.108   1_545 S
H916   C1344   1.112   1_545 S
N917   Zn936   2.029   .     S
N917   N762    1.285   1_655 S
N917   O769    1.348   1_655 S
N918   Zn935   2.029   .     S
O919   Zn935   1.985   .     S
O923   C1352   1.390   1_545 S
O924   C1119   1.393   .     S
O924   C1113   1.414   .     S
O926   C726    1.398   1_655 S
O926   N762    1.345   1_655 S
O927   Zn936   1.985   .     S
O928   Zn936   2.000   .     S
O929   Zn935   2.000   .     S
O930   Zn935   2.007   .     S
O931   Zn936   2.007   .     S
O932   Zn936   2.015   .     S
O933   Zn935   2.015   .     S
C937   C962    1.412   .     S
C937   O997    1.285   .     A
C937   O1006   1.291   .     A
C938   C949    1.398   .     A
C938   C940    1.394   .     A
C938   O998    1.381   .     S
C939   C965    1.425   .     S
C939   C966    1.392   .     A
C939   C941    1.392   .     A
C940   C964    1.433   .     S
C940   C942    1.393   .     A
C941   C943    1.394   .     A
C941   F967    1.361   .     S
C942   F968    1.355   .     S
C942   C944    1.389   .     A
C943   C950    1.411   .     A
C943   C945    1.418   .     A
C944   C951    1.410   .     A
C944   C946    1.417   .     A
C945   C947    1.418   .     A
C946   C949    1.417   .     A
C946   C243    1.397   1_556 S
C947   C961    1.404   .     A
C947   C966    1.393   .     A
C948   O1005   1.278   .     A
C948   C963    1.425   .     S
C948   O1007   1.299   .     A
C949   C959    1.405   .     A
C950   O999    1.383   .     S
C951   O1000   1.384   .     S
C951   C259    1.388   1_556 S
C952   H971    1.109   .     S
C952   H982    1.113   .     S
C952   O1012   1.411   .     S
C952   H988    1.113   .     S
C953   H991    1.108   .     S
C953   O998    1.412   .     S
C953   H989    1.114   .     S
C953   H990    1.112   .     S
C954   O999    1.411   .     S
C954   H993    1.113   .     S
C954   H1226   1.108   .     S
C954   H1228   1.112   .     S
C955   H972    1.109   .     S
C955   H973    1.114   .     S
C955   H974    1.113   .     S
C955   O1078   1.412   .     S
C956   H977    1.108   .     S
C956   H976    1.112   .     S
C956   O1001   1.413   .     S
C957   H979    1.116   .     S
C957   H978    1.109   .     S
C958   H983    1.099   .     S
C958   H981    1.112   .     S
C958   H1062   1.107   .     S
C958   O1081   1.402   .     S
C959   F969    1.359   .     S
C959   C248    1.392   1_556 S
C960   H986    1.112   .     S
C960   H985    1.101   .     S
C960   H1143   1.103   1_455 S
C960   O1160   1.398   1_455 S
C961   F970    1.358   .     S
C962   C1197   1.358   .     S
C962   O1235   1.390   .     S
C964   O1010   1.300   .     A
C964   O1008   1.286   .     A
C965   O1009   1.287   .     A
C965   O1011   1.295   .     A
C966   O1012   1.383   .     S
H975   C1190   1.108   .     S
H980   C1191   1.104   .     S
H984   C1114   1.107   1_455 S
H987   C1038   1.103   .     S
N995   Zn1014  2.029   .     S
N995   N1074   1.285   .     S
N995   O1081   1.348   .     S
N996   Zn1013  2.029   .     S
N996   N1151   1.285   1_455 S
N996   O1160   1.345   1_455 S
O997   Zn1013  1.985   .     S
O1000  C1111   1.412   1_455 S
O1002  C1197   1.393   .     S
O1002  C1191   1.414   .     S
O1003  N1151   1.348   1_455 S
O1003  C1114   1.402   1_455 S
O1004  C1038   1.398   .     S
O1004  N1074   1.345   .     S
O1005  Zn1014  1.985   .     S
O1006  Zn1014  2.000   .     S
O1007  Zn1013  2.000   .     S
O1008  Zn1013  2.007   .     S
O1009  Zn1014  2.007   .     S
O1010  Zn1014  2.015   .     S
O1011  Zn1013  2.015   .     S
C1015  C1040   1.412   .     S
C1015  O1075   1.285   .     A
C1015  O1084   1.291   .     A
C1016  C1027   1.398   .     A
C1016  C1018   1.394   .     A
C1016  O1076   1.381   .     S
C1017  C1043   1.425   .     S
C1017  C1044   1.392   .     A
C1017  C1019   1.392   .     A
C1018  C1042   1.433   .     S
C1018  C1020   1.393   .     A
C1019  C1021   1.394   .     A
C1019  F1045   1.361   .     S
C1020  F1046   1.355   .     S
C1020  C1022   1.389   .     A
C1021  C1028   1.411   .     A
C1021  C1023   1.418   .     A
C1022  C1029   1.410   .     A
C1022  C1024   1.417   .     A
C1023  C1025   1.418   .     A
C1024  C1027   1.417   .     A
C1024  C321    1.397   1_556 S
C1025  C1039   1.404   .     A
C1025  C1044   1.393   .     A
C1026  O1083   1.278   .     A
C1026  C1041   1.425   .     S
C1026  O1085   1.299   .     A
C1027  C1037   1.405   .     A
C1028  O1077   1.383   .     S
C1029  O1078   1.384   .     S
C1029  C337    1.388   1_556 S
C1030  H1049   1.109   .     S
C1030  H1060   1.113   .     S
C1030  O1090   1.411   .     S
C1030  H1066   1.113   .     S
C1031  H1069   1.108   .     S
C1031  O1076   1.412   .     S
C1031  H1067   1.114   .     S
C1031  H1068   1.112   .     S
C1032  O1077   1.411   .     S
C1032  H1071   1.113   .     S
C1032  H1304   1.108   .     S
C1032  H1306   1.112   .     S
C1033  H1050   1.109   .     S
C1033  H1051   1.114   .     S
C1033  H1052   1.113   .     S
C1033  O1156   1.412   .     S
C1034  H1055   1.108   .     S
C1034  H1054   1.112   .     S
C1034  O1079   1.413   .     S
C1035  H1057   1.116   .     S
C1035  H1056   1.109   .     S
C1036  H1061   1.099   .     S
C1036  H1059   1.112   .     S
C1036  H1140   1.107   .     S
C1036  O1159   1.402   .     S
C1037  F1047   1.359   .     S
C1037  C326    1.392   1_556 S
C1038  H1064   1.112   .     S
C1038  H1063   1.101   .     S
C1039  F1048   1.358   .     S
C1040  C1275   1.358   .     S
C1040  O1313   1.390   .     S
C1042  O1088   1.300   .     A
C1042  O1086   1.286   .     A
C1043  O1087   1.287   .     A
C1043  O1089   1.295   .     A
C1044  O1090   1.383   .     S
H1053  C1268   1.108   .     S
H1058  C1269   1.104   .     S
H1065  C1116   1.103   .     S
N1073  Zn1092  2.029   .     S
N1073  N1152   1.285   .     S
N1073  O1159   1.348   .     S
N1074  Zn1091  2.029   .     S
O1075  Zn1091  1.985   .     S
O1080  C1275   1.393   .     S
O1080  C1269   1.414   .     S
O1082  C1116   1.398   .     S
O1082  N1152   1.345   .     S
O1083  Zn1092  1.985   .     S
O1084  Zn1092  2.000   .     S
O1085  Zn1091  2.000   .     S
O1086  Zn1091  2.007   .     S
O1087  Zn1092  2.007   .     S
O1088  Zn1092  2.015   .     S
O1089  Zn1091  2.015   .     S
C1093  C1118   1.412   .     S
C1093  O1153   1.285   .     A
C1093  O1162   1.291   .     A
C1094  C1105   1.398   .     A
C1094  C1096   1.394   .     A
C1094  O1154   1.381   .     S
C1095  C1121   1.425   .     S
C1095  C1122   1.392   .     A
C1095  C1097   1.392   .     A
C1096  C1120   1.433   .     S
C1096  C1098   1.393   .     A
C1097  C1099   1.394   .     A
C1097  F1123   1.361   .     S
C1098  F1124   1.355   .     S
C1098  C1100   1.389   .     A
C1099  C1106   1.411   .     A
C1099  C1101   1.418   .     A
C1100  C1107   1.410   .     A
C1100  C1102   1.417   .     A
C1101  C1103   1.418   .     A
C1102  C1105   1.417   .     A
C1102  C399    1.397   1_556 S
C1103  C1117   1.404   .     A
C1103  C1122   1.393   .     A
C1104  O1161   1.278   .     A
C1104  C1119   1.425   .     S
C1104  O1163   1.299   .     A
C1105  C1115   1.405   .     A
C1106  O1155   1.383   .     S
C1107  O1156   1.384   .     S
C1107  C415    1.388   1_556 S
C1108  H1127   1.109   .     S
C1108  H1138   1.113   .     S
C1108  O1168   1.411   .     S
C1108  H1144   1.113   .     S
C1109  H1147   1.108   .     S
C1109  O1154   1.412   .     S
C1109  H1145   1.114   .     S
C1109  H1146   1.112   .     S
C1110  O1155   1.411   .     S
C1110  H1149   1.113   .     S
C1110  H1382   1.108   .     S
C1110  H1384   1.112   .     S
C1111  H1128   1.109   .     S
C1111  H1129   1.114   .     S
C1111  H1130   1.113   .     S
C1111  O1000   1.412   1_655 S
C1112  H1133   1.108   .     S
C1112  H1132   1.112   .     S
C1112  O1157   1.413   .     S
C1113  H1135   1.116   .     S
C1113  H1134   1.109   .     S
C1114  H1139   1.099   .     S
C1114  H1137   1.112   .     S
C1114  H984    1.107   1_655 S
C1114  O1003   1.402   1_655 S
C1115  F1125   1.359   .     S
C1115  C404    1.392   1_556 S
C1116  H1142   1.112   .     S
C1116  H1141   1.101   .     S
C1117  F1126   1.358   .     S
C1118  C1353   1.358   .     S
C1118  O1391   1.390   .     S
C1120  O1166   1.300   .     A
C1120  O1164   1.286   .     A
C1121  O1165   1.287   .     A
C1121  O1167   1.295   .     A
C1122  O1168   1.383   .     S
H1131  C1346   1.108   .     S
H1136  C1347   1.104   .     S
H1143  C960    1.103   1_655 S
N1151  Zn1170  2.029   .     S
N1151  N996    1.285   1_655 S
N1151  O1003   1.348   1_655 S
N1152  Zn1169  2.029   .     S
O1153  Zn1169  1.985   .     S
O1158  C1353   1.393   .     S
O1158  C1347   1.414   .     S
O1160  C960    1.398   1_655 S
O1160  N996    1.345   1_655 S
O1161  Zn1170  1.985   .     S
O1162  Zn1170  2.000   .     S
O1163  Zn1169  2.000   .     S
O1164  Zn1169  2.007   .     S
O1165  Zn1170  2.007   .     S
O1166  Zn1170  2.015   .     S
O1167  Zn1169  2.015   .     S
C1171  C1196   1.412   .     S
C1171  O1231   1.285   .     A
C1171  O1240   1.291   .     A
C1172  C1183   1.398   .     A
C1172  C1174   1.394   .     A
C1172  O1232   1.381   .     S
C1173  C1199   1.425   .     S
C1173  C1200   1.392   .     A
C1173  C1175   1.392   .     A
C1174  C1198   1.433   .     S
C1174  C1176   1.393   .     A
C1175  C1177   1.394   .     A
C1175  F1201   1.361   .     S
C1176  F1202   1.355   .     S
C1176  C1178   1.389   .     A
C1177  C1184   1.411   .     A
C1177  C1179   1.418   .     A
C1178  C1185   1.410   .     A
C1178  C1180   1.417   .     A
C1179  C1181   1.418   .     A
C1180  C1183   1.417   .     A
C1180  C477    1.397   1_556 S
C1181  C1195   1.404   .     A
C1181  C1200   1.393   .     A
C1182  O1239   1.278   .     A
C1182  C1197   1.425   .     S
C1182  O1241   1.299   .     A
C1183  C1193   1.405   .     A
C1184  O1233   1.383   .     S
C1185  O1234   1.384   .     S
C1185  C493    1.388   1_556 S
C1186  H1205   1.109   .     S
C1186  H1216   1.113   .     S
C1186  O1246   1.411   .     S
C1186  H1222   1.113   .     S
C1187  H1225   1.108   .     S
C1187  O1232   1.412   .     S
C1187  H1223   1.114   .     S
C1187  H1224   1.112   .     S
C1188  O1233   1.411   .     S
C1188  H1227   1.113   .     S
C1188  H758    1.108   1_565 S
C1188  H760    1.112   1_565 S
C1189  H1206   1.109   .     S
C1189  H1207   1.114   .     S
C1189  H1208   1.113   .     S
C1189  O1312   1.412   .     S
C1190  H1211   1.108   .     S
C1190  H1210   1.112   .     S
C1190  O1235   1.413   .     S
C1191  H1213   1.116   .     S
C1191  H1212   1.109   .     S
C1192  H1217   1.099   .     S
C1192  H1215   1.112   .     S
C1192  H1296   1.107   .     S
C1192  O1315   1.402   .     S
C1193  F1203   1.359   .     S
C1193  C482    1.392   1_556 S
C1194  H1220   1.112   .     S
C1194  H1219   1.101   .     S
C1194  H1377   1.103   1_455 S
C1194  O1394   1.398   1_455 S
C1195  F1204   1.358   .     S
C1196  C729    1.358   1_565 S
C1196  O767    1.390   1_565 S
C1198  O1244   1.300   .     A
C1198  O1242   1.286   .     A
C1199  O1243   1.287   .     A
C1199  O1245   1.295   .     A
C1200  O1246   1.383   .     S
H1209  C722    1.108   1_565 S
H1214  C723    1.104   1_565 S
H1218  C1348   1.107   1_455 S
H1221  C1272   1.103   .     S
N1229  Zn1248  2.029   .     S
N1229  N1308   1.285   .     S
N1229  O1315   1.348   .     S
N1230  Zn1247  2.029   .     S
N1230  N1385   1.285   1_455 S
N1230  O1394   1.345   1_455 S
O1231  Zn1247  1.985   .     S
O1234  C1345   1.412   1_455 S
O1236  C729    1.393   1_565 S
O1236  C723    1.414   1_565 S
O1237  N1385   1.348   1_455 S
O1237  C1348   1.402   1_455 S
O1238  C1272   1.398   .     S
O1238  N1308   1.345   .     S
O1239  Zn1248  1.985   .     S
O1240  Zn1248  2.000   .     S
O1241  Zn1247  2.000   .     S
O1242  Zn1247  2.007   .     S
O1243  Zn1248  2.007   .     S
O1244  Zn1248  2.015   .     S
O1245  Zn1247  2.015   .     S
C1249  C1274   1.412   .     S
C1249  O1309   1.285   .     A
C1249  O1318   1.291   .     A
C1250  C1261   1.398   .     A
C1250  C1252   1.394   .     A
C1250  O1310   1.381   .     S
C1251  C1277   1.425   .     S
C1251  C1278   1.392   .     A
C1251  C1253   1.392   .     A
C1252  C1276   1.433   .     S
C1252  C1254   1.393   .     A
C1253  C1255   1.394   .     A
C1253  F1279   1.361   .     S
C1254  F1280   1.355   .     S
C1254  C1256   1.389   .     A
C1255  C1262   1.411   .     A
C1255  C1257   1.418   .     A
C1256  C1263   1.410   .     A
C1256  C1258   1.417   .     A
C1257  C1259   1.418   .     A
C1258  C1261   1.417   .     A
C1258  C555    1.397   1_556 S
C1259  C1273   1.404   .     A
C1259  C1278   1.393   .     A
C1260  O1317   1.278   .     A
C1260  C1275   1.425   .     S
C1260  O1319   1.299   .     A
C1261  C1271   1.405   .     A
C1262  O1311   1.383   .     S
C1263  O1312   1.384   .     S
C1263  C571    1.388   1_556 S
C1264  H1283   1.109   .     S
C1264  H1294   1.113   .     S
C1264  O1324   1.411   .     S
C1264  H1300   1.113   .     S
C1265  H1303   1.108   .     S
C1265  O1310   1.412   .     S
C1265  H1301   1.114   .     S
C1265  H1302   1.112   .     S
C1266  O1311   1.411   .     S
C1266  H1305   1.113   .     S
C1266  H836    1.108   1_565 S
C1266  H838    1.112   1_565 S
C1267  H1284   1.109   .     S
C1267  H1285   1.114   .     S
C1267  H1286   1.113   .     S
C1267  O1390   1.412   .     S
C1268  H1289   1.108   .     S
C1268  H1288   1.112   .     S
C1268  O1313   1.413   .     S
C1269  H1291   1.116   .     S
C1269  H1290   1.109   .     S
C1270  H1295   1.099   .     S
C1270  H1293   1.112   .     S
C1270  H1374   1.107   .     S
C1270  O1393   1.402   .     S
C1271  F1281   1.359   .     S
C1271  C560    1.392   1_556 S
C1272  H1298   1.112   .     S
C1272  H1297   1.101   .     S
C1273  F1282   1.358   .     S
C1274  C807    1.358   1_565 S
C1274  O845    1.390   1_565 S
C1276  O1322   1.300   .     A
C1276  O1320   1.286   .     A
C1277  O1321   1.287   .     A
C1277  O1323   1.295   .     A
C1278  O1324   1.383   .     S
H1287  C800    1.108   1_565 S
H1292  C801    1.104   1_565 S
H1299  C1350   1.103   .     S
N1307  Zn1326  2.029   .     S
N1307  N1386   1.285   .     S
N1307  O1393   1.348   .     S
N1308  Zn1325  2.029   .     S
O1309  Zn1325  1.985   .     S
O1314  C807    1.393   1_565 S
O1314  C801    1.414   1_565 S
O1316  C1350   1.398   .     S
O1316  N1386   1.345   .     S
O1317  Zn1326  1.985   .     S
O1318  Zn1326  2.000   .     S
O1319  Zn1325  2.000   .     S
O1320  Zn1325  2.007   .     S
O1321  Zn1326  2.007   .     S
O1322  Zn1326  2.015   .     S
O1323  Zn1325  2.015   .     S
C1327  C1352   1.412   .     S
C1327  O1387   1.285   .     A
C1327  O1396   1.291   .     A
C1328  C1339   1.398   .     A
C1328  C1330   1.394   .     A
C1328  O1388   1.381   .     S
C1329  C1355   1.425   .     S
C1329  C1356   1.392   .     A
C1329  C1331   1.392   .     A
C1330  C1354   1.433   .     S
C1330  C1332   1.393   .     A
C1331  C1333   1.394   .     A
C1331  F1357   1.361   .     S
C1332  F1358   1.355   .     S
C1332  C1334   1.389   .     A
C1333  C1340   1.411   .     A
C1333  C1335   1.418   .     A
C1334  C1341   1.410   .     A
C1334  C1336   1.417   .     A
C1335  C1337   1.418   .     A
C1336  C1339   1.417   .     A
C1336  C633    1.397   1_556 S
C1337  C1351   1.404   .     A
C1337  C1356   1.393   .     A
C1338  O1395   1.278   .     A
C1338  C1353   1.425   .     S
C1338  O1397   1.299   .     A
C1339  C1349   1.405   .     A
C1340  O1389   1.383   .     S
C1341  O1390   1.384   .     S
C1341  C649    1.388   1_556 S
C1342  H1361   1.109   .     S
C1342  H1372   1.113   .     S
C1342  O1402   1.411   .     S
C1342  H1378   1.113   .     S
C1343  H1381   1.108   .     S
C1343  O1388   1.412   .     S
C1343  H1379   1.114   .     S
C1343  H1380   1.112   .     S
C1344  O1389   1.411   .     S
C1344  H1383   1.113   .     S
C1344  H914    1.108   1_565 S
C1344  H916    1.112   1_565 S
C1345  H1362   1.109   .     S
C1345  H1363   1.114   .     S
C1345  H1364   1.113   .     S
C1345  O1234   1.412   1_655 S
C1346  H1367   1.108   .     S
C1346  H1366   1.112   .     S
C1346  O1391   1.413   .     S
C1347  H1369   1.116   .     S
C1347  H1368   1.109   .     S
C1348  H1373   1.099   .     S
C1348  H1371   1.112   .     S
C1348  H1218   1.107   1_655 S
C1348  O1237   1.402   1_655 S
C1349  F1359   1.359   .     S
C1349  C638    1.392   1_556 S
C1350  H1376   1.112   .     S
C1350  H1375   1.101   .     S
C1351  F1360   1.358   .     S
C1352  C885    1.358   1_565 S
C1352  O923    1.390   1_565 S
C1354  O1400   1.300   .     A
C1354  O1398   1.286   .     A
C1355  O1399   1.287   .     A
C1355  O1401   1.295   .     A
C1356  O1402   1.383   .     S
H1365  C878    1.108   1_565 S
H1370  C879    1.104   1_565 S
H1377  C1194   1.103   1_655 S
N1385  Zn1404  2.029   .     S
N1385  N1230   1.285   1_655 S
N1385  O1237   1.348   1_655 S
N1386  Zn1403  2.029   .     S
O1387  Zn1403  1.985   .     S
O1392  C885    1.393   1_565 S
O1392  C879    1.414   1_565 S
O1394  C1194   1.398   1_655 S
O1394  N1230   1.345   1_655 S
O1395  Zn1404  1.985   .     S
O1396  Zn1404  2.000   .     S
O1397  Zn1403  2.000   .     S
O1398  Zn1403  2.007   .     S
O1399  Zn1404  2.007   .     S
O1400  Zn1404  2.015   .     S
O1401  Zn1403  2.015   .     S
