data_str_m1_o1_o17_pcu_sym.20
_audit_creation_date              2020-01-03
_audit_creation_method            'Materials Studio'
_symmetry_space_group_name_H-M    'P1'
_symmetry_Int_Tables_number       1
_symmetry_cell_setting            triclinic
loop_
_symmetry_equiv_pos_as_xyz
  x,y,z
_cell_length_a                    36.6863
_cell_length_b                    36.6863
_cell_length_c                    34.3344
_cell_angle_alpha                 90.0001
_cell_angle_beta                  90.0001
_cell_angle_gamma                 90.0000
loop_
_atom_site_label
_atom_site_type_symbol
_atom_site_fract_x
_atom_site_fract_y
_atom_site_fract_z
_atom_site_U_iso_or_equiv
_atom_site_adp_type
_atom_site_occupancy
Br1    Br    0.01650   0.13818   0.45555   0.00000  Uiso   1.00
Br2    Br    0.23354   0.11183   0.04445   0.00000  Uiso   1.00
Br3    Br    0.11182   0.26651   0.95555   0.00000  Uiso   1.00
Br4    Br    0.38817   0.26646   0.04445   0.00000  Uiso   1.00
Br5    Br    0.26650   0.11182   0.95555   0.00000  Uiso   1.00
Br6    Br    0.26646   0.38817   0.04445   0.00000  Uiso   1.00
Br7    Br    0.38818   0.23350   0.95555   0.00000  Uiso   1.00
Br8    Br    0.11183   0.23354   0.04445   0.00000  Uiso   1.00
Br9    Br    0.02940   0.32204   0.38929   0.00000  Uiso   1.00
Br10   Br    0.02943   0.17796   0.61071   0.00000  Uiso   1.00
Br11   Br    0.17796   0.47060   0.38929   0.00000  Uiso   1.00
Br12   Br    0.01647   0.36183   0.54445   0.00000  Uiso   1.00
Br13   Br    0.32204   0.47058   0.61071   0.00000  Uiso   1.00
Br14   Br    0.47059   0.17796   0.38929   0.00000  Uiso   1.00
Br15   Br    0.47057   0.32204   0.61071   0.00000  Uiso   1.00
Br16   Br    0.32204   0.02941   0.38929   0.00000  Uiso   1.00
Br17   Br    0.17796   0.02943   0.61071   0.00000  Uiso   1.00
Br18   Br    0.22060   0.07205   0.88929   0.00000  Uiso   1.00
Br19   Br    0.22057   0.42797   0.11071   0.00000  Uiso   1.00
Br20   Br    0.42796   0.27940   0.88929   0.00000  Uiso   1.00
Br21   Br    0.07203   0.27943   0.11071   0.00000  Uiso   1.00
Br22   Br    0.27940   0.42796   0.88929   0.00000  Uiso   1.00
Br23   Br    0.36182   0.48350   0.45555   0.00000  Uiso   1.00
Br24   Br    0.27943   0.07203   0.11071   0.00000  Uiso   1.00
Br25   Br    0.07204   0.22060   0.88929   0.00000  Uiso   1.00
Br26   Br    0.42797   0.22057   0.11071   0.00000  Uiso   1.00
Br27   Br    0.13817   0.48353   0.54445   0.00000  Uiso   1.00
Br28   Br    0.48350   0.36182   0.45555   0.00000  Uiso   1.00
Br29   Br    0.48353   0.13817   0.54445   0.00000  Uiso   1.00
Br30   Br    0.13818   0.01650   0.45555   0.00000  Uiso   1.00
Br31   Br    0.36183   0.01647   0.54445   0.00000  Uiso   1.00
Br32   Br    0.23350   0.38818   0.95555   0.00000  Uiso   1.00
C33    C     0.00688   0.28250   0.41809   0.00000  Uiso   1.00
C34    C     0.24311   0.46750   0.08191   0.00000  Uiso   1.00
C35    C     0.21641   0.00159   0.54120   0.00000  Uiso   1.00
C36    C     0.00158   0.28359   0.45880   0.00000  Uiso   1.00
C37    C     0.00159   0.21641   0.54120   0.00000  Uiso   1.00
C38    C     0.21641   0.49842   0.45880   0.00000  Uiso   1.00
C39    C     0.28359   0.49841   0.54120   0.00000  Uiso   1.00
C40    C     0.25158   0.46641   0.95880   0.00000  Uiso   1.00
C41    C     0.25160   0.03359   0.04120   0.00000  Uiso   1.00
C42    C     0.03359   0.24842   0.95880   0.00000  Uiso   1.00
C43    C     0.46641   0.24840   0.04120   0.00000  Uiso   1.00
C44    C     0.24842   0.03359   0.95880   0.00000  Uiso   1.00
C45    C     0.46750   0.25688   0.91809   0.00000  Uiso   1.00
C46    C     0.24840   0.46641   0.04120   0.00000  Uiso   1.00
C47    C     0.46641   0.25158   0.95880   0.00000  Uiso   1.00
C48    C     0.03359   0.25160   0.04120   0.00000  Uiso   1.00
C49    C     0.09814   0.34814   0.25000   0.00000  Uiso   1.00
C50    C     0.40186   0.15186   0.75000   0.00000  Uiso   1.00
C51    C     0.15186   0.09814   0.25000   0.00000  Uiso   1.00
C52    C     0.34814   0.40186   0.75000   0.00000  Uiso   1.00
C53    C     0.40186   0.15186   0.25000   0.00000  Uiso   1.00
C54    C     0.09814   0.34814   0.75000   0.00000  Uiso   1.00
C55    C     0.34814   0.40186   0.25000   0.00000  Uiso   1.00
C56    C     0.03250   0.25689   0.08191   0.00000  Uiso   1.00
C57    C     0.15186   0.09814   0.75000   0.00000  Uiso   1.00
C58    C     0.09814   0.15186   0.75000   0.00000  Uiso   1.00
C59    C     0.40186   0.34814   0.25000   0.00000  Uiso   1.00
C60    C     0.15186   0.40186   0.75000   0.00000  Uiso   1.00
C61    C     0.34814   0.09814   0.25000   0.00000  Uiso   1.00
C62    C     0.40186   0.34814   0.75000   0.00000  Uiso   1.00
C63    C     0.09814   0.15186   0.25000   0.00000  Uiso   1.00
C64    C     0.34814   0.09814   0.75000   0.00000  Uiso   1.00
C65    C     0.15186   0.40186   0.25000   0.00000  Uiso   1.00
C66    C    -0.00000   0.25000   0.47942   0.00000  Uiso   1.00
C67    C     0.25688   0.46750   0.91809   0.00000  Uiso   1.00
C68    C    -0.00000   0.25000   0.52058   0.00000  Uiso   1.00
C69    C     0.25000   0.00000   0.47942   0.00000  Uiso   1.00
C70    C     0.25000   0.00000   0.52058   0.00000  Uiso   1.00
C71    C     0.25000   0.00000   0.97942   0.00000  Uiso   1.00
C72    C     0.25000   0.00000   0.02058   0.00000  Uiso   1.00
C73    C    -0.00000   0.25000   0.97942   0.00000  Uiso   1.00
C74    C    -0.00000   0.25000   0.02058   0.00000  Uiso   1.00
C75    C     0.25689   0.03250   0.08191   0.00000  Uiso   1.00
C76    C     0.03250   0.24312   0.91809   0.00000  Uiso   1.00
C77    C     0.46750   0.24311   0.08191   0.00000  Uiso   1.00
C78    C     0.00000   0.25000   0.39807   0.00000  Uiso   1.00
C79    C    -0.00000   0.25000   0.60193   0.00000  Uiso   1.00
C80    C     0.25000   0.00000   0.39807   0.00000  Uiso   1.00
C81    C     0.00689   0.21750   0.58191   0.00000  Uiso   1.00
C82    C     0.25000   0.00000   0.60193   0.00000  Uiso   1.00
C83    C     0.25000   0.00000   0.89807   0.00000  Uiso   1.00
C84    C     0.25000   0.00000   0.10193   0.00000  Uiso   1.00
C85    C     0.00000   0.25000   0.89807   0.00000  Uiso   1.00
C86    C    -0.00000   0.25000   0.10193   0.00000  Uiso   1.00
C87    C     0.00092   0.18327   0.47967   0.00000  Uiso   1.00
C88    C     0.00091   0.31673   0.52033   0.00000  Uiso   1.00
C89    C     0.31673   0.49908   0.47967   0.00000  Uiso   1.00
C90    C     0.18327   0.49909   0.52033   0.00000  Uiso   1.00
C91    C     0.49907   0.31673   0.47967   0.00000  Uiso   1.00
C92    C     0.21750   0.49312   0.41808   0.00000  Uiso   1.00
C93    C     0.49909   0.18327   0.52033   0.00000  Uiso   1.00
C94    C     0.18327   0.00093   0.47967   0.00000  Uiso   1.00
C95    C     0.31673   0.00091   0.52033   0.00000  Uiso   1.00
C96    C     0.24907   0.43327   0.97967   0.00000  Uiso   1.00
C97    C     0.24910   0.06673   0.02033   0.00000  Uiso   1.00
C98    C     0.06673   0.25093   0.97967   0.00000  Uiso   1.00
C99    C     0.43327   0.25090   0.02033   0.00000  Uiso   1.00
C100   C     0.25093   0.06673   0.97967   0.00000  Uiso   1.00
C101   C     0.25090   0.43327   0.02033   0.00000  Uiso   1.00
C102   C     0.43327   0.24907   0.97967   0.00000  Uiso   1.00
C103   C     0.28250   0.49311   0.58191   0.00000  Uiso   1.00
C104   C     0.06673   0.24910   0.02033   0.00000  Uiso   1.00
C105   C     0.25000   0.00000   0.35577   0.00000  Uiso   1.00
C106   C     0.25000   0.00000   0.64423   0.00000  Uiso   1.00
C107   C     0.00000   0.25000   0.35577   0.00000  Uiso   1.00
C108   C    -0.00000   0.25000   0.64423   0.00000  Uiso   1.00
C109   C     0.00000   0.25000   0.85577   0.00000  Uiso   1.00
C110   C    -0.00000   0.25000   0.14423   0.00000  Uiso   1.00
C111   C     0.25000   0.00000   0.85577   0.00000  Uiso   1.00
C112   C     0.25000   0.00000   0.14423   0.00000  Uiso   1.00
C113   C     0.17993   0.07007   0.25000   0.00000  Uiso   1.00
C114   C     0.49312   0.21750   0.41808   0.00000  Uiso   1.00
C115   C     0.32007   0.42993   0.75000   0.00000  Uiso   1.00
C116   C     0.42993   0.17993   0.25000   0.00000  Uiso   1.00
C117   C     0.07007   0.32007   0.75000   0.00000  Uiso   1.00
C118   C     0.32007   0.42993   0.25000   0.00000  Uiso   1.00
C119   C     0.17993   0.07007   0.75000   0.00000  Uiso   1.00
C120   C     0.07007   0.32007   0.25000   0.00000  Uiso   1.00
C121   C     0.42993   0.17993   0.75000   0.00000  Uiso   1.00
C122   C     0.17993   0.42993   0.75000   0.00000  Uiso   1.00
C123   C     0.32007   0.07007   0.25000   0.00000  Uiso   1.00
C124   C     0.42993   0.32007   0.75000   0.00000  Uiso   1.00
C125   C     0.49311   0.28250   0.58191   0.00000  Uiso   1.00
C126   C     0.07007   0.17993   0.25000   0.00000  Uiso   1.00
C127   C     0.32007   0.07007   0.75000   0.00000  Uiso   1.00
C128   C     0.17993   0.42993   0.25000   0.00000  Uiso   1.00
C129   C     0.07007   0.17993   0.75000   0.00000  Uiso   1.00
C130   C     0.42993   0.32007   0.25000   0.00000  Uiso   1.00
C131   C     0.12244   0.40429   0.22408   0.00000  Uiso   1.00
C132   C     0.37804   0.09524   0.77522   0.00000  Uiso   1.00
C133   C     0.09524   0.12196   0.22477   0.00000  Uiso   1.00
C134   C     0.40428   0.37756   0.77592   0.00000  Uiso   1.00
C135   C     0.37756   0.09572   0.22408   0.00000  Uiso   1.00
C136   C     0.28250   0.00688   0.41809   0.00000  Uiso   1.00
C137   C     0.12196   0.40476   0.77522   0.00000  Uiso   1.00
C138   C     0.40476   0.37804   0.22478   0.00000  Uiso   1.00
C139   C     0.09571   0.12244   0.77592   0.00000  Uiso   1.00
C140   C     0.12244   0.09572   0.77592   0.00000  Uiso   1.00
C141   C     0.37804   0.40476   0.22478   0.00000  Uiso   1.00
C142   C     0.09524   0.37804   0.77522   0.00000  Uiso   1.00
C143   C     0.40428   0.12244   0.22408   0.00000  Uiso   1.00
C144   C     0.37756   0.40429   0.77592   0.00000  Uiso   1.00
C145   C     0.12196   0.09524   0.22477   0.00000  Uiso   1.00
C146   C     0.40476   0.12196   0.77522   0.00000  Uiso   1.00
C147   C     0.21750   0.00689   0.58191   0.00000  Uiso   1.00
C148   C     0.09571   0.37756   0.22408   0.00000  Uiso   1.00
C149   C     0.37196   0.15476   0.72478   0.00000  Uiso   1.00
C150   C     0.12756   0.34572   0.27592   0.00000  Uiso   1.00
C151   C     0.34571   0.37244   0.72408   0.00000  Uiso   1.00
C152   C     0.15476   0.12804   0.27522   0.00000  Uiso   1.00
C153   C     0.12804   0.34524   0.72478   0.00000  Uiso   1.00
C154   C     0.37244   0.15429   0.27592   0.00000  Uiso   1.00
C155   C     0.15428   0.12756   0.72408   0.00000  Uiso   1.00
C156   C     0.34524   0.37196   0.27522   0.00000  Uiso   1.00
C157   C     0.37196   0.34524   0.27522   0.00000  Uiso   1.00
C158   C     0.24312   0.03250   0.91809   0.00000  Uiso   1.00
C159   C     0.12756   0.15429   0.72408   0.00000  Uiso   1.00
C160   C     0.34571   0.12756   0.27592   0.00000  Uiso   1.00
C161   C     0.15476   0.37196   0.72478   0.00000  Uiso   1.00
C162   C     0.12804   0.15476   0.27522   0.00000  Uiso   1.00
C163   C     0.37244   0.34572   0.72408   0.00000  Uiso   1.00
C164   C     0.15428   0.37244   0.27592   0.00000  Uiso   1.00
C165   C     0.34524   0.12804   0.72478   0.00000  Uiso   1.00
C166   C     0.49842   0.21641   0.45880   0.00000  Uiso   1.00
C167   C     0.49841   0.28359   0.54120   0.00000  Uiso   1.00
C168   C     0.28359   0.00158   0.45880   0.00000  Uiso   1.00
H169   H     0.12005   0.42676   0.20378   0.00000  Uiso   1.00
H170   H     0.38083   0.42763   0.20504   0.00000  Uiso   1.00
H171   H     0.07237   0.38083   0.79496   0.00000  Uiso   1.00
H172   H     0.42676   0.12005   0.20378   0.00000  Uiso   1.00
H173   H     0.37995   0.42676   0.79622   0.00000  Uiso   1.00
H174   H     0.11917   0.07237   0.20504   0.00000  Uiso   1.00
H175   H     0.42763   0.11917   0.79496   0.00000  Uiso   1.00
H176   H     0.07324   0.37995   0.20378   0.00000  Uiso   1.00
H177   H     0.36917   0.17763   0.70504   0.00000  Uiso   1.00
H178   H     0.12995   0.32324   0.29622   0.00000  Uiso   1.00
H179   H     0.32324   0.37005   0.70378   0.00000  Uiso   1.00
H180   H     0.38083   0.07237   0.79496   0.00000  Uiso   1.00
H181   H     0.17763   0.13083   0.29496   0.00000  Uiso   1.00
H182   H     0.13083   0.32237   0.70504   0.00000  Uiso   1.00
H183   H     0.37005   0.17676   0.29622   0.00000  Uiso   1.00
H184   H     0.17676   0.12995   0.70378   0.00000  Uiso   1.00
H185   H     0.32237   0.36917   0.29496   0.00000  Uiso   1.00
H186   H     0.36917   0.32237   0.29496   0.00000  Uiso   1.00
H187   H     0.12995   0.17676   0.70378   0.00000  Uiso   1.00
H188   H     0.32324   0.12995   0.29622   0.00000  Uiso   1.00
H189   H     0.17763   0.36917   0.70504   0.00000  Uiso   1.00
H190   H     0.13083   0.17763   0.29496   0.00000  Uiso   1.00
H191   H     0.07237   0.11917   0.20504   0.00000  Uiso   1.00
H192   H     0.37005   0.32324   0.70378   0.00000  Uiso   1.00
H193   H     0.17676   0.37005   0.29622   0.00000  Uiso   1.00
H194   H     0.32237   0.13083   0.70504   0.00000  Uiso   1.00
H195   H     0.42676   0.37995   0.79622   0.00000  Uiso   1.00
H196   H     0.37995   0.07324   0.20378   0.00000  Uiso   1.00
H197   H     0.11917   0.42763   0.79496   0.00000  Uiso   1.00
H198   H     0.42763   0.38083   0.20504   0.00000  Uiso   1.00
H199   H     0.07324   0.12005   0.79622   0.00000  Uiso   1.00
H200   H     0.12005   0.07324   0.79622   0.00000  Uiso   1.00
O201   O     0.25000   0.00000   0.25000   0.00000  Uiso   1.00
O202   O     0.25000   0.46964   0.66245   0.00000  Uiso   1.00
O203   O     0.46963   0.25000   0.33755   0.00000  Uiso   1.00
O204   O     0.03036   0.25000   0.66245   0.00000  Uiso   1.00
O205   O     0.00000   0.21963   0.83755   0.00000  Uiso   1.00
O206   O     0.00000   0.28036   0.16245   0.00000  Uiso   1.00
O207   O     0.28036   0.00000   0.83755   0.00000  Uiso   1.00
O208   O     0.21963   0.00000   0.16245   0.00000  Uiso   1.00
O209   O     0.00000   0.28036   0.83755   0.00000  Uiso   1.00
O210   O     0.00000   0.21963   0.16245   0.00000  Uiso   1.00
O211   O     0.21963   0.00000   0.83755   0.00000  Uiso   1.00
O212   O     0.25000   0.00000   0.75000   0.00000  Uiso   1.00
O213   O     0.28036   0.00000   0.16245   0.00000  Uiso   1.00
O214   O     0.20724   0.07308   0.27302   0.00000  Uiso   1.00
O215   O     0.29275   0.42693   0.72698   0.00000  Uiso   1.00
O216   O     0.42692   0.20725   0.27302   0.00000  Uiso   1.00
O217   O     0.07307   0.29276   0.72698   0.00000  Uiso   1.00
O218   O     0.29275   0.42693   0.27302   0.00000  Uiso   1.00
O219   O     0.20724   0.07308   0.72698   0.00000  Uiso   1.00
O220   O     0.07307   0.29276   0.27302   0.00000  Uiso   1.00
O221   O     0.42692   0.20725   0.72698   0.00000  Uiso   1.00
O222   O     0.20724   0.42693   0.72698   0.00000  Uiso   1.00
O223   O     0.00000   0.25000   0.25000   0.00000  Uiso   1.00
O224   O     0.29275   0.07308   0.27302   0.00000  Uiso   1.00
O225   O     0.42692   0.29276   0.72698   0.00000  Uiso   1.00
O226   O     0.07307   0.20725   0.27302   0.00000  Uiso   1.00
O227   O     0.29275   0.07308   0.72698   0.00000  Uiso   1.00
O228   O     0.20724   0.42693   0.27302   0.00000  Uiso   1.00
O229   O     0.07307   0.20725   0.72698   0.00000  Uiso   1.00
O230   O     0.42692   0.29276   0.27302   0.00000  Uiso   1.00
O231   O     0.45724   0.32308   0.77302   0.00000  Uiso   1.00
O232   O     0.04275   0.17693   0.22698   0.00000  Uiso   1.00
O233   O     0.17692   0.45725   0.77302   0.00000  Uiso   1.00
O234   O     0.00000   0.25000   0.75000   0.00000  Uiso   1.00
O235   O     0.32307   0.04276   0.22698   0.00000  Uiso   1.00
O236   O     0.04275   0.17693   0.77302   0.00000  Uiso   1.00
O237   O     0.45724   0.32308   0.22698   0.00000  Uiso   1.00
O238   O     0.32307   0.04276   0.77302   0.00000  Uiso   1.00
O239   O     0.17692   0.45725   0.22698   0.00000  Uiso   1.00
O240   O     0.45724   0.17693   0.22698   0.00000  Uiso   1.00
O241   O     0.04275   0.32308   0.77302   0.00000  Uiso   1.00
O242   O     0.17692   0.04276   0.22698   0.00000  Uiso   1.00
O243   O     0.32307   0.45725   0.77302   0.00000  Uiso   1.00
O244   O     0.04275   0.32308   0.22698   0.00000  Uiso   1.00
O245   O     0.25000   0.46964   0.33755   0.00000  Uiso   1.00
O246   O     0.45724   0.17693   0.77302   0.00000  Uiso   1.00
O247   O     0.32307   0.45725   0.22698   0.00000  Uiso   1.00
O248   O     0.17692   0.04276   0.77302   0.00000  Uiso   1.00
O249   O     0.25000   0.03037   0.66245   0.00000  Uiso   1.00
O250   O     0.03036   0.25000   0.33755   0.00000  Uiso   1.00
O251   O     0.46963   0.25000   0.66245   0.00000  Uiso   1.00
O252   O     0.25000   0.03037   0.33755   0.00000  Uiso   1.00
Zn253  Zn    0.20659   0.00000   0.21735   0.00000  Uiso   1.00
Zn254  Zn    0.04340   0.25000   0.28265   0.00000  Uiso   1.00
Zn255  Zn    0.25000   0.45660   0.71735   0.00000  Uiso   1.00
Zn256  Zn    0.25000   0.04341   0.28265   0.00000  Uiso   1.00
Zn257  Zn    0.04340   0.25000   0.71735   0.00000  Uiso   1.00
Zn258  Zn    0.45659   0.25000   0.28265   0.00000  Uiso   1.00
Zn259  Zn    0.25000   0.04341   0.71735   0.00000  Uiso   1.00
Zn260  Zn    0.25000   0.45660   0.28265   0.00000  Uiso   1.00
Zn261  Zn    0.29340   0.00000   0.78265   0.00000  Uiso   1.00
Zn262  Zn    0.00000   0.20659   0.21735   0.00000  Uiso   1.00
Zn263  Zn    0.00000   0.29340   0.78265   0.00000  Uiso   1.00
Zn264  Zn    0.29340   0.00000   0.21735   0.00000  Uiso   1.00
Zn265  Zn    0.20659   0.00000   0.78265   0.00000  Uiso   1.00
Zn266  Zn    0.00000   0.29340   0.21735   0.00000  Uiso   1.00
Zn267  Zn    0.00000   0.20659   0.78265   0.00000  Uiso   1.00
Zn268  Zn    0.45659   0.25000   0.71735   0.00000  Uiso   1.00
Br269  Br    0.51650   0.13818   0.45555   0.00000  Uiso   1.00
Br270  Br    0.73354   0.11183   0.04445   0.00000  Uiso   1.00
Br271  Br    0.61182   0.26651   0.95555   0.00000  Uiso   1.00
Br272  Br    0.88817   0.26646   0.04445   0.00000  Uiso   1.00
Br273  Br    0.76650   0.11182   0.95555   0.00000  Uiso   1.00
Br274  Br    0.76646   0.38817   0.04445   0.00000  Uiso   1.00
Br275  Br    0.88818   0.23350   0.95555   0.00000  Uiso   1.00
Br276  Br    0.61183   0.23354   0.04445   0.00000  Uiso   1.00
Br277  Br    0.52940   0.32204   0.38929   0.00000  Uiso   1.00
Br278  Br    0.52943   0.17796   0.61071   0.00000  Uiso   1.00
Br279  Br    0.67796   0.47060   0.38929   0.00000  Uiso   1.00
Br280  Br    0.51647   0.36183   0.54445   0.00000  Uiso   1.00
Br281  Br    0.82204   0.47058   0.61071   0.00000  Uiso   1.00
Br282  Br    0.97059   0.17796   0.38929   0.00000  Uiso   1.00
Br283  Br    0.97057   0.32204   0.61071   0.00000  Uiso   1.00
Br284  Br    0.82204   0.02941   0.38929   0.00000  Uiso   1.00
Br285  Br    0.67796   0.02943   0.61071   0.00000  Uiso   1.00
Br286  Br    0.72060   0.07205   0.88929   0.00000  Uiso   1.00
Br287  Br    0.72057   0.42797   0.11071   0.00000  Uiso   1.00
Br288  Br    0.92796   0.27940   0.88929   0.00000  Uiso   1.00
Br289  Br    0.57203   0.27943   0.11071   0.00000  Uiso   1.00
Br290  Br    0.77940   0.42796   0.88929   0.00000  Uiso   1.00
Br291  Br    0.86182   0.48350   0.45555   0.00000  Uiso   1.00
Br292  Br    0.77943   0.07203   0.11071   0.00000  Uiso   1.00
Br293  Br    0.57204   0.22060   0.88929   0.00000  Uiso   1.00
Br294  Br    0.92797   0.22057   0.11071   0.00000  Uiso   1.00
Br295  Br    0.63817   0.48353   0.54445   0.00000  Uiso   1.00
Br296  Br    0.98350   0.36182   0.45555   0.00000  Uiso   1.00
Br297  Br    0.98353   0.13817   0.54445   0.00000  Uiso   1.00
Br298  Br    0.63818   0.01650   0.45555   0.00000  Uiso   1.00
Br299  Br    0.86183   0.01647   0.54445   0.00000  Uiso   1.00
Br300  Br    0.73350   0.38818   0.95555   0.00000  Uiso   1.00
C301   C     0.50688   0.28250   0.41809   0.00000  Uiso   1.00
C302   C     0.74311   0.46750   0.08191   0.00000  Uiso   1.00
C303   C     0.71641   0.00159   0.54120   0.00000  Uiso   1.00
C304   C     0.50158   0.28359   0.45880   0.00000  Uiso   1.00
C305   C     0.50159   0.21641   0.54120   0.00000  Uiso   1.00
C306   C     0.71641   0.49842   0.45880   0.00000  Uiso   1.00
C307   C     0.78359   0.49841   0.54120   0.00000  Uiso   1.00
C308   C     0.75158   0.46641   0.95880   0.00000  Uiso   1.00
C309   C     0.75160   0.03359   0.04120   0.00000  Uiso   1.00
C310   C     0.53359   0.24842   0.95880   0.00000  Uiso   1.00
C311   C     0.96641   0.24840   0.04120   0.00000  Uiso   1.00
C312   C     0.74842   0.03359   0.95880   0.00000  Uiso   1.00
C313   C     0.96750   0.25688   0.91809   0.00000  Uiso   1.00
C314   C     0.74840   0.46641   0.04120   0.00000  Uiso   1.00
C315   C     0.96641   0.25158   0.95880   0.00000  Uiso   1.00
C316   C     0.53359   0.25160   0.04120   0.00000  Uiso   1.00
C317   C     0.59814   0.34814   0.25000   0.00000  Uiso   1.00
C318   C     0.90186   0.15186   0.75000   0.00000  Uiso   1.00
C319   C     0.65186   0.09814   0.25000   0.00000  Uiso   1.00
C320   C     0.84814   0.40186   0.75000   0.00000  Uiso   1.00
C321   C     0.90186   0.15186   0.25000   0.00000  Uiso   1.00
C322   C     0.59814   0.34814   0.75000   0.00000  Uiso   1.00
C323   C     0.84814   0.40186   0.25000   0.00000  Uiso   1.00
C324   C     0.53250   0.25689   0.08191   0.00000  Uiso   1.00
C325   C     0.65186   0.09814   0.75000   0.00000  Uiso   1.00
C326   C     0.59814   0.15186   0.75000   0.00000  Uiso   1.00
C327   C     0.90186   0.34814   0.25000   0.00000  Uiso   1.00
C328   C     0.65186   0.40186   0.75000   0.00000  Uiso   1.00
C329   C     0.84814   0.09814   0.25000   0.00000  Uiso   1.00
C330   C     0.90186   0.34814   0.75000   0.00000  Uiso   1.00
C331   C     0.59814   0.15186   0.25000   0.00000  Uiso   1.00
C332   C     0.84814   0.09814   0.75000   0.00000  Uiso   1.00
C333   C     0.65186   0.40186   0.25000   0.00000  Uiso   1.00
C334   C     0.50000   0.25000   0.47942   0.00000  Uiso   1.00
C335   C     0.75688   0.46750   0.91809   0.00000  Uiso   1.00
C336   C     0.50000   0.25000   0.52058   0.00000  Uiso   1.00
C337   C     0.75000   0.00000   0.47942   0.00000  Uiso   1.00
C338   C     0.75000   0.00000   0.52058   0.00000  Uiso   1.00
C339   C     0.75000   0.00000   0.97942   0.00000  Uiso   1.00
C340   C     0.75000   0.00000   0.02058   0.00000  Uiso   1.00
C341   C     0.50000   0.25000   0.97942   0.00000  Uiso   1.00
C342   C     0.50000   0.25000   0.02058   0.00000  Uiso   1.00
C343   C     0.75689   0.03250   0.08191   0.00000  Uiso   1.00
C344   C     0.53250   0.24312   0.91809   0.00000  Uiso   1.00
C345   C     0.96750   0.24311   0.08191   0.00000  Uiso   1.00
C346   C     0.50000   0.25000   0.39807   0.00000  Uiso   1.00
C347   C     0.50000   0.25000   0.60193   0.00000  Uiso   1.00
C348   C     0.75000   0.00000   0.39807   0.00000  Uiso   1.00
C349   C     0.50689   0.21750   0.58191   0.00000  Uiso   1.00
C350   C     0.75000   0.00000   0.60193   0.00000  Uiso   1.00
C351   C     0.75000   0.00000   0.89807   0.00000  Uiso   1.00
C352   C     0.75000   0.00000   0.10193   0.00000  Uiso   1.00
C353   C     0.50000   0.25000   0.89807   0.00000  Uiso   1.00
C354   C     0.50000   0.25000   0.10193   0.00000  Uiso   1.00
C355   C     0.50092   0.18327   0.47967   0.00000  Uiso   1.00
C356   C     0.50091   0.31673   0.52033   0.00000  Uiso   1.00
C357   C     0.81673   0.49908   0.47967   0.00000  Uiso   1.00
C358   C     0.68327   0.49909   0.52033   0.00000  Uiso   1.00
C359   C     0.99907   0.31673   0.47967   0.00000  Uiso   1.00
C360   C     0.71750   0.49312   0.41808   0.00000  Uiso   1.00
C361   C     0.99909   0.18327   0.52033   0.00000  Uiso   1.00
C362   C     0.68327   0.00093   0.47967   0.00000  Uiso   1.00
C363   C     0.81673   0.00091   0.52033   0.00000  Uiso   1.00
C364   C     0.74907   0.43327   0.97967   0.00000  Uiso   1.00
C365   C     0.74910   0.06673   0.02033   0.00000  Uiso   1.00
C366   C     0.56673   0.25093   0.97967   0.00000  Uiso   1.00
C367   C     0.93327   0.25090   0.02033   0.00000  Uiso   1.00
C368   C     0.75093   0.06673   0.97967   0.00000  Uiso   1.00
C369   C     0.75090   0.43327   0.02033   0.00000  Uiso   1.00
C370   C     0.93327   0.24907   0.97967   0.00000  Uiso   1.00
C371   C     0.78250   0.49311   0.58191   0.00000  Uiso   1.00
C372   C     0.56673   0.24910   0.02033   0.00000  Uiso   1.00
C373   C     0.75000   0.00000   0.35577   0.00000  Uiso   1.00
C374   C     0.75000   0.00000   0.64423   0.00000  Uiso   1.00
C375   C     0.50000   0.25000   0.35577   0.00000  Uiso   1.00
C376   C     0.50000   0.25000   0.64423   0.00000  Uiso   1.00
C377   C     0.50000   0.25000   0.85577   0.00000  Uiso   1.00
C378   C     0.50000   0.25000   0.14423   0.00000  Uiso   1.00
C379   C     0.75000   0.00000   0.85577   0.00000  Uiso   1.00
C380   C     0.75000   0.00000   0.14423   0.00000  Uiso   1.00
C381   C     0.67993   0.07007   0.25000   0.00000  Uiso   1.00
C382   C     0.99312   0.21750   0.41808   0.00000  Uiso   1.00
C383   C     0.82007   0.42993   0.75000   0.00000  Uiso   1.00
C384   C     0.92993   0.17993   0.25000   0.00000  Uiso   1.00
C385   C     0.57007   0.32007   0.75000   0.00000  Uiso   1.00
C386   C     0.82007   0.42993   0.25000   0.00000  Uiso   1.00
C387   C     0.67993   0.07007   0.75000   0.00000  Uiso   1.00
C388   C     0.57007   0.32007   0.25000   0.00000  Uiso   1.00
C389   C     0.92993   0.17993   0.75000   0.00000  Uiso   1.00
C390   C     0.67993   0.42993   0.75000   0.00000  Uiso   1.00
C391   C     0.82007   0.07007   0.25000   0.00000  Uiso   1.00
C392   C     0.92993   0.32007   0.75000   0.00000  Uiso   1.00
C393   C     0.99311   0.28250   0.58191   0.00000  Uiso   1.00
C394   C     0.57007   0.17993   0.25000   0.00000  Uiso   1.00
C395   C     0.82007   0.07007   0.75000   0.00000  Uiso   1.00
C396   C     0.67993   0.42993   0.25000   0.00000  Uiso   1.00
C397   C     0.57007   0.17993   0.75000   0.00000  Uiso   1.00
C398   C     0.92993   0.32007   0.25000   0.00000  Uiso   1.00
C399   C     0.62244   0.40429   0.22408   0.00000  Uiso   1.00
C400   C     0.87804   0.09524   0.77522   0.00000  Uiso   1.00
C401   C     0.59524   0.12196   0.22477   0.00000  Uiso   1.00
C402   C     0.90428   0.37756   0.77592   0.00000  Uiso   1.00
C403   C     0.87756   0.09572   0.22408   0.00000  Uiso   1.00
C404   C     0.78250   0.00688   0.41809   0.00000  Uiso   1.00
C405   C     0.62196   0.40476   0.77522   0.00000  Uiso   1.00
C406   C     0.90476   0.37804   0.22478   0.00000  Uiso   1.00
C407   C     0.59571   0.12244   0.77592   0.00000  Uiso   1.00
C408   C     0.62244   0.09572   0.77592   0.00000  Uiso   1.00
C409   C     0.87804   0.40476   0.22478   0.00000  Uiso   1.00
C410   C     0.59524   0.37804   0.77522   0.00000  Uiso   1.00
C411   C     0.90428   0.12244   0.22408   0.00000  Uiso   1.00
C412   C     0.87756   0.40429   0.77592   0.00000  Uiso   1.00
C413   C     0.62196   0.09524   0.22477   0.00000  Uiso   1.00
C414   C     0.90476   0.12196   0.77522   0.00000  Uiso   1.00
C415   C     0.71750   0.00689   0.58191   0.00000  Uiso   1.00
C416   C     0.59571   0.37756   0.22408   0.00000  Uiso   1.00
C417   C     0.87196   0.15476   0.72478   0.00000  Uiso   1.00
C418   C     0.62756   0.34572   0.27592   0.00000  Uiso   1.00
C419   C     0.84571   0.37244   0.72408   0.00000  Uiso   1.00
C420   C     0.65476   0.12804   0.27522   0.00000  Uiso   1.00
C421   C     0.62804   0.34524   0.72478   0.00000  Uiso   1.00
C422   C     0.87244   0.15429   0.27592   0.00000  Uiso   1.00
C423   C     0.65428   0.12756   0.72408   0.00000  Uiso   1.00
C424   C     0.84524   0.37196   0.27522   0.00000  Uiso   1.00
C425   C     0.87196   0.34524   0.27522   0.00000  Uiso   1.00
C426   C     0.74312   0.03250   0.91809   0.00000  Uiso   1.00
C427   C     0.62756   0.15429   0.72408   0.00000  Uiso   1.00
C428   C     0.84571   0.12756   0.27592   0.00000  Uiso   1.00
C429   C     0.65476   0.37196   0.72478   0.00000  Uiso   1.00
C430   C     0.62804   0.15476   0.27522   0.00000  Uiso   1.00
C431   C     0.87244   0.34572   0.72408   0.00000  Uiso   1.00
C432   C     0.65428   0.37244   0.27592   0.00000  Uiso   1.00
C433   C     0.84524   0.12804   0.72478   0.00000  Uiso   1.00
C434   C     0.99842   0.21641   0.45880   0.00000  Uiso   1.00
C435   C     0.99841   0.28359   0.54120   0.00000  Uiso   1.00
C436   C     0.78359   0.00158   0.45880   0.00000  Uiso   1.00
H437   H     0.62005   0.42676   0.20378   0.00000  Uiso   1.00
H438   H     0.88083   0.42763   0.20504   0.00000  Uiso   1.00
H439   H     0.57237   0.38083   0.79496   0.00000  Uiso   1.00
H440   H     0.92676   0.12005   0.20378   0.00000  Uiso   1.00
H441   H     0.87995   0.42676   0.79622   0.00000  Uiso   1.00
H442   H     0.61917   0.07237   0.20504   0.00000  Uiso   1.00
H443   H     0.92763   0.11917   0.79496   0.00000  Uiso   1.00
H444   H     0.57324   0.37995   0.20378   0.00000  Uiso   1.00
H445   H     0.86917   0.17763   0.70504   0.00000  Uiso   1.00
H446   H     0.62995   0.32324   0.29622   0.00000  Uiso   1.00
H447   H     0.82324   0.37005   0.70378   0.00000  Uiso   1.00
H448   H     0.88083   0.07237   0.79496   0.00000  Uiso   1.00
H449   H     0.67763   0.13083   0.29496   0.00000  Uiso   1.00
H450   H     0.63083   0.32237   0.70504   0.00000  Uiso   1.00
H451   H     0.87005   0.17676   0.29622   0.00000  Uiso   1.00
H452   H     0.67676   0.12995   0.70378   0.00000  Uiso   1.00
H453   H     0.82237   0.36917   0.29496   0.00000  Uiso   1.00
H454   H     0.86917   0.32237   0.29496   0.00000  Uiso   1.00
H455   H     0.62995   0.17676   0.70378   0.00000  Uiso   1.00
H456   H     0.82324   0.12995   0.29622   0.00000  Uiso   1.00
H457   H     0.67763   0.36917   0.70504   0.00000  Uiso   1.00
H458   H     0.63083   0.17763   0.29496   0.00000  Uiso   1.00
H459   H     0.57237   0.11917   0.20504   0.00000  Uiso   1.00
H460   H     0.87005   0.32324   0.70378   0.00000  Uiso   1.00
H461   H     0.67676   0.37005   0.29622   0.00000  Uiso   1.00
H462   H     0.82237   0.13083   0.70504   0.00000  Uiso   1.00
H463   H     0.92676   0.37995   0.79622   0.00000  Uiso   1.00
H464   H     0.87995   0.07324   0.20378   0.00000  Uiso   1.00
H465   H     0.61917   0.42763   0.79496   0.00000  Uiso   1.00
H466   H     0.92763   0.38083   0.20504   0.00000  Uiso   1.00
H467   H     0.57324   0.12005   0.79622   0.00000  Uiso   1.00
H468   H     0.62005   0.07324   0.79622   0.00000  Uiso   1.00
O469   O     0.75000   0.00000   0.25000   0.00000  Uiso   1.00
O470   O     0.75000   0.46964   0.66245   0.00000  Uiso   1.00
O471   O     0.96963   0.25000   0.33755   0.00000  Uiso   1.00
O472   O     0.53036   0.25000   0.66245   0.00000  Uiso   1.00
O473   O     0.50000   0.21963   0.83755   0.00000  Uiso   1.00
O474   O     0.50000   0.28036   0.16245   0.00000  Uiso   1.00
O475   O     0.78036   0.00000   0.83755   0.00000  Uiso   1.00
O476   O     0.71963   0.00000   0.16245   0.00000  Uiso   1.00
O477   O     0.50000   0.28036   0.83755   0.00000  Uiso   1.00
O478   O     0.50000   0.21963   0.16245   0.00000  Uiso   1.00
O479   O     0.71963   0.00000   0.83755   0.00000  Uiso   1.00
O480   O     0.75000   0.00000   0.75000   0.00000  Uiso   1.00
O481   O     0.78036   0.00000   0.16245   0.00000  Uiso   1.00
O482   O     0.70724   0.07308   0.27302   0.00000  Uiso   1.00
O483   O     0.79275   0.42693   0.72698   0.00000  Uiso   1.00
O484   O     0.92692   0.20725   0.27302   0.00000  Uiso   1.00
O485   O     0.57307   0.29276   0.72698   0.00000  Uiso   1.00
O486   O     0.79275   0.42693   0.27302   0.00000  Uiso   1.00
O487   O     0.70724   0.07308   0.72698   0.00000  Uiso   1.00
O488   O     0.57307   0.29276   0.27302   0.00000  Uiso   1.00
O489   O     0.92692   0.20725   0.72698   0.00000  Uiso   1.00
O490   O     0.70724   0.42693   0.72698   0.00000  Uiso   1.00
O491   O     0.50000   0.25000   0.25000   0.00000  Uiso   1.00
O492   O     0.79275   0.07308   0.27302   0.00000  Uiso   1.00
O493   O     0.92692   0.29276   0.72698   0.00000  Uiso   1.00
O494   O     0.57307   0.20725   0.27302   0.00000  Uiso   1.00
O495   O     0.79275   0.07308   0.72698   0.00000  Uiso   1.00
O496   O     0.70724   0.42693   0.27302   0.00000  Uiso   1.00
O497   O     0.57307   0.20725   0.72698   0.00000  Uiso   1.00
O498   O     0.92692   0.29276   0.27302   0.00000  Uiso   1.00
O499   O     0.95724   0.32308   0.77302   0.00000  Uiso   1.00
O500   O     0.54275   0.17693   0.22698   0.00000  Uiso   1.00
O501   O     0.67692   0.45725   0.77302   0.00000  Uiso   1.00
O502   O     0.50000   0.25000   0.75000   0.00000  Uiso   1.00
O503   O     0.82307   0.04276   0.22698   0.00000  Uiso   1.00
O504   O     0.54275   0.17693   0.77302   0.00000  Uiso   1.00
O505   O     0.95724   0.32308   0.22698   0.00000  Uiso   1.00
O506   O     0.82307   0.04276   0.77302   0.00000  Uiso   1.00
O507   O     0.67692   0.45725   0.22698   0.00000  Uiso   1.00
O508   O     0.95724   0.17693   0.22698   0.00000  Uiso   1.00
O509   O     0.54275   0.32308   0.77302   0.00000  Uiso   1.00
O510   O     0.67692   0.04276   0.22698   0.00000  Uiso   1.00
O511   O     0.82307   0.45725   0.77302   0.00000  Uiso   1.00
O512   O     0.54275   0.32308   0.22698   0.00000  Uiso   1.00
O513   O     0.75000   0.46964   0.33755   0.00000  Uiso   1.00
O514   O     0.95724   0.17693   0.77302   0.00000  Uiso   1.00
O515   O     0.82307   0.45725   0.22698   0.00000  Uiso   1.00
O516   O     0.67692   0.04276   0.77302   0.00000  Uiso   1.00
O517   O     0.75000   0.03037   0.66245   0.00000  Uiso   1.00
O518   O     0.53036   0.25000   0.33755   0.00000  Uiso   1.00
O519   O     0.96963   0.25000   0.66245   0.00000  Uiso   1.00
O520   O     0.75000   0.03037   0.33755   0.00000  Uiso   1.00
Zn521  Zn    0.70659   0.00000   0.21735   0.00000  Uiso   1.00
Zn522  Zn    0.54340   0.25000   0.28265   0.00000  Uiso   1.00
Zn523  Zn    0.75000   0.45660   0.71735   0.00000  Uiso   1.00
Zn524  Zn    0.75000   0.04341   0.28265   0.00000  Uiso   1.00
Zn525  Zn    0.54340   0.25000   0.71735   0.00000  Uiso   1.00
Zn526  Zn    0.95659   0.25000   0.28265   0.00000  Uiso   1.00
Zn527  Zn    0.75000   0.04341   0.71735   0.00000  Uiso   1.00
Zn528  Zn    0.75000   0.45660   0.28265   0.00000  Uiso   1.00
Zn529  Zn    0.79340   0.00000   0.78265   0.00000  Uiso   1.00
Zn530  Zn    0.50000   0.20659   0.21735   0.00000  Uiso   1.00
Zn531  Zn    0.50000   0.29340   0.78265   0.00000  Uiso   1.00
Zn532  Zn    0.79340   0.00000   0.21735   0.00000  Uiso   1.00
Zn533  Zn    0.70659   0.00000   0.78265   0.00000  Uiso   1.00
Zn534  Zn    0.50000   0.29340   0.21735   0.00000  Uiso   1.00
Zn535  Zn    0.50000   0.20659   0.78265   0.00000  Uiso   1.00
Zn536  Zn    0.95659   0.25000   0.71735   0.00000  Uiso   1.00
Br537  Br    0.01650   0.63818   0.45555   0.00000  Uiso   1.00
Br538  Br    0.23354   0.61183   0.04445   0.00000  Uiso   1.00
Br539  Br    0.11182   0.76651   0.95555   0.00000  Uiso   1.00
Br540  Br    0.38817   0.76646   0.04445   0.00000  Uiso   1.00
Br541  Br    0.26650   0.61182   0.95555   0.00000  Uiso   1.00
Br542  Br    0.26646   0.88817   0.04445   0.00000  Uiso   1.00
Br543  Br    0.38818   0.73350   0.95555   0.00000  Uiso   1.00
Br544  Br    0.11183   0.73354   0.04445   0.00000  Uiso   1.00
Br545  Br    0.02940   0.82204   0.38929   0.00000  Uiso   1.00
Br546  Br    0.02943   0.67796   0.61071   0.00000  Uiso   1.00
Br547  Br    0.17796   0.97060   0.38929   0.00000  Uiso   1.00
Br548  Br    0.01647   0.86183   0.54445   0.00000  Uiso   1.00
Br549  Br    0.32204   0.97058   0.61071   0.00000  Uiso   1.00
Br550  Br    0.47059   0.67796   0.38929   0.00000  Uiso   1.00
Br551  Br    0.47057   0.82204   0.61071   0.00000  Uiso   1.00
Br552  Br    0.32204   0.52941   0.38929   0.00000  Uiso   1.00
Br553  Br    0.17796   0.52943   0.61071   0.00000  Uiso   1.00
Br554  Br    0.22060   0.57205   0.88929   0.00000  Uiso   1.00
Br555  Br    0.22057   0.92797   0.11071   0.00000  Uiso   1.00
Br556  Br    0.42796   0.77940   0.88929   0.00000  Uiso   1.00
Br557  Br    0.07203   0.77943   0.11071   0.00000  Uiso   1.00
Br558  Br    0.27940   0.92796   0.88929   0.00000  Uiso   1.00
Br559  Br    0.36182   0.98350   0.45555   0.00000  Uiso   1.00
Br560  Br    0.27943   0.57203   0.11071   0.00000  Uiso   1.00
Br561  Br    0.07204   0.72060   0.88929   0.00000  Uiso   1.00
Br562  Br    0.42797   0.72057   0.11071   0.00000  Uiso   1.00
Br563  Br    0.13817   0.98353   0.54445   0.00000  Uiso   1.00
Br564  Br    0.48350   0.86182   0.45555   0.00000  Uiso   1.00
Br565  Br    0.48353   0.63817   0.54445   0.00000  Uiso   1.00
Br566  Br    0.13818   0.51650   0.45555   0.00000  Uiso   1.00
Br567  Br    0.36183   0.51647   0.54445   0.00000  Uiso   1.00
Br568  Br    0.23350   0.88818   0.95555   0.00000  Uiso   1.00
C569   C     0.00688   0.78250   0.41809   0.00000  Uiso   1.00
C570   C     0.24311   0.96750   0.08191   0.00000  Uiso   1.00
C571   C     0.21641   0.50159   0.54120   0.00000  Uiso   1.00
C572   C     0.00158   0.78359   0.45880   0.00000  Uiso   1.00
C573   C     0.00159   0.71641   0.54120   0.00000  Uiso   1.00
C574   C     0.21641   0.99842   0.45880   0.00000  Uiso   1.00
C575   C     0.28359   0.99841   0.54120   0.00000  Uiso   1.00
C576   C     0.25158   0.96641   0.95880   0.00000  Uiso   1.00
C577   C     0.25160   0.53359   0.04120   0.00000  Uiso   1.00
C578   C     0.03359   0.74842   0.95880   0.00000  Uiso   1.00
C579   C     0.46641   0.74840   0.04120   0.00000  Uiso   1.00
C580   C     0.24842   0.53359   0.95880   0.00000  Uiso   1.00
C581   C     0.46750   0.75688   0.91809   0.00000  Uiso   1.00
C582   C     0.24840   0.96641   0.04120   0.00000  Uiso   1.00
C583   C     0.46641   0.75158   0.95880   0.00000  Uiso   1.00
C584   C     0.03359   0.75160   0.04120   0.00000  Uiso   1.00
C585   C     0.09814   0.84814   0.25000   0.00000  Uiso   1.00
C586   C     0.40186   0.65186   0.75000   0.00000  Uiso   1.00
C587   C     0.15186   0.59814   0.25000   0.00000  Uiso   1.00
C588   C     0.34814   0.90186   0.75000   0.00000  Uiso   1.00
C589   C     0.40186   0.65186   0.25000   0.00000  Uiso   1.00
C590   C     0.09814   0.84814   0.75000   0.00000  Uiso   1.00
C591   C     0.34814   0.90186   0.25000   0.00000  Uiso   1.00
C592   C     0.03250   0.75689   0.08191   0.00000  Uiso   1.00
C593   C     0.15186   0.59814   0.75000   0.00000  Uiso   1.00
C594   C     0.09814   0.65186   0.75000   0.00000  Uiso   1.00
C595   C     0.40186   0.84814   0.25000   0.00000  Uiso   1.00
C596   C     0.15186   0.90186   0.75000   0.00000  Uiso   1.00
C597   C     0.34814   0.59814   0.25000   0.00000  Uiso   1.00
C598   C     0.40186   0.84814   0.75000   0.00000  Uiso   1.00
C599   C     0.09814   0.65186   0.25000   0.00000  Uiso   1.00
C600   C     0.34814   0.59814   0.75000   0.00000  Uiso   1.00
C601   C     0.15186   0.90186   0.25000   0.00000  Uiso   1.00
C602   C    -0.00000   0.75000   0.47942   0.00000  Uiso   1.00
C603   C     0.25688   0.96750   0.91809   0.00000  Uiso   1.00
C604   C    -0.00000   0.75000   0.52058   0.00000  Uiso   1.00
C605   C     0.25000   0.50000   0.47942   0.00000  Uiso   1.00
C606   C     0.25000   0.50000   0.52058   0.00000  Uiso   1.00
C607   C     0.25000   0.50000   0.97942   0.00000  Uiso   1.00
C608   C     0.25000   0.50000   0.02058   0.00000  Uiso   1.00
C609   C    -0.00000   0.75000   0.97942   0.00000  Uiso   1.00
C610   C    -0.00000   0.75000   0.02058   0.00000  Uiso   1.00
C611   C     0.25689   0.53250   0.08191   0.00000  Uiso   1.00
C612   C     0.03250   0.74312   0.91809   0.00000  Uiso   1.00
C613   C     0.46750   0.74311   0.08191   0.00000  Uiso   1.00
C614   C     0.00000   0.75000   0.39807   0.00000  Uiso   1.00
C615   C    -0.00000   0.75000   0.60193   0.00000  Uiso   1.00
C616   C     0.25000   0.50000   0.39807   0.00000  Uiso   1.00
C617   C     0.00689   0.71750   0.58191   0.00000  Uiso   1.00
C618   C     0.25000   0.50000   0.60193   0.00000  Uiso   1.00
C619   C     0.25000   0.50000   0.89807   0.00000  Uiso   1.00
C620   C     0.25000   0.50000   0.10193   0.00000  Uiso   1.00
C621   C     0.00000   0.75000   0.89807   0.00000  Uiso   1.00
C622   C    -0.00000   0.75000   0.10193   0.00000  Uiso   1.00
C623   C     0.00092   0.68327   0.47967   0.00000  Uiso   1.00
C624   C     0.00091   0.81673   0.52033   0.00000  Uiso   1.00
C625   C     0.31673   0.99908   0.47967   0.00000  Uiso   1.00
C626   C     0.18327   0.99909   0.52033   0.00000  Uiso   1.00
C627   C     0.49907   0.81673   0.47967   0.00000  Uiso   1.00
C628   C     0.21750   0.99312   0.41808   0.00000  Uiso   1.00
C629   C     0.49909   0.68327   0.52033   0.00000  Uiso   1.00
C630   C     0.18327   0.50093   0.47967   0.00000  Uiso   1.00
C631   C     0.31673   0.50091   0.52033   0.00000  Uiso   1.00
C632   C     0.24907   0.93327   0.97967   0.00000  Uiso   1.00
C633   C     0.24910   0.56673   0.02033   0.00000  Uiso   1.00
C634   C     0.06673   0.75093   0.97967   0.00000  Uiso   1.00
C635   C     0.43327   0.75090   0.02033   0.00000  Uiso   1.00
C636   C     0.25093   0.56673   0.97967   0.00000  Uiso   1.00
C637   C     0.25090   0.93327   0.02033   0.00000  Uiso   1.00
C638   C     0.43327   0.74907   0.97967   0.00000  Uiso   1.00
C639   C     0.28250   0.99311   0.58191   0.00000  Uiso   1.00
C640   C     0.06673   0.74910   0.02033   0.00000  Uiso   1.00
C641   C     0.25000   0.50000   0.35577   0.00000  Uiso   1.00
C642   C     0.25000   0.50000   0.64423   0.00000  Uiso   1.00
C643   C     0.00000   0.75000   0.35577   0.00000  Uiso   1.00
C644   C    -0.00000   0.75000   0.64423   0.00000  Uiso   1.00
C645   C     0.00000   0.75000   0.85577   0.00000  Uiso   1.00
C646   C    -0.00000   0.75000   0.14423   0.00000  Uiso   1.00
C647   C     0.25000   0.50000   0.85577   0.00000  Uiso   1.00
C648   C     0.25000   0.50000   0.14423   0.00000  Uiso   1.00
C649   C     0.17993   0.57007   0.25000   0.00000  Uiso   1.00
C650   C     0.49312   0.71750   0.41808   0.00000  Uiso   1.00
C651   C     0.32007   0.92993   0.75000   0.00000  Uiso   1.00
C652   C     0.42993   0.67993   0.25000   0.00000  Uiso   1.00
C653   C     0.07007   0.82007   0.75000   0.00000  Uiso   1.00
C654   C     0.32007   0.92993   0.25000   0.00000  Uiso   1.00
C655   C     0.17993   0.57007   0.75000   0.00000  Uiso   1.00
C656   C     0.07007   0.82007   0.25000   0.00000  Uiso   1.00
C657   C     0.42993   0.67993   0.75000   0.00000  Uiso   1.00
C658   C     0.17993   0.92993   0.75000   0.00000  Uiso   1.00
C659   C     0.32007   0.57007   0.25000   0.00000  Uiso   1.00
C660   C     0.42993   0.82007   0.75000   0.00000  Uiso   1.00
C661   C     0.49311   0.78250   0.58191   0.00000  Uiso   1.00
C662   C     0.07007   0.67993   0.25000   0.00000  Uiso   1.00
C663   C     0.32007   0.57007   0.75000   0.00000  Uiso   1.00
C664   C     0.17993   0.92993   0.25000   0.00000  Uiso   1.00
C665   C     0.07007   0.67993   0.75000   0.00000  Uiso   1.00
C666   C     0.42993   0.82007   0.25000   0.00000  Uiso   1.00
C667   C     0.12244   0.90429   0.22408   0.00000  Uiso   1.00
C668   C     0.37804   0.59524   0.77522   0.00000  Uiso   1.00
C669   C     0.09524   0.62196   0.22477   0.00000  Uiso   1.00
C670   C     0.40428   0.87756   0.77592   0.00000  Uiso   1.00
C671   C     0.37756   0.59572   0.22408   0.00000  Uiso   1.00
C672   C     0.28250   0.50688   0.41809   0.00000  Uiso   1.00
C673   C     0.12196   0.90476   0.77522   0.00000  Uiso   1.00
C674   C     0.40476   0.87804   0.22478   0.00000  Uiso   1.00
C675   C     0.09571   0.62244   0.77592   0.00000  Uiso   1.00
C676   C     0.12244   0.59572   0.77592   0.00000  Uiso   1.00
C677   C     0.37804   0.90476   0.22478   0.00000  Uiso   1.00
C678   C     0.09524   0.87804   0.77522   0.00000  Uiso   1.00
C679   C     0.40428   0.62244   0.22408   0.00000  Uiso   1.00
C680   C     0.37756   0.90429   0.77592   0.00000  Uiso   1.00
C681   C     0.12196   0.59524   0.22477   0.00000  Uiso   1.00
C682   C     0.40476   0.62196   0.77522   0.00000  Uiso   1.00
C683   C     0.21750   0.50689   0.58191   0.00000  Uiso   1.00
C684   C     0.09571   0.87756   0.22408   0.00000  Uiso   1.00
C685   C     0.37196   0.65476   0.72478   0.00000  Uiso   1.00
C686   C     0.12756   0.84572   0.27592   0.00000  Uiso   1.00
C687   C     0.34571   0.87244   0.72408   0.00000  Uiso   1.00
C688   C     0.15476   0.62804   0.27522   0.00000  Uiso   1.00
C689   C     0.12804   0.84524   0.72478   0.00000  Uiso   1.00
C690   C     0.37244   0.65429   0.27592   0.00000  Uiso   1.00
C691   C     0.15428   0.62756   0.72408   0.00000  Uiso   1.00
C692   C     0.34524   0.87196   0.27522   0.00000  Uiso   1.00
C693   C     0.37196   0.84524   0.27522   0.00000  Uiso   1.00
C694   C     0.24312   0.53250   0.91809   0.00000  Uiso   1.00
C695   C     0.12756   0.65429   0.72408   0.00000  Uiso   1.00
C696   C     0.34571   0.62756   0.27592   0.00000  Uiso   1.00
C697   C     0.15476   0.87196   0.72478   0.00000  Uiso   1.00
C698   C     0.12804   0.65476   0.27522   0.00000  Uiso   1.00
C699   C     0.37244   0.84572   0.72408   0.00000  Uiso   1.00
C700   C     0.15428   0.87244   0.27592   0.00000  Uiso   1.00
C701   C     0.34524   0.62804   0.72478   0.00000  Uiso   1.00
C702   C     0.49842   0.71641   0.45880   0.00000  Uiso   1.00
C703   C     0.49841   0.78359   0.54120   0.00000  Uiso   1.00
C704   C     0.28359   0.50158   0.45880   0.00000  Uiso   1.00
H705   H     0.12005   0.92676   0.20378   0.00000  Uiso   1.00
H706   H     0.38083   0.92763   0.20504   0.00000  Uiso   1.00
H707   H     0.07237   0.88083   0.79496   0.00000  Uiso   1.00
H708   H     0.42676   0.62005   0.20378   0.00000  Uiso   1.00
H709   H     0.37995   0.92676   0.79622   0.00000  Uiso   1.00
H710   H     0.11917   0.57237   0.20504   0.00000  Uiso   1.00
H711   H     0.42763   0.61917   0.79496   0.00000  Uiso   1.00
H712   H     0.07324   0.87995   0.20378   0.00000  Uiso   1.00
H713   H     0.36917   0.67763   0.70504   0.00000  Uiso   1.00
H714   H     0.12995   0.82324   0.29622   0.00000  Uiso   1.00
H715   H     0.32324   0.87005   0.70378   0.00000  Uiso   1.00
H716   H     0.38083   0.57237   0.79496   0.00000  Uiso   1.00
H717   H     0.17763   0.63083   0.29496   0.00000  Uiso   1.00
H718   H     0.13083   0.82237   0.70504   0.00000  Uiso   1.00
H719   H     0.37005   0.67676   0.29622   0.00000  Uiso   1.00
H720   H     0.17676   0.62995   0.70378   0.00000  Uiso   1.00
H721   H     0.32237   0.86917   0.29496   0.00000  Uiso   1.00
H722   H     0.36917   0.82237   0.29496   0.00000  Uiso   1.00
H723   H     0.12995   0.67676   0.70378   0.00000  Uiso   1.00
H724   H     0.32324   0.62995   0.29622   0.00000  Uiso   1.00
H725   H     0.17763   0.86917   0.70504   0.00000  Uiso   1.00
H726   H     0.13083   0.67763   0.29496   0.00000  Uiso   1.00
H727   H     0.07237   0.61917   0.20504   0.00000  Uiso   1.00
H728   H     0.37005   0.82324   0.70378   0.00000  Uiso   1.00
H729   H     0.17676   0.87005   0.29622   0.00000  Uiso   1.00
H730   H     0.32237   0.63083   0.70504   0.00000  Uiso   1.00
H731   H     0.42676   0.87995   0.79622   0.00000  Uiso   1.00
H732   H     0.37995   0.57324   0.20378   0.00000  Uiso   1.00
H733   H     0.11917   0.92763   0.79496   0.00000  Uiso   1.00
H734   H     0.42763   0.88083   0.20504   0.00000  Uiso   1.00
H735   H     0.07324   0.62005   0.79622   0.00000  Uiso   1.00
H736   H     0.12005   0.57324   0.79622   0.00000  Uiso   1.00
O737   O     0.25000   0.50000   0.25000   0.00000  Uiso   1.00
O738   O     0.25000   0.96964   0.66245   0.00000  Uiso   1.00
O739   O     0.46963   0.75000   0.33755   0.00000  Uiso   1.00
O740   O     0.03036   0.75000   0.66245   0.00000  Uiso   1.00
O741   O     0.00000   0.71963   0.83755   0.00000  Uiso   1.00
O742   O     0.00000   0.78036   0.16245   0.00000  Uiso   1.00
O743   O     0.28036   0.50000   0.83755   0.00000  Uiso   1.00
O744   O     0.21963   0.50000   0.16245   0.00000  Uiso   1.00
O745   O     0.00000   0.78036   0.83755   0.00000  Uiso   1.00
O746   O     0.00000   0.71963   0.16245   0.00000  Uiso   1.00
O747   O     0.21963   0.50000   0.83755   0.00000  Uiso   1.00
O748   O     0.25000   0.50000   0.75000   0.00000  Uiso   1.00
O749   O     0.28036   0.50000   0.16245   0.00000  Uiso   1.00
O750   O     0.20724   0.57308   0.27302   0.00000  Uiso   1.00
O751   O     0.29275   0.92693   0.72698   0.00000  Uiso   1.00
O752   O     0.42692   0.70725   0.27302   0.00000  Uiso   1.00
O753   O     0.07307   0.79276   0.72698   0.00000  Uiso   1.00
O754   O     0.29275   0.92693   0.27302   0.00000  Uiso   1.00
O755   O     0.20724   0.57308   0.72698   0.00000  Uiso   1.00
O756   O     0.07307   0.79276   0.27302   0.00000  Uiso   1.00
O757   O     0.42692   0.70725   0.72698   0.00000  Uiso   1.00
O758   O     0.20724   0.92693   0.72698   0.00000  Uiso   1.00
O759   O     0.00000   0.75000   0.25000   0.00000  Uiso   1.00
O760   O     0.29275   0.57308   0.27302   0.00000  Uiso   1.00
O761   O     0.42692   0.79276   0.72698   0.00000  Uiso   1.00
O762   O     0.07307   0.70725   0.27302   0.00000  Uiso   1.00
O763   O     0.29275   0.57308   0.72698   0.00000  Uiso   1.00
O764   O     0.20724   0.92693   0.27302   0.00000  Uiso   1.00
O765   O     0.07307   0.70725   0.72698   0.00000  Uiso   1.00
O766   O     0.42692   0.79276   0.27302   0.00000  Uiso   1.00
O767   O     0.45724   0.82308   0.77302   0.00000  Uiso   1.00
O768   O     0.04275   0.67693   0.22698   0.00000  Uiso   1.00
O769   O     0.17692   0.95725   0.77302   0.00000  Uiso   1.00
O770   O     0.00000   0.75000   0.75000   0.00000  Uiso   1.00
O771   O     0.32307   0.54276   0.22698   0.00000  Uiso   1.00
O772   O     0.04275   0.67693   0.77302   0.00000  Uiso   1.00
O773   O     0.45724   0.82308   0.22698   0.00000  Uiso   1.00
O774   O     0.32307   0.54276   0.77302   0.00000  Uiso   1.00
O775   O     0.17692   0.95725   0.22698   0.00000  Uiso   1.00
O776   O     0.45724   0.67693   0.22698   0.00000  Uiso   1.00
O777   O     0.04275   0.82308   0.77302   0.00000  Uiso   1.00
O778   O     0.17692   0.54276   0.22698   0.00000  Uiso   1.00
O779   O     0.32307   0.95725   0.77302   0.00000  Uiso   1.00
O780   O     0.04275   0.82308   0.22698   0.00000  Uiso   1.00
O781   O     0.25000   0.96964   0.33755   0.00000  Uiso   1.00
O782   O     0.45724   0.67693   0.77302   0.00000  Uiso   1.00
O783   O     0.32307   0.95725   0.22698   0.00000  Uiso   1.00
O784   O     0.17692   0.54276   0.77302   0.00000  Uiso   1.00
O785   O     0.25000   0.53037   0.66245   0.00000  Uiso   1.00
O786   O     0.03036   0.75000   0.33755   0.00000  Uiso   1.00
O787   O     0.46963   0.75000   0.66245   0.00000  Uiso   1.00
O788   O     0.25000   0.53037   0.33755   0.00000  Uiso   1.00
Zn789  Zn    0.20659   0.50000   0.21735   0.00000  Uiso   1.00
Zn790  Zn    0.04340   0.75000   0.28265   0.00000  Uiso   1.00
Zn791  Zn    0.25000   0.95660   0.71735   0.00000  Uiso   1.00
Zn792  Zn    0.25000   0.54341   0.28265   0.00000  Uiso   1.00
Zn793  Zn    0.04340   0.75000   0.71735   0.00000  Uiso   1.00
Zn794  Zn    0.45659   0.75000   0.28265   0.00000  Uiso   1.00
Zn795  Zn    0.25000   0.54341   0.71735   0.00000  Uiso   1.00
Zn796  Zn    0.25000   0.95660   0.28265   0.00000  Uiso   1.00
Zn797  Zn    0.29340   0.50000   0.78265   0.00000  Uiso   1.00
Zn798  Zn    0.00000   0.70659   0.21735   0.00000  Uiso   1.00
Zn799  Zn    0.00000   0.79340   0.78265   0.00000  Uiso   1.00
Zn800  Zn    0.29340   0.50000   0.21735   0.00000  Uiso   1.00
Zn801  Zn    0.20659   0.50000   0.78265   0.00000  Uiso   1.00
Zn802  Zn    0.00000   0.79340   0.21735   0.00000  Uiso   1.00
Zn803  Zn    0.00000   0.70659   0.78265   0.00000  Uiso   1.00
Zn804  Zn    0.45659   0.75000   0.71735   0.00000  Uiso   1.00
Br805  Br    0.51650   0.63818   0.45555   0.00000  Uiso   1.00
Br806  Br    0.73354   0.61183   0.04445   0.00000  Uiso   1.00
Br807  Br    0.61182   0.76651   0.95555   0.00000  Uiso   1.00
Br808  Br    0.88817   0.76646   0.04445   0.00000  Uiso   1.00
Br809  Br    0.76650   0.61182   0.95555   0.00000  Uiso   1.00
Br810  Br    0.76646   0.88817   0.04445   0.00000  Uiso   1.00
Br811  Br    0.88818   0.73350   0.95555   0.00000  Uiso   1.00
Br812  Br    0.61183   0.73354   0.04445   0.00000  Uiso   1.00
Br813  Br    0.52940   0.82204   0.38929   0.00000  Uiso   1.00
Br814  Br    0.52943   0.67796   0.61071   0.00000  Uiso   1.00
Br815  Br    0.67796   0.97060   0.38929   0.00000  Uiso   1.00
Br816  Br    0.51647   0.86183   0.54445   0.00000  Uiso   1.00
Br817  Br    0.82204   0.97058   0.61071   0.00000  Uiso   1.00
Br818  Br    0.97059   0.67796   0.38929   0.00000  Uiso   1.00
Br819  Br    0.97057   0.82204   0.61071   0.00000  Uiso   1.00
Br820  Br    0.82204   0.52941   0.38929   0.00000  Uiso   1.00
Br821  Br    0.67796   0.52943   0.61071   0.00000  Uiso   1.00
Br822  Br    0.72060   0.57205   0.88929   0.00000  Uiso   1.00
Br823  Br    0.72057   0.92797   0.11071   0.00000  Uiso   1.00
Br824  Br    0.92796   0.77940   0.88929   0.00000  Uiso   1.00
Br825  Br    0.57203   0.77943   0.11071   0.00000  Uiso   1.00
Br826  Br    0.77940   0.92796   0.88929   0.00000  Uiso   1.00
Br827  Br    0.86182   0.98350   0.45555   0.00000  Uiso   1.00
Br828  Br    0.77943   0.57203   0.11071   0.00000  Uiso   1.00
Br829  Br    0.57204   0.72060   0.88929   0.00000  Uiso   1.00
Br830  Br    0.92797   0.72057   0.11071   0.00000  Uiso   1.00
Br831  Br    0.63817   0.98353   0.54445   0.00000  Uiso   1.00
Br832  Br    0.98350   0.86182   0.45555   0.00000  Uiso   1.00
Br833  Br    0.98353   0.63817   0.54445   0.00000  Uiso   1.00
Br834  Br    0.63818   0.51650   0.45555   0.00000  Uiso   1.00
Br835  Br    0.86183   0.51647   0.54445   0.00000  Uiso   1.00
Br836  Br    0.73350   0.88818   0.95555   0.00000  Uiso   1.00
C837   C     0.50688   0.78250   0.41809   0.00000  Uiso   1.00
C838   C     0.74311   0.96750   0.08191   0.00000  Uiso   1.00
C839   C     0.71641   0.50159   0.54120   0.00000  Uiso   1.00
C840   C     0.50158   0.78359   0.45880   0.00000  Uiso   1.00
C841   C     0.50159   0.71641   0.54120   0.00000  Uiso   1.00
C842   C     0.71641   0.99842   0.45880   0.00000  Uiso   1.00
C843   C     0.78359   0.99841   0.54120   0.00000  Uiso   1.00
C844   C     0.75158   0.96641   0.95880   0.00000  Uiso   1.00
C845   C     0.75160   0.53359   0.04120   0.00000  Uiso   1.00
C846   C     0.53359   0.74842   0.95880   0.00000  Uiso   1.00
C847   C     0.96641   0.74840   0.04120   0.00000  Uiso   1.00
C848   C     0.74842   0.53359   0.95880   0.00000  Uiso   1.00
C849   C     0.96750   0.75688   0.91809   0.00000  Uiso   1.00
C850   C     0.74840   0.96641   0.04120   0.00000  Uiso   1.00
C851   C     0.96641   0.75158   0.95880   0.00000  Uiso   1.00
C852   C     0.53359   0.75160   0.04120   0.00000  Uiso   1.00
C853   C     0.59814   0.84814   0.25000   0.00000  Uiso   1.00
C854   C     0.90186   0.65186   0.75000   0.00000  Uiso   1.00
C855   C     0.65186   0.59814   0.25000   0.00000  Uiso   1.00
C856   C     0.84814   0.90186   0.75000   0.00000  Uiso   1.00
C857   C     0.90186   0.65186   0.25000   0.00000  Uiso   1.00
C858   C     0.59814   0.84814   0.75000   0.00000  Uiso   1.00
C859   C     0.84814   0.90186   0.25000   0.00000  Uiso   1.00
C860   C     0.53250   0.75689   0.08191   0.00000  Uiso   1.00
C861   C     0.65186   0.59814   0.75000   0.00000  Uiso   1.00
C862   C     0.59814   0.65186   0.75000   0.00000  Uiso   1.00
C863   C     0.90186   0.84814   0.25000   0.00000  Uiso   1.00
C864   C     0.65186   0.90186   0.75000   0.00000  Uiso   1.00
C865   C     0.84814   0.59814   0.25000   0.00000  Uiso   1.00
C866   C     0.90186   0.84814   0.75000   0.00000  Uiso   1.00
C867   C     0.59814   0.65186   0.25000   0.00000  Uiso   1.00
C868   C     0.84814   0.59814   0.75000   0.00000  Uiso   1.00
C869   C     0.65186   0.90186   0.25000   0.00000  Uiso   1.00
C870   C     0.50000   0.75000   0.47942   0.00000  Uiso   1.00
C871   C     0.75688   0.96750   0.91809   0.00000  Uiso   1.00
C872   C     0.50000   0.75000   0.52058   0.00000  Uiso   1.00
C873   C     0.75000   0.50000   0.47942   0.00000  Uiso   1.00
C874   C     0.75000   0.50000   0.52058   0.00000  Uiso   1.00
C875   C     0.75000   0.50000   0.97942   0.00000  Uiso   1.00
C876   C     0.75000   0.50000   0.02058   0.00000  Uiso   1.00
C877   C     0.50000   0.75000   0.97942   0.00000  Uiso   1.00
C878   C     0.50000   0.75000   0.02058   0.00000  Uiso   1.00
C879   C     0.75689   0.53250   0.08191   0.00000  Uiso   1.00
C880   C     0.53250   0.74312   0.91809   0.00000  Uiso   1.00
C881   C     0.96750   0.74311   0.08191   0.00000  Uiso   1.00
C882   C     0.50000   0.75000   0.39807   0.00000  Uiso   1.00
C883   C     0.50000   0.75000   0.60193   0.00000  Uiso   1.00
C884   C     0.75000   0.50000   0.39807   0.00000  Uiso   1.00
C885   C     0.50689   0.71750   0.58191   0.00000  Uiso   1.00
C886   C     0.75000   0.50000   0.60193   0.00000  Uiso   1.00
C887   C     0.75000   0.50000   0.89807   0.00000  Uiso   1.00
C888   C     0.75000   0.50000   0.10193   0.00000  Uiso   1.00
C889   C     0.50000   0.75000   0.89807   0.00000  Uiso   1.00
C890   C     0.50000   0.75000   0.10193   0.00000  Uiso   1.00
C891   C     0.50092   0.68327   0.47967   0.00000  Uiso   1.00
C892   C     0.50091   0.81673   0.52033   0.00000  Uiso   1.00
C893   C     0.81673   0.99908   0.47967   0.00000  Uiso   1.00
C894   C     0.68327   0.99909   0.52033   0.00000  Uiso   1.00
C895   C     0.99907   0.81673   0.47967   0.00000  Uiso   1.00
C896   C     0.71750   0.99312   0.41808   0.00000  Uiso   1.00
C897   C     0.99909   0.68327   0.52033   0.00000  Uiso   1.00
C898   C     0.68327   0.50093   0.47967   0.00000  Uiso   1.00
C899   C     0.81673   0.50091   0.52033   0.00000  Uiso   1.00
C900   C     0.74907   0.93327   0.97967   0.00000  Uiso   1.00
C901   C     0.74910   0.56673   0.02033   0.00000  Uiso   1.00
C902   C     0.56673   0.75093   0.97967   0.00000  Uiso   1.00
C903   C     0.93327   0.75090   0.02033   0.00000  Uiso   1.00
C904   C     0.75093   0.56673   0.97967   0.00000  Uiso   1.00
C905   C     0.75090   0.93327   0.02033   0.00000  Uiso   1.00
C906   C     0.93327   0.74907   0.97967   0.00000  Uiso   1.00
C907   C     0.78250   0.99311   0.58191   0.00000  Uiso   1.00
C908   C     0.56673   0.74910   0.02033   0.00000  Uiso   1.00
C909   C     0.75000   0.50000   0.35577   0.00000  Uiso   1.00
C910   C     0.75000   0.50000   0.64423   0.00000  Uiso   1.00
C911   C     0.50000   0.75000   0.35577   0.00000  Uiso   1.00
C912   C     0.50000   0.75000   0.64423   0.00000  Uiso   1.00
C913   C     0.50000   0.75000   0.85577   0.00000  Uiso   1.00
C914   C     0.50000   0.75000   0.14423   0.00000  Uiso   1.00
C915   C     0.75000   0.50000   0.85577   0.00000  Uiso   1.00
C916   C     0.75000   0.50000   0.14423   0.00000  Uiso   1.00
C917   C     0.67993   0.57007   0.25000   0.00000  Uiso   1.00
C918   C     0.99312   0.71750   0.41808   0.00000  Uiso   1.00
C919   C     0.82007   0.92993   0.75000   0.00000  Uiso   1.00
C920   C     0.92993   0.67993   0.25000   0.00000  Uiso   1.00
C921   C     0.57007   0.82007   0.75000   0.00000  Uiso   1.00
C922   C     0.82007   0.92993   0.25000   0.00000  Uiso   1.00
C923   C     0.67993   0.57007   0.75000   0.00000  Uiso   1.00
C924   C     0.57007   0.82007   0.25000   0.00000  Uiso   1.00
C925   C     0.92993   0.67993   0.75000   0.00000  Uiso   1.00
C926   C     0.67993   0.92993   0.75000   0.00000  Uiso   1.00
C927   C     0.82007   0.57007   0.25000   0.00000  Uiso   1.00
C928   C     0.92993   0.82007   0.75000   0.00000  Uiso   1.00
C929   C     0.99311   0.78250   0.58191   0.00000  Uiso   1.00
C930   C     0.57007   0.67993   0.25000   0.00000  Uiso   1.00
C931   C     0.82007   0.57007   0.75000   0.00000  Uiso   1.00
C932   C     0.67993   0.92993   0.25000   0.00000  Uiso   1.00
C933   C     0.57007   0.67993   0.75000   0.00000  Uiso   1.00
C934   C     0.92993   0.82007   0.25000   0.00000  Uiso   1.00
C935   C     0.62244   0.90429   0.22408   0.00000  Uiso   1.00
C936   C     0.87804   0.59524   0.77522   0.00000  Uiso   1.00
C937   C     0.59524   0.62196   0.22477   0.00000  Uiso   1.00
C938   C     0.90428   0.87756   0.77592   0.00000  Uiso   1.00
C939   C     0.87756   0.59572   0.22408   0.00000  Uiso   1.00
C940   C     0.78250   0.50688   0.41809   0.00000  Uiso   1.00
C941   C     0.62196   0.90476   0.77522   0.00000  Uiso   1.00
C942   C     0.90476   0.87804   0.22478   0.00000  Uiso   1.00
C943   C     0.59571   0.62244   0.77592   0.00000  Uiso   1.00
C944   C     0.62244   0.59572   0.77592   0.00000  Uiso   1.00
C945   C     0.87804   0.90476   0.22478   0.00000  Uiso   1.00
C946   C     0.59524   0.87804   0.77522   0.00000  Uiso   1.00
C947   C     0.90428   0.62244   0.22408   0.00000  Uiso   1.00
C948   C     0.87756   0.90429   0.77592   0.00000  Uiso   1.00
C949   C     0.62196   0.59524   0.22477   0.00000  Uiso   1.00
C950   C     0.90476   0.62196   0.77522   0.00000  Uiso   1.00
C951   C     0.71750   0.50689   0.58191   0.00000  Uiso   1.00
C952   C     0.59571   0.87756   0.22408   0.00000  Uiso   1.00
C953   C     0.87196   0.65476   0.72478   0.00000  Uiso   1.00
C954   C     0.62756   0.84572   0.27592   0.00000  Uiso   1.00
C955   C     0.84571   0.87244   0.72408   0.00000  Uiso   1.00
C956   C     0.65476   0.62804   0.27522   0.00000  Uiso   1.00
C957   C     0.62804   0.84524   0.72478   0.00000  Uiso   1.00
C958   C     0.87244   0.65429   0.27592   0.00000  Uiso   1.00
C959   C     0.65428   0.62756   0.72408   0.00000  Uiso   1.00
C960   C     0.84524   0.87196   0.27522   0.00000  Uiso   1.00
C961   C     0.87196   0.84524   0.27522   0.00000  Uiso   1.00
C962   C     0.74312   0.53250   0.91809   0.00000  Uiso   1.00
C963   C     0.62756   0.65429   0.72408   0.00000  Uiso   1.00
C964   C     0.84571   0.62756   0.27592   0.00000  Uiso   1.00
C965   C     0.65476   0.87196   0.72478   0.00000  Uiso   1.00
C966   C     0.62804   0.65476   0.27522   0.00000  Uiso   1.00
C967   C     0.87244   0.84572   0.72408   0.00000  Uiso   1.00
C968   C     0.65428   0.87244   0.27592   0.00000  Uiso   1.00
C969   C     0.84524   0.62804   0.72478   0.00000  Uiso   1.00
C970   C     0.99842   0.71641   0.45880   0.00000  Uiso   1.00
C971   C     0.99841   0.78359   0.54120   0.00000  Uiso   1.00
C972   C     0.78359   0.50158   0.45880   0.00000  Uiso   1.00
H973   H     0.62005   0.92676   0.20378   0.00000  Uiso   1.00
H974   H     0.88083   0.92763   0.20504   0.00000  Uiso   1.00
H975   H     0.57237   0.88083   0.79496   0.00000  Uiso   1.00
H976   H     0.92676   0.62005   0.20378   0.00000  Uiso   1.00
H977   H     0.87995   0.92676   0.79622   0.00000  Uiso   1.00
H978   H     0.61917   0.57237   0.20504   0.00000  Uiso   1.00
H979   H     0.92763   0.61917   0.79496   0.00000  Uiso   1.00
H980   H     0.57324   0.87995   0.20378   0.00000  Uiso   1.00
H981   H     0.86917   0.67763   0.70504   0.00000  Uiso   1.00
H982   H     0.62995   0.82324   0.29622   0.00000  Uiso   1.00
H983   H     0.82324   0.87005   0.70378   0.00000  Uiso   1.00
H984   H     0.88083   0.57237   0.79496   0.00000  Uiso   1.00
H985   H     0.67763   0.63083   0.29496   0.00000  Uiso   1.00
H986   H     0.63083   0.82237   0.70504   0.00000  Uiso   1.00
H987   H     0.87005   0.67676   0.29622   0.00000  Uiso   1.00
H988   H     0.67676   0.62995   0.70378   0.00000  Uiso   1.00
H989   H     0.82237   0.86917   0.29496   0.00000  Uiso   1.00
H990   H     0.86917   0.82237   0.29496   0.00000  Uiso   1.00
H991   H     0.62995   0.67676   0.70378   0.00000  Uiso   1.00
H992   H     0.82324   0.62995   0.29622   0.00000  Uiso   1.00
H993   H     0.67763   0.86917   0.70504   0.00000  Uiso   1.00
H994   H     0.63083   0.67763   0.29496   0.00000  Uiso   1.00
H995   H     0.57237   0.61917   0.20504   0.00000  Uiso   1.00
H996   H     0.87005   0.82324   0.70378   0.00000  Uiso   1.00
H997   H     0.67676   0.87005   0.29622   0.00000  Uiso   1.00
H998   H     0.82237   0.63083   0.70504   0.00000  Uiso   1.00
H999   H     0.92676   0.87995   0.79622   0.00000  Uiso   1.00
H1000  H     0.87995   0.57324   0.20378   0.00000  Uiso   1.00
H1001  H     0.61917   0.92763   0.79496   0.00000  Uiso   1.00
H1002  H     0.92763   0.88083   0.20504   0.00000  Uiso   1.00
H1003  H     0.57324   0.62005   0.79622   0.00000  Uiso   1.00
H1004  H     0.62005   0.57324   0.79622   0.00000  Uiso   1.00
O1005  O     0.75000   0.50000   0.25000   0.00000  Uiso   1.00
O1006  O     0.75000   0.96964   0.66245   0.00000  Uiso   1.00
O1007  O     0.96963   0.75000   0.33755   0.00000  Uiso   1.00
O1008  O     0.53036   0.75000   0.66245   0.00000  Uiso   1.00
O1009  O     0.50000   0.71963   0.83755   0.00000  Uiso   1.00
O1010  O     0.50000   0.78036   0.16245   0.00000  Uiso   1.00
O1011  O     0.78036   0.50000   0.83755   0.00000  Uiso   1.00
O1012  O     0.71963   0.50000   0.16245   0.00000  Uiso   1.00
O1013  O     0.50000   0.78036   0.83755   0.00000  Uiso   1.00
O1014  O     0.50000   0.71963   0.16245   0.00000  Uiso   1.00
O1015  O     0.71963   0.50000   0.83755   0.00000  Uiso   1.00
O1016  O     0.75000   0.50000   0.75000   0.00000  Uiso   1.00
O1017  O     0.78036   0.50000   0.16245   0.00000  Uiso   1.00
O1018  O     0.70724   0.57308   0.27302   0.00000  Uiso   1.00
O1019  O     0.79275   0.92693   0.72698   0.00000  Uiso   1.00
O1020  O     0.92692   0.70725   0.27302   0.00000  Uiso   1.00
O1021  O     0.57307   0.79276   0.72698   0.00000  Uiso   1.00
O1022  O     0.79275   0.92693   0.27302   0.00000  Uiso   1.00
O1023  O     0.70724   0.57308   0.72698   0.00000  Uiso   1.00
O1024  O     0.57307   0.79276   0.27302   0.00000  Uiso   1.00
O1025  O     0.92692   0.70725   0.72698   0.00000  Uiso   1.00
O1026  O     0.70724   0.92693   0.72698   0.00000  Uiso   1.00
O1027  O     0.50000   0.75000   0.25000   0.00000  Uiso   1.00
O1028  O     0.79275   0.57308   0.27302   0.00000  Uiso   1.00
O1029  O     0.92692   0.79276   0.72698   0.00000  Uiso   1.00
O1030  O     0.57307   0.70725   0.27302   0.00000  Uiso   1.00
O1031  O     0.79275   0.57308   0.72698   0.00000  Uiso   1.00
O1032  O     0.70724   0.92693   0.27302   0.00000  Uiso   1.00
O1033  O     0.57307   0.70725   0.72698   0.00000  Uiso   1.00
O1034  O     0.92692   0.79276   0.27302   0.00000  Uiso   1.00
O1035  O     0.95724   0.82308   0.77302   0.00000  Uiso   1.00
O1036  O     0.54275   0.67693   0.22698   0.00000  Uiso   1.00
O1037  O     0.67692   0.95725   0.77302   0.00000  Uiso   1.00
O1038  O     0.50000   0.75000   0.75000   0.00000  Uiso   1.00
O1039  O     0.82307   0.54276   0.22698   0.00000  Uiso   1.00
O1040  O     0.54275   0.67693   0.77302   0.00000  Uiso   1.00
O1041  O     0.95724   0.82308   0.22698   0.00000  Uiso   1.00
O1042  O     0.82307   0.54276   0.77302   0.00000  Uiso   1.00
O1043  O     0.67692   0.95725   0.22698   0.00000  Uiso   1.00
O1044  O     0.95724   0.67693   0.22698   0.00000  Uiso   1.00
O1045  O     0.54275   0.82308   0.77302   0.00000  Uiso   1.00
O1046  O     0.67692   0.54276   0.22698   0.00000  Uiso   1.00
O1047  O     0.82307   0.95725   0.77302   0.00000  Uiso   1.00
O1048  O     0.54275   0.82308   0.22698   0.00000  Uiso   1.00
O1049  O     0.75000   0.96964   0.33755   0.00000  Uiso   1.00
O1050  O     0.95724   0.67693   0.77302   0.00000  Uiso   1.00
O1051  O     0.82307   0.95725   0.22698   0.00000  Uiso   1.00
O1052  O     0.67692   0.54276   0.77302   0.00000  Uiso   1.00
O1053  O     0.75000   0.53037   0.66245   0.00000  Uiso   1.00
O1054  O     0.53036   0.75000   0.33755   0.00000  Uiso   1.00
O1055  O     0.96963   0.75000   0.66245   0.00000  Uiso   1.00
O1056  O     0.75000   0.53037   0.33755   0.00000  Uiso   1.00
Zn1057 Zn    0.70659   0.50000   0.21735   0.00000  Uiso   1.00
Zn1058 Zn    0.54340   0.75000   0.28265   0.00000  Uiso   1.00
Zn1059 Zn    0.75000   0.95660   0.71735   0.00000  Uiso   1.00
Zn1060 Zn    0.75000   0.54341   0.28265   0.00000  Uiso   1.00
Zn1061 Zn    0.54340   0.75000   0.71735   0.00000  Uiso   1.00
Zn1062 Zn    0.95659   0.75000   0.28265   0.00000  Uiso   1.00
Zn1063 Zn    0.75000   0.54341   0.71735   0.00000  Uiso   1.00
Zn1064 Zn    0.75000   0.95660   0.28265   0.00000  Uiso   1.00
Zn1065 Zn    0.79340   0.50000   0.78265   0.00000  Uiso   1.00
Zn1066 Zn    0.50000   0.70659   0.21735   0.00000  Uiso   1.00
Zn1067 Zn    0.50000   0.79340   0.78265   0.00000  Uiso   1.00
Zn1068 Zn    0.79340   0.50000   0.21735   0.00000  Uiso   1.00
Zn1069 Zn    0.70659   0.50000   0.78265   0.00000  Uiso   1.00
Zn1070 Zn    0.50000   0.79340   0.21735   0.00000  Uiso   1.00
Zn1071 Zn    0.50000   0.70659   0.78265   0.00000  Uiso   1.00
Zn1072 Zn    0.95659   0.75000   0.71735   0.00000  Uiso   1.00
loop_
_geom_bond_atom_site_label_1
_geom_bond_atom_site_label_2
_geom_bond_distance
_geom_bond_site_symmetry_2
_ccdc_geom_bond_type
Br1    C87     1.936   .     S
Br2    C97     1.936   .     S
Br3    C98     1.936   .     S
Br4    C99     1.936   .     S
Br5    C100    1.936   .     S
Br6    C101    1.936   .     S
Br7    C102    1.936   .     S
Br8    C104    1.936   .     S
Br9    C33     1.940   .     S
Br10   C81     1.940   .     S
Br11   C92     1.940   .     S
Br12   C88     1.936   .     S
Br13   C103    1.940   .     S
Br14   C114    1.940   .     S
Br15   C125    1.940   .     S
Br16   C136    1.940   .     S
Br17   C147    1.940   .     S
Br18   C158    1.940   .     S
Br19   C34     1.940   .     S
Br20   C45     1.940   .     S
Br21   C56     1.940   .     S
Br22   C67     1.940   .     S
Br23   C89     1.936   .     S
Br24   C75     1.940   .     S
Br25   C76     1.940   .     S
Br26   C77     1.940   .     S
Br27   C90     1.936   .     S
Br28   C91     1.936   .     S
Br29   C93     1.936   .     S
Br30   C94     1.936   .     S
Br31   C95     1.936   .     S
Br32   C96     1.936   .     S
C33    C36     1.412   .     A
C33    C78     1.399   .     A
C34    C46     1.412   .     A
C34    C620    1.399   .     A
C35    C147    1.412   .     A
C35    C70     1.422   .     S
C35    C626    1.414   1_545 S
C36    C66     1.422   .     S
C36    C359    1.414   1_455 S
C37    C81     1.412   .     A
C37    C68     1.422   .     S
C37    C361    1.414   1_455 S
C38    C92     1.412   .     A
C38    C605    1.422   .     A
C38    C630    1.414   .     S
C39    C103    1.412   .     A
C39    C606    1.422   .     A
C39    C631    1.414   .     S
C40    C607    1.422   .     A
C40    C96     1.414   .     A
C40    C67     1.412   .     A
C41    C75     1.412   .     A
C41    C97     1.414   .     A
C41    C72     1.422   .     S
C42    C98     1.414   .     A
C42    C76     1.412   .     A
C42    C73     1.422   .     S
C43    C99     1.414   .     A
C43    C342    1.422   .     A
C43    C77     1.412   .     A
C44    C158    1.412   .     A
C44    C100    1.414   .     A
C44    C71     1.422   .     S
C45    C47     1.412   .     A
C45    C353    1.399   .     S
C46    C608    1.422   .     A
C46    C101    1.414   .     A
C47    C102    1.414   .     A
C47    C341    1.422   .     A
C48    C104    1.414   .     A
C48    C56     1.412   .     A
C48    C74     1.422   .     S
C49    C150    1.402   .     A
C49    C120    1.456   .     S
C49    C148    1.402   .     A
C50    C146    1.402   .     A
C50    C121    1.456   .     S
C50    C149    1.402   .     A
C51    C113    1.456   .     S
C51    C145    1.402   .     A
C51    C152    1.402   .     A
C52    C115    1.456   .     S
C52    C144    1.402   .     A
C52    C151    1.402   .     A
C53    C154    1.402   .     A
C53    C143    1.402   .     A
C53    C116    1.456   .     S
C54    C153    1.402   .     A
C54    C142    1.402   .     A
C54    C117    1.456   .     S
C55    C141    1.402   .     A
C55    C156    1.402   .     A
C55    C118    1.456   .     S
C56    C86     1.399   .     S
C57    C155    1.402   .     A
C57    C119    1.456   .     S
C57    C140    1.402   .     A
C58    C139    1.402   .     A
C58    C159    1.402   .     A
C58    C129    1.456   .     S
C59    C130    1.456   .     S
C59    C138    1.402   .     A
C59    C157    1.402   .     A
C60    C137    1.402   .     A
C60    C161    1.402   .     A
C60    C122    1.456   .     S
C61    C160    1.402   .     A
C61    C123    1.456   .     S
C61    C135    1.402   .     A
C62    C124    1.456   .     S
C62    C163    1.402   .     A
C62    C134    1.402   .     A
C63    C162    1.402   .     A
C63    C133    1.402   .     A
C63    C126    1.456   .     S
C64    C165    1.402   .     A
C64    C132    1.402   .     A
C64    C127    1.456   .     S
C65    C131    1.402   .     A
C65    C128    1.456   .     S
C65    C164    1.402   .     A
C66    C68     1.413   .     A
C66    C434    1.422   1_455 A
C67    C619    1.399   .     S
C68    C435    1.422   1_455 A
C69    C574    1.422   1_545 A
C69    C70     1.413   .     A
C69    C168    1.422   .     S
C70    C575    1.422   1_545 A
C71    C576    1.422   1_545 A
C71    C72     1.413   1_556 S
C72    C582    1.422   1_545 A
C72    C71     1.413   1_554 S
C73    C315    1.422   1_455 A
C73    C74     1.413   1_556 S
C74    C311    1.422   1_455 A
C74    C73     1.413   1_554 S
C75    C84     1.399   .     S
C76    C85     1.399   .     A
C77    C354    1.399   .     A
C78    C107    1.453   .     S
C78    C382    1.399   1_455 S
C79    C393    1.399   1_455 A
C79    C108    1.453   .     S
C79    C81     1.399   .     S
C80    C105    1.453   .     S
C80    C136    1.399   .     A
C80    C628    1.399   1_545 S
C82    C639    1.399   1_545 A
C82    C106    1.453   .     S
C82    C147    1.399   .     S
C83    C111    1.453   .     S
C83    C158    1.399   .     A
C83    C603    1.399   1_545 S
C84    C112    1.453   .     S
C84    C570    1.399   1_545 A
C85    C109    1.453   .     S
C85    C313    1.399   1_455 S
C86    C345    1.399   1_455 A
C86    C110    1.453   .     S
C87    C361    1.398   1_455 S
C87    C434    1.414   1_455 S
C88    C359    1.398   1_455 S
C88    C435    1.414   1_455 S
C89    C631    1.398   .     S
C89    C704    1.414   .     S
C90    C571    1.414   .     S
C90    C630    1.398   .     S
C91    C304    1.414   .     S
C91    C356    1.398   .     S
C92    C616    1.399   .     S
C93    C305    1.414   .     S
C93    C355    1.398   .     S
C94    C574    1.414   1_545 S
C94    C626    1.398   1_545 S
C95    C575    1.414   1_545 S
C95    C625    1.398   1_545 S
C96    C101    1.398   1_556 S
C97    C100    1.398   1_554 S
C98    C104    1.398   1_556 S
C99    C102    1.398   1_554 S
C100   C97     1.398   1_556 S
C101   C96     1.398   1_554 S
C102   C99     1.398   1_556 S
C103   C618    1.399   .     A
C104   C98     1.398   1_554 S
C105   O252    1.278   .     A
C105   O781    1.278   1_545 S
C106   O738    1.278   1_545 A
C106   O249    1.278   .     S
C107   O250    1.278   .     A
C107   O471    1.278   1_455 S
C108   O519    1.278   1_455 A
C108   O204    1.278   .     S
C109   O209    1.278   .     A
C109   O205    1.278   .     A
C110   O206    1.278   .     S
C110   O210    1.278   .     S
C111   O211    1.278   .     A
C111   O207    1.278   .     A
C112   O208    1.278   .     S
C112   O213    1.278   .     S
C113   O214    1.281   .     A
C113   O242    1.281   .     A
C114   C166    1.412   .     A
C114   C346    1.399   .     S
C115   O215    1.281   .     A
C115   O243    1.281   .     A
C116   O216    1.281   .     A
C116   O240    1.281   .     A
C117   O217    1.281   .     A
C117   O241    1.281   .     A
C118   O247    1.281   .     A
C118   O218    1.281   .     A
C119   O219    1.281   .     A
C119   O248    1.281   .     A
C120   O244    1.281   .     A
C120   O220    1.281   .     A
C121   O221    1.281   .     A
C121   O246    1.281   .     A
C122   O222    1.281   .     A
C122   O233    1.281   .     A
C123   O235    1.281   .     A
C123   O224    1.281   .     A
C124   O225    1.281   .     A
C124   O231    1.281   .     A
C125   C167    1.412   .     A
C125   C347    1.399   .     A
C126   O226    1.281   .     A
C126   O232    1.281   .     A
C127   O227    1.281   .     A
C127   O238    1.281   .     A
C128   O239    1.281   .     A
C128   O228    1.281   .     A
C129   O229    1.281   .     A
C129   O236    1.281   .     A
C130   O237    1.281   .     A
C130   O230    1.281   .     A
C131   C148    1.386   .     A
C131   H169    1.083   .     S
C132   H180    1.083   .     S
C132   C146    1.386   .     A
C133   H191    1.083   .     S
C133   C145    1.386   .     A
C134   H195    1.083   .     S
C134   C144    1.386   .     A
C135   H196    1.083   .     S
C135   C143    1.386   .     A
C136   C168    1.412   .     A
C137   C142    1.386   .     A
C137   H197    1.083   .     S
C138   H198    1.083   .     S
C138   C141    1.386   .     A
C139   H199    1.083   .     S
C139   C140    1.386   .     A
C140   H200    1.083   .     S
C141   H170    1.083   .     S
C142   H171    1.083   .     S
C143   H172    1.083   .     S
C144   H173    1.083   .     S
C145   H174    1.083   .     S
C146   H175    1.083   .     S
C148   H176    1.083   .     S
C149   H177    1.083   .     S
C149   C165    1.386   .     A
C150   H178    1.083   .     S
C150   C164    1.386   .     A
C151   C163    1.386   .     A
C151   H179    1.083   .     S
C152   H181    1.083   .     S
C152   C162    1.386   .     A
C153   C161    1.386   .     A
C153   H182    1.083   .     S
C154   H183    1.083   .     S
C154   C160    1.386   .     A
C155   C159    1.386   .     A
C155   H184    1.083   .     S
C156   C157    1.386   .     A
C156   H185    1.083   .     S
C157   H186    1.083   .     S
C159   H187    1.083   .     S
C160   H188    1.083   .     S
C161   H189    1.083   .     S
C162   H190    1.083   .     S
C163   H192    1.083   .     S
C164   H193    1.083   .     S
C165   H194    1.083   .     S
C166   C334    1.422   .     A
C166   C355    1.414   .     S
C167   C336    1.422   .     A
C167   C356    1.414   .     S
C168   C625    1.414   1_545 S
O201   Zn264   1.947   .     S
O201   Zn256   1.947   .     S
O201   Zn253   1.947   .     S
O201   Zn796   1.947   1_545 S
O202   C642    1.278   .     A
O202   Zn255   1.945   .     S
O203   Zn258   1.945   .     S
O203   C375    1.278   .     S
O204   Zn257   1.945   .     S
O205   Zn267   1.945   .     S
O206   Zn266   1.945   .     S
O207   Zn261   1.945   .     S
O208   Zn253   1.945   .     S
O209   Zn263   1.945   .     S
O210   Zn262   1.945   .     S
O211   Zn265   1.945   .     S
O212   Zn791   1.947   1_545 S
O212   Zn259   1.947   .     S
O212   Zn261   1.947   .     S
O212   Zn265   1.947   .     S
O213   Zn264   1.945   .     S
O214   Zn256   1.938   .     S
O215   Zn255   1.938   .     S
O216   Zn258   1.938   .     S
O217   Zn257   1.938   .     S
O218   Zn260   1.938   .     S
O219   Zn259   1.938   .     S
O220   Zn254   1.938   .     S
O221   Zn268   1.938   .     S
O222   Zn255   1.938   .     S
O223   Zn266   1.947   .     S
O223   Zn254   1.947   .     S
O223   Zn262   1.947   .     S
O223   Zn526   1.947   1_455 S
O224   Zn256   1.938   .     S
O225   Zn268   1.938   .     S
O226   Zn254   1.938   .     S
O227   Zn259   1.938   .     S
O228   Zn260   1.938   .     S
O229   Zn257   1.938   .     S
O230   Zn258   1.938   .     S
O231   Zn531   1.938   .     S
O232   Zn262   1.938   .     S
O233   Zn801   1.938   .     S
O234   Zn257   1.947   .     S
O234   Zn263   1.947   .     S
O234   Zn267   1.947   .     S
O234   Zn536   1.947   1_455 S
O235   Zn264   1.938   .     S
O236   Zn267   1.938   .     S
O237   Zn534   1.938   .     S
O238   Zn261   1.938   .     S
O239   Zn789   1.938   .     S
O240   Zn530   1.938   .     S
O241   Zn263   1.938   .     S
O242   Zn253   1.938   .     S
O243   Zn797   1.938   .     S
O244   Zn266   1.938   .     S
O245   Zn260   1.945   .     S
O245   C641    1.278   .     S
O246   Zn535   1.938   .     S
O247   Zn800   1.938   .     S
O248   Zn265   1.938   .     S
O249   Zn259   1.945   .     S
O250   Zn254   1.945   .     S
O251   C376    1.278   .     A
O251   Zn268   1.945   .     S
O252   Zn256   1.945   .     S
Zn253  O775    1.938   1_545 S
Zn255  O748    1.947   .     S
Zn258  O491    1.947   .     S
Zn260  O737    1.947   .     S
Zn261  O779    1.938   1_545 S
Zn262  O508    1.938   1_455 S
Zn263  O499    1.938   1_455 S
Zn264  O783    1.938   1_545 S
Zn265  O769    1.938   1_545 S
Zn266  O505    1.938   1_455 S
Zn267  O514    1.938   1_455 S
Zn268  O502    1.947   .     S
Br269  C355    1.936   .     S
Br270  C365    1.936   .     S
Br271  C366    1.936   .     S
Br272  C367    1.936   .     S
Br273  C368    1.936   .     S
Br274  C369    1.936   .     S
Br275  C370    1.936   .     S
Br276  C372    1.936   .     S
Br277  C301    1.940   .     S
Br278  C349    1.940   .     S
Br279  C360    1.940   .     S
Br280  C356    1.936   .     S
Br281  C371    1.940   .     S
Br282  C382    1.940   .     S
Br283  C393    1.940   .     S
Br284  C404    1.940   .     S
Br285  C415    1.940   .     S
Br286  C426    1.940   .     S
Br287  C302    1.940   .     S
Br288  C313    1.940   .     S
Br289  C324    1.940   .     S
Br290  C335    1.940   .     S
Br291  C357    1.936   .     S
Br292  C343    1.940   .     S
Br293  C344    1.940   .     S
Br294  C345    1.940   .     S
Br295  C358    1.936   .     S
Br296  C359    1.936   .     S
Br297  C361    1.936   .     S
Br298  C362    1.936   .     S
Br299  C363    1.936   .     S
Br300  C364    1.936   .     S
C301   C304    1.412   .     A
C301   C346    1.399   .     A
C302   C314    1.412   .     A
C302   C888    1.399   .     A
C303   C415    1.412   .     A
C303   C338    1.422   .     S
C303   C894    1.414   1_545 S
C304   C334    1.422   .     S
C305   C349    1.412   .     A
C305   C336    1.422   .     S
C306   C360    1.412   .     A
C306   C873    1.422   .     A
C306   C898    1.414   .     S
C307   C371    1.412   .     A
C307   C874    1.422   .     A
C307   C899    1.414   .     S
C308   C875    1.422   .     A
C308   C364    1.414   .     A
C308   C335    1.412   .     A
C309   C343    1.412   .     A
C309   C365    1.414   .     A
C309   C340    1.422   .     S
C310   C366    1.414   .     A
C310   C344    1.412   .     A
C310   C341    1.422   .     S
C311   C367    1.414   .     A
C311   C74     1.422   1_655 A
C311   C345    1.412   .     A
C312   C426    1.412   .     A
C312   C368    1.414   .     A
C312   C339    1.422   .     S
C313   C315    1.412   .     A
C313   C85     1.399   1_655 S
C314   C876    1.422   .     A
C314   C369    1.414   .     A
C315   C370    1.414   .     A
C315   C73     1.422   1_655 A
C316   C372    1.414   .     A
C316   C324    1.412   .     A
C316   C342    1.422   .     S
C317   C418    1.402   .     A
C317   C388    1.456   .     S
C317   C416    1.402   .     A
C318   C414    1.402   .     A
C318   C389    1.456   .     S
C318   C417    1.402   .     A
C319   C381    1.456   .     S
C319   C413    1.402   .     A
C319   C420    1.402   .     A
C320   C383    1.456   .     S
C320   C412    1.402   .     A
C320   C419    1.402   .     A
C321   C422    1.402   .     A
C321   C411    1.402   .     A
C321   C384    1.456   .     S
C322   C421    1.402   .     A
C322   C410    1.402   .     A
C322   C385    1.456   .     S
C323   C409    1.402   .     A
C323   C424    1.402   .     A
C323   C386    1.456   .     S
C324   C354    1.399   .     S
C325   C423    1.402   .     A
C325   C387    1.456   .     S
C325   C408    1.402   .     A
C326   C407    1.402   .     A
C326   C427    1.402   .     A
C326   C397    1.456   .     S
C327   C398    1.456   .     S
C327   C406    1.402   .     A
C327   C425    1.402   .     A
C328   C405    1.402   .     A
C328   C429    1.402   .     A
C328   C390    1.456   .     S
C329   C428    1.402   .     A
C329   C391    1.456   .     S
C329   C403    1.402   .     A
C330   C392    1.456   .     S
C330   C431    1.402   .     A
C330   C402    1.402   .     A
C331   C430    1.402   .     A
C331   C401    1.402   .     A
C331   C394    1.456   .     S
C332   C433    1.402   .     A
C332   C400    1.402   .     A
C332   C395    1.456   .     S
C333   C399    1.402   .     A
C333   C396    1.456   .     S
C333   C432    1.402   .     A
C334   C336    1.413   .     A
C335   C887    1.399   .     S
C337   C842    1.422   1_545 A
C337   C338    1.413   .     A
C337   C436    1.422   .     S
C338   C843    1.422   1_545 A
C339   C844    1.422   1_545 A
C339   C340    1.413   1_556 S
C340   C850    1.422   1_545 A
C340   C339    1.413   1_554 S
C341   C342    1.413   1_556 S
C342   C341    1.413   1_554 S
C343   C352    1.399   .     S
C344   C353    1.399   .     A
C345   C86     1.399   1_655 A
C346   C375    1.453   .     S
C347   C376    1.453   .     S
C347   C349    1.399   .     S
C348   C373    1.453   .     S
C348   C404    1.399   .     A
C348   C896    1.399   1_545 S
C350   C907    1.399   1_545 A
C350   C374    1.453   .     S
C350   C415    1.399   .     S
C351   C379    1.453   .     S
C351   C426    1.399   .     A
C351   C871    1.399   1_545 S
C352   C380    1.453   .     S
C352   C838    1.399   1_545 A
C353   C377    1.453   .     S
C354   C378    1.453   .     S
C357   C899    1.398   .     S
C357   C972    1.414   .     S
C358   C839    1.414   .     S
C358   C898    1.398   .     S
C359   C36     1.414   1_655 S
C359   C88     1.398   1_655 S
C360   C884    1.399   .     S
C361   C37     1.414   1_655 S
C361   C87     1.398   1_655 S
C362   C842    1.414   1_545 S
C362   C894    1.398   1_545 S
C363   C843    1.414   1_545 S
C363   C893    1.398   1_545 S
C364   C369    1.398   1_556 S
C365   C368    1.398   1_554 S
C366   C372    1.398   1_556 S
C367   C370    1.398   1_554 S
C368   C365    1.398   1_556 S
C369   C364    1.398   1_554 S
C370   C367    1.398   1_556 S
C371   C886    1.399   .     A
C372   C366    1.398   1_554 S
C373   O520    1.278   .     A
C373   O1049   1.278   1_545 S
C374   O1006   1.278   1_545 A
C374   O517    1.278   .     S
C375   O518    1.278   .     A
C376   O472    1.278   .     S
C377   O477    1.278   .     A
C377   O473    1.278   .     A
C378   O474    1.278   .     S
C378   O478    1.278   .     S
C379   O479    1.278   .     A
C379   O475    1.278   .     A
C380   O476    1.278   .     S
C380   O481    1.278   .     S
C381   O482    1.281   .     A
C381   O510    1.281   .     A
C382   C434    1.412   .     A
C382   C78     1.399   1_655 S
C383   O483    1.281   .     A
C383   O511    1.281   .     A
C384   O484    1.281   .     A
C384   O508    1.281   .     A
C385   O485    1.281   .     A
C385   O509    1.281   .     A
C386   O515    1.281   .     A
C386   O486    1.281   .     A
C387   O487    1.281   .     A
C387   O516    1.281   .     A
C388   O512    1.281   .     A
C388   O488    1.281   .     A
C389   O489    1.281   .     A
C389   O514    1.281   .     A
C390   O490    1.281   .     A
C390   O501    1.281   .     A
C391   O503    1.281   .     A
C391   O492    1.281   .     A
C392   O493    1.281   .     A
C392   O499    1.281   .     A
C393   C435    1.412   .     A
C393   C79     1.399   1_655 A
C394   O494    1.281   .     A
C394   O500    1.281   .     A
C395   O495    1.281   .     A
C395   O506    1.281   .     A
C396   O507    1.281   .     A
C396   O496    1.281   .     A
C397   O497    1.281   .     A
C397   O504    1.281   .     A
C398   O505    1.281   .     A
C398   O498    1.281   .     A
C399   C416    1.386   .     A
C399   H437    1.083   .     S
C400   H448    1.083   .     S
C400   C414    1.386   .     A
C401   H459    1.083   .     S
C401   C413    1.386   .     A
C402   H463    1.083   .     S
C402   C412    1.386   .     A
C403   H464    1.083   .     S
C403   C411    1.386   .     A
C404   C436    1.412   .     A
C405   C410    1.386   .     A
C405   H465    1.083   .     S
C406   H466    1.083   .     S
C406   C409    1.386   .     A
C407   H467    1.083   .     S
C407   C408    1.386   .     A
C408   H468    1.083   .     S
C409   H438    1.083   .     S
C410   H439    1.083   .     S
C411   H440    1.083   .     S
C412   H441    1.083   .     S
C413   H442    1.083   .     S
C414   H443    1.083   .     S
C416   H444    1.083   .     S
C417   H445    1.083   .     S
C417   C433    1.386   .     A
C418   H446    1.083   .     S
C418   C432    1.386   .     A
C419   C431    1.386   .     A
C419   H447    1.083   .     S
C420   H449    1.083   .     S
C420   C430    1.386   .     A
C421   C429    1.386   .     A
C421   H450    1.083   .     S
C422   H451    1.083   .     S
C422   C428    1.386   .     A
C423   C427    1.386   .     A
C423   H452    1.083   .     S
C424   C425    1.386   .     A
C424   H453    1.083   .     S
C425   H454    1.083   .     S
C427   H455    1.083   .     S
C428   H456    1.083   .     S
C429   H457    1.083   .     S
C430   H458    1.083   .     S
C431   H460    1.083   .     S
C432   H461    1.083   .     S
C433   H462    1.083   .     S
C434   C66     1.422   1_655 A
C434   C87     1.414   1_655 S
C435   C68     1.422   1_655 A
C435   C88     1.414   1_655 S
C436   C893    1.414   1_545 S
O469   Zn532   1.947   .     S
O469   Zn524   1.947   .     S
O469   Zn521   1.947   .     S
O469   Zn1064  1.947   1_545 S
O470   C910    1.278   .     A
O470   Zn523   1.945   .     S
O471   Zn526   1.945   .     S
O471   C107    1.278   1_655 S
O472   Zn525   1.945   .     S
O473   Zn535   1.945   .     S
O474   Zn534   1.945   .     S
O475   Zn529   1.945   .     S
O476   Zn521   1.945   .     S
O477   Zn531   1.945   .     S
O478   Zn530   1.945   .     S
O479   Zn533   1.945   .     S
O480   Zn1059  1.947   1_545 S
O480   Zn527   1.947   .     S
O480   Zn529   1.947   .     S
O480   Zn533   1.947   .     S
O481   Zn532   1.945   .     S
O482   Zn524   1.938   .     S
O483   Zn523   1.938   .     S
O484   Zn526   1.938   .     S
O485   Zn525   1.938   .     S
O486   Zn528   1.938   .     S
O487   Zn527   1.938   .     S
O488   Zn522   1.938   .     S
O489   Zn536   1.938   .     S
O490   Zn523   1.938   .     S
O491   Zn534   1.947   .     S
O491   Zn522   1.947   .     S
O491   Zn530   1.947   .     S
O492   Zn524   1.938   .     S
O493   Zn536   1.938   .     S
O494   Zn522   1.938   .     S
O495   Zn527   1.938   .     S
O496   Zn528   1.938   .     S
O497   Zn525   1.938   .     S
O498   Zn526   1.938   .     S
O499   Zn263   1.938   1_655 S
O500   Zn530   1.938   .     S
O501   Zn1069  1.938   .     S
O502   Zn525   1.947   .     S
O502   Zn531   1.947   .     S
O502   Zn535   1.947   .     S
O503   Zn532   1.938   .     S
O504   Zn535   1.938   .     S
O505   Zn266   1.938   1_655 S
O506   Zn529   1.938   .     S
O507   Zn1057  1.938   .     S
O508   Zn262   1.938   1_655 S
O509   Zn531   1.938   .     S
O510   Zn521   1.938   .     S
O511   Zn1065  1.938   .     S
O512   Zn534   1.938   .     S
O513   Zn528   1.945   .     S
O513   C909    1.278   .     S
O514   Zn267   1.938   1_655 S
O515   Zn1068  1.938   .     S
O516   Zn533   1.938   .     S
O517   Zn527   1.945   .     S
O518   Zn522   1.945   .     S
O519   C108    1.278   1_655 A
O519   Zn536   1.945   .     S
O520   Zn524   1.945   .     S
Zn521  O1043   1.938   1_545 S
Zn523  O1016   1.947   .     S
Zn526  O223    1.947   1_655 S
Zn528  O1005   1.947   .     S
Zn529  O1047   1.938   1_545 S
Zn532  O1051   1.938   1_545 S
Zn533  O1037   1.938   1_545 S
Zn536  O234    1.947   1_655 S
Br537  C623    1.936   .     S
Br538  C633    1.936   .     S
Br539  C634    1.936   .     S
Br540  C635    1.936   .     S
Br541  C636    1.936   .     S
Br542  C637    1.936   .     S
Br543  C638    1.936   .     S
Br544  C640    1.936   .     S
Br545  C569    1.940   .     S
Br546  C617    1.940   .     S
Br547  C628    1.940   .     S
Br548  C624    1.936   .     S
Br549  C639    1.940   .     S
Br550  C650    1.940   .     S
Br551  C661    1.940   .     S
Br552  C672    1.940   .     S
Br553  C683    1.940   .     S
Br554  C694    1.940   .     S
Br555  C570    1.940   .     S
Br556  C581    1.940   .     S
Br557  C592    1.940   .     S
Br558  C603    1.940   .     S
Br559  C625    1.936   .     S
Br560  C611    1.940   .     S
Br561  C612    1.940   .     S
Br562  C613    1.940   .     S
Br563  C626    1.936   .     S
Br564  C627    1.936   .     S
Br565  C629    1.936   .     S
Br566  C630    1.936   .     S
Br567  C631    1.936   .     S
Br568  C632    1.936   .     S
C569   C572    1.412   .     A
C569   C614    1.399   .     A
C570   C582    1.412   .     A
C570   C84     1.399   1_565 A
C571   C683    1.412   .     A
C571   C606    1.422   .     S
C572   C602    1.422   .     S
C572   C895    1.414   1_455 S
C573   C617    1.412   .     A
C573   C604    1.422   .     S
C573   C897    1.414   1_455 S
C574   C628    1.412   .     A
C574   C69     1.422   1_565 A
C574   C94     1.414   1_565 S
C575   C639    1.412   .     A
C575   C70     1.422   1_565 A
C575   C95     1.414   1_565 S
C576   C71     1.422   1_565 A
C576   C632    1.414   .     A
C576   C603    1.412   .     A
C577   C611    1.412   .     A
C577   C633    1.414   .     A
C577   C608    1.422   .     S
C578   C634    1.414   .     A
C578   C612    1.412   .     A
C578   C609    1.422   .     S
C579   C635    1.414   .     A
C579   C878    1.422   .     A
C579   C613    1.412   .     A
C580   C694    1.412   .     A
C580   C636    1.414   .     A
C580   C607    1.422   .     S
C581   C583    1.412   .     A
C581   C889    1.399   .     S
C582   C72     1.422   1_565 A
C582   C637    1.414   .     A
C583   C638    1.414   .     A
C583   C877    1.422   .     A
C584   C640    1.414   .     A
C584   C592    1.412   .     A
C584   C610    1.422   .     S
C585   C686    1.402   .     A
C585   C656    1.456   .     S
C585   C684    1.402   .     A
C586   C682    1.402   .     A
C586   C657    1.456   .     S
C586   C685    1.402   .     A
C587   C649    1.456   .     S
C587   C681    1.402   .     A
C587   C688    1.402   .     A
C588   C651    1.456   .     S
C588   C680    1.402   .     A
C588   C687    1.402   .     A
C589   C690    1.402   .     A
C589   C679    1.402   .     A
C589   C652    1.456   .     S
C590   C689    1.402   .     A
C590   C678    1.402   .     A
C590   C653    1.456   .     S
C591   C677    1.402   .     A
C591   C692    1.402   .     A
C591   C654    1.456   .     S
C592   C622    1.399   .     S
C593   C691    1.402   .     A
C593   C655    1.456   .     S
C593   C676    1.402   .     A
C594   C675    1.402   .     A
C594   C695    1.402   .     A
C594   C665    1.456   .     S
C595   C666    1.456   .     S
C595   C674    1.402   .     A
C595   C693    1.402   .     A
C596   C673    1.402   .     A
C596   C697    1.402   .     A
C596   C658    1.456   .     S
C597   C696    1.402   .     A
C597   C659    1.456   .     S
C597   C671    1.402   .     A
C598   C660    1.456   .     S
C598   C699    1.402   .     A
C598   C670    1.402   .     A
C599   C698    1.402   .     A
C599   C669    1.402   .     A
C599   C662    1.456   .     S
C600   C701    1.402   .     A
C600   C668    1.402   .     A
C600   C663    1.456   .     S
C601   C667    1.402   .     A
C601   C664    1.456   .     S
C601   C700    1.402   .     A
C602   C604    1.413   .     A
C602   C970    1.422   1_455 A
C603   C83     1.399   1_565 S
C604   C971    1.422   1_455 A
C605   C606    1.413   .     A
C605   C704    1.422   .     S
C607   C608    1.413   1_556 S
C608   C607    1.413   1_554 S
C609   C851    1.422   1_455 A
C609   C610    1.413   1_556 S
C610   C847    1.422   1_455 A
C610   C609    1.413   1_554 S
C611   C620    1.399   .     S
C612   C621    1.399   .     A
C613   C890    1.399   .     A
C614   C643    1.453   .     S
C614   C918    1.399   1_455 S
C615   C929    1.399   1_455 A
C615   C644    1.453   .     S
C615   C617    1.399   .     S
C616   C641    1.453   .     S
C616   C672    1.399   .     A
C618   C642    1.453   .     S
C618   C683    1.399   .     S
C619   C647    1.453   .     S
C619   C694    1.399   .     A
C620   C648    1.453   .     S
C621   C645    1.453   .     S
C621   C849    1.399   1_455 S
C622   C881    1.399   1_455 A
C622   C646    1.453   .     S
C623   C897    1.398   1_455 S
C623   C970    1.414   1_455 S
C624   C895    1.398   1_455 S
C624   C971    1.414   1_455 S
C625   C95     1.398   1_565 S
C625   C168    1.414   1_565 S
C626   C35     1.414   1_565 S
C626   C94     1.398   1_565 S
C627   C840    1.414   .     S
C627   C892    1.398   .     S
C628   C80     1.399   1_565 S
C629   C841    1.414   .     S
C629   C891    1.398   .     S
C632   C637    1.398   1_556 S
C633   C636    1.398   1_554 S
C634   C640    1.398   1_556 S
C635   C638    1.398   1_554 S
C636   C633    1.398   1_556 S
C637   C632    1.398   1_554 S
C638   C635    1.398   1_556 S
C639   C82     1.399   1_565 A
C640   C634    1.398   1_554 S
C641   O788    1.278   .     A
C642   O785    1.278   .     S
C643   O786    1.278   .     A
C643   O1007   1.278   1_455 S
C644   O1055   1.278   1_455 A
C644   O740    1.278   .     S
C645   O745    1.278   .     A
C645   O741    1.278   .     A
C646   O742    1.278   .     S
C646   O746    1.278   .     S
C647   O747    1.278   .     A
C647   O743    1.278   .     A
C648   O744    1.278   .     S
C648   O749    1.278   .     S
C649   O750    1.281   .     A
C649   O778    1.281   .     A
C650   C702    1.412   .     A
C650   C882    1.399   .     S
C651   O751    1.281   .     A
C651   O779    1.281   .     A
C652   O752    1.281   .     A
C652   O776    1.281   .     A
C653   O753    1.281   .     A
C653   O777    1.281   .     A
C654   O783    1.281   .     A
C654   O754    1.281   .     A
C655   O755    1.281   .     A
C655   O784    1.281   .     A
C656   O780    1.281   .     A
C656   O756    1.281   .     A
C657   O757    1.281   .     A
C657   O782    1.281   .     A
C658   O758    1.281   .     A
C658   O769    1.281   .     A
C659   O771    1.281   .     A
C659   O760    1.281   .     A
C660   O761    1.281   .     A
C660   O767    1.281   .     A
C661   C703    1.412   .     A
C661   C883    1.399   .     A
C662   O762    1.281   .     A
C662   O768    1.281   .     A
C663   O763    1.281   .     A
C663   O774    1.281   .     A
C664   O775    1.281   .     A
C664   O764    1.281   .     A
C665   O765    1.281   .     A
C665   O772    1.281   .     A
C666   O773    1.281   .     A
C666   O766    1.281   .     A
C667   C684    1.386   .     A
C667   H705    1.083   .     S
C668   H716    1.083   .     S
C668   C682    1.386   .     A
C669   H727    1.083   .     S
C669   C681    1.386   .     A
C670   H731    1.083   .     S
C670   C680    1.386   .     A
C671   H732    1.083   .     S
C671   C679    1.386   .     A
C672   C704    1.412   .     A
C673   C678    1.386   .     A
C673   H733    1.083   .     S
C674   H734    1.083   .     S
C674   C677    1.386   .     A
C675   H735    1.083   .     S
C675   C676    1.386   .     A
C676   H736    1.083   .     S
C677   H706    1.083   .     S
C678   H707    1.083   .     S
C679   H708    1.083   .     S
C680   H709    1.083   .     S
C681   H710    1.083   .     S
C682   H711    1.083   .     S
C684   H712    1.083   .     S
C685   H713    1.083   .     S
C685   C701    1.386   .     A
C686   H714    1.083   .     S
C686   C700    1.386   .     A
C687   C699    1.386   .     A
C687   H715    1.083   .     S
C688   H717    1.083   .     S
C688   C698    1.386   .     A
C689   C697    1.386   .     A
C689   H718    1.083   .     S
C690   H719    1.083   .     S
C690   C696    1.386   .     A
C691   C695    1.386   .     A
C691   H720    1.083   .     S
C692   C693    1.386   .     A
C692   H721    1.083   .     S
C693   H722    1.083   .     S
C695   H723    1.083   .     S
C696   H724    1.083   .     S
C697   H725    1.083   .     S
C698   H726    1.083   .     S
C699   H728    1.083   .     S
C700   H729    1.083   .     S
C701   H730    1.083   .     S
C702   C870    1.422   .     A
C702   C891    1.414   .     S
C703   C872    1.422   .     A
C703   C892    1.414   .     S
O737   Zn800   1.947   .     S
O737   Zn792   1.947   .     S
O737   Zn789   1.947   .     S
O738   C106    1.278   1_565 A
O738   Zn791   1.945   .     S
O739   Zn794   1.945   .     S
O739   C911    1.278   .     S
O740   Zn793   1.945   .     S
O741   Zn803   1.945   .     S
O742   Zn802   1.945   .     S
O743   Zn797   1.945   .     S
O744   Zn789   1.945   .     S
O745   Zn799   1.945   .     S
O746   Zn798   1.945   .     S
O747   Zn801   1.945   .     S
O748   Zn795   1.947   .     S
O748   Zn797   1.947   .     S
O748   Zn801   1.947   .     S
O749   Zn800   1.945   .     S
O750   Zn792   1.938   .     S
O751   Zn791   1.938   .     S
O752   Zn794   1.938   .     S
O753   Zn793   1.938   .     S
O754   Zn796   1.938   .     S
O755   Zn795   1.938   .     S
O756   Zn790   1.938   .     S
O757   Zn804   1.938   .     S
O758   Zn791   1.938   .     S
O759   Zn802   1.947   .     S
O759   Zn790   1.947   .     S
O759   Zn798   1.947   .     S
O759   Zn1062  1.947   1_455 S
O760   Zn792   1.938   .     S
O761   Zn804   1.938   .     S
O762   Zn790   1.938   .     S
O763   Zn795   1.938   .     S
O764   Zn796   1.938   .     S
O765   Zn793   1.938   .     S
O766   Zn794   1.938   .     S
O767   Zn1067  1.938   .     S
O768   Zn798   1.938   .     S
O769   Zn265   1.938   1_565 S
O770   Zn793   1.947   .     S
O770   Zn799   1.947   .     S
O770   Zn803   1.947   .     S
O770   Zn1072  1.947   1_455 S
O771   Zn800   1.938   .     S
O772   Zn803   1.938   .     S
O773   Zn1070  1.938   .     S
O774   Zn797   1.938   .     S
O775   Zn253   1.938   1_565 S
O776   Zn1066  1.938   .     S
O777   Zn799   1.938   .     S
O778   Zn789   1.938   .     S
O779   Zn261   1.938   1_565 S
O780   Zn802   1.938   .     S
O781   Zn796   1.945   .     S
O781   C105    1.278   1_565 S
O782   Zn1071  1.938   .     S
O783   Zn264   1.938   1_565 S
O784   Zn801   1.938   .     S
O785   Zn795   1.945   .     S
O786   Zn790   1.945   .     S
O787   C912    1.278   .     A
O787   Zn804   1.945   .     S
O788   Zn792   1.945   .     S
Zn791  O212    1.947   1_565 S
Zn794  O1027   1.947   .     S
Zn796  O201    1.947   1_565 S
Zn798  O1044   1.938   1_455 S
Zn799  O1035   1.938   1_455 S
Zn802  O1041   1.938   1_455 S
Zn803  O1050   1.938   1_455 S
Zn804  O1038   1.947   .     S
Br805  C891    1.936   .     S
Br806  C901    1.936   .     S
Br807  C902    1.936   .     S
Br808  C903    1.936   .     S
Br809  C904    1.936   .     S
Br810  C905    1.936   .     S
Br811  C906    1.936   .     S
Br812  C908    1.936   .     S
Br813  C837    1.940   .     S
Br814  C885    1.940   .     S
Br815  C896    1.940   .     S
Br816  C892    1.936   .     S
Br817  C907    1.940   .     S
Br818  C918    1.940   .     S
Br819  C929    1.940   .     S
Br820  C940    1.940   .     S
Br821  C951    1.940   .     S
Br822  C962    1.940   .     S
Br823  C838    1.940   .     S
Br824  C849    1.940   .     S
Br825  C860    1.940   .     S
Br826  C871    1.940   .     S
Br827  C893    1.936   .     S
Br828  C879    1.940   .     S
Br829  C880    1.940   .     S
Br830  C881    1.940   .     S
Br831  C894    1.936   .     S
Br832  C895    1.936   .     S
Br833  C897    1.936   .     S
Br834  C898    1.936   .     S
Br835  C899    1.936   .     S
Br836  C900    1.936   .     S
C837   C840    1.412   .     A
C837   C882    1.399   .     A
C838   C850    1.412   .     A
C838   C352    1.399   1_565 A
C839   C951    1.412   .     A
C839   C874    1.422   .     S
C840   C870    1.422   .     S
C841   C885    1.412   .     A
C841   C872    1.422   .     S
C842   C896    1.412   .     A
C842   C337    1.422   1_565 A
C842   C362    1.414   1_565 S
C843   C907    1.412   .     A
C843   C338    1.422   1_565 A
C843   C363    1.414   1_565 S
C844   C339    1.422   1_565 A
C844   C900    1.414   .     A
C844   C871    1.412   .     A
C845   C879    1.412   .     A
C845   C901    1.414   .     A
C845   C876    1.422   .     S
C846   C902    1.414   .     A
C846   C880    1.412   .     A
C846   C877    1.422   .     S
C847   C903    1.414   .     A
C847   C610    1.422   1_655 A
C847   C881    1.412   .     A
C848   C962    1.412   .     A
C848   C904    1.414   .     A
C848   C875    1.422   .     S
C849   C851    1.412   .     A
C849   C621    1.399   1_655 S
C850   C340    1.422   1_565 A
C850   C905    1.414   .     A
C851   C906    1.414   .     A
C851   C609    1.422   1_655 A
C852   C908    1.414   .     A
C852   C860    1.412   .     A
C852   C878    1.422   .     S
C853   C954    1.402   .     A
C853   C924    1.456   .     S
C853   C952    1.402   .     A
C854   C950    1.402   .     A
C854   C925    1.456   .     S
C854   C953    1.402   .     A
C855   C917    1.456   .     S
C855   C949    1.402   .     A
C855   C956    1.402   .     A
C856   C919    1.456   .     S
C856   C948    1.402   .     A
C856   C955    1.402   .     A
C857   C958    1.402   .     A
C857   C947    1.402   .     A
C857   C920    1.456   .     S
C858   C957    1.402   .     A
C858   C946    1.402   .     A
C858   C921    1.456   .     S
C859   C945    1.402   .     A
C859   C960    1.402   .     A
C859   C922    1.456   .     S
C860   C890    1.399   .     S
C861   C959    1.402   .     A
C861   C923    1.456   .     S
C861   C944    1.402   .     A
C862   C943    1.402   .     A
C862   C963    1.402   .     A
C862   C933    1.456   .     S
C863   C934    1.456   .     S
C863   C942    1.402   .     A
C863   C961    1.402   .     A
C864   C941    1.402   .     A
C864   C965    1.402   .     A
C864   C926    1.456   .     S
C865   C964    1.402   .     A
C865   C927    1.456   .     S
C865   C939    1.402   .     A
C866   C928    1.456   .     S
C866   C967    1.402   .     A
C866   C938    1.402   .     A
C867   C966    1.402   .     A
C867   C937    1.402   .     A
C867   C930    1.456   .     S
C868   C969    1.402   .     A
C868   C936    1.402   .     A
C868   C931    1.456   .     S
C869   C935    1.402   .     A
C869   C932    1.456   .     S
C869   C968    1.402   .     A
C870   C872    1.413   .     A
C871   C351    1.399   1_565 S
C873   C874    1.413   .     A
C873   C972    1.422   .     S
C875   C876    1.413   1_556 S
C876   C875    1.413   1_554 S
C877   C878    1.413   1_556 S
C878   C877    1.413   1_554 S
C879   C888    1.399   .     S
C880   C889    1.399   .     A
C881   C622    1.399   1_655 A
C882   C911    1.453   .     S
C883   C912    1.453   .     S
C883   C885    1.399   .     S
C884   C909    1.453   .     S
C884   C940    1.399   .     A
C886   C910    1.453   .     S
C886   C951    1.399   .     S
C887   C915    1.453   .     S
C887   C962    1.399   .     A
C888   C916    1.453   .     S
C889   C913    1.453   .     S
C890   C914    1.453   .     S
C893   C363    1.398   1_565 S
C893   C436    1.414   1_565 S
C894   C303    1.414   1_565 S
C894   C362    1.398   1_565 S
C895   C572    1.414   1_655 S
C895   C624    1.398   1_655 S
C896   C348    1.399   1_565 S
C897   C573    1.414   1_655 S
C897   C623    1.398   1_655 S
C900   C905    1.398   1_556 S
C901   C904    1.398   1_554 S
C902   C908    1.398   1_556 S
C903   C906    1.398   1_554 S
C904   C901    1.398   1_556 S
C905   C900    1.398   1_554 S
C906   C903    1.398   1_556 S
C907   C350    1.399   1_565 A
C908   C902    1.398   1_554 S
C909   O1056   1.278   .     A
C910   O1053   1.278   .     S
C911   O1054   1.278   .     A
C912   O1008   1.278   .     S
C913   O1013   1.278   .     A
C913   O1009   1.278   .     A
C914   O1010   1.278   .     S
C914   O1014   1.278   .     S
C915   O1015   1.278   .     A
C915   O1011   1.278   .     A
C916   O1012   1.278   .     S
C916   O1017   1.278   .     S
C917   O1018   1.281   .     A
C917   O1046   1.281   .     A
C918   C970    1.412   .     A
C918   C614    1.399   1_655 S
C919   O1019   1.281   .     A
C919   O1047   1.281   .     A
C920   O1020   1.281   .     A
C920   O1044   1.281   .     A
C921   O1021   1.281   .     A
C921   O1045   1.281   .     A
C922   O1051   1.281   .     A
C922   O1022   1.281   .     A
C923   O1023   1.281   .     A
C923   O1052   1.281   .     A
C924   O1048   1.281   .     A
C924   O1024   1.281   .     A
C925   O1025   1.281   .     A
C925   O1050   1.281   .     A
C926   O1026   1.281   .     A
C926   O1037   1.281   .     A
C927   O1039   1.281   .     A
C927   O1028   1.281   .     A
C928   O1029   1.281   .     A
C928   O1035   1.281   .     A
C929   C971    1.412   .     A
C929   C615    1.399   1_655 A
C930   O1030   1.281   .     A
C930   O1036   1.281   .     A
C931   O1031   1.281   .     A
C931   O1042   1.281   .     A
C932   O1043   1.281   .     A
C932   O1032   1.281   .     A
C933   O1033   1.281   .     A
C933   O1040   1.281   .     A
C934   O1041   1.281   .     A
C934   O1034   1.281   .     A
C935   C952    1.386   .     A
C935   H973    1.083   .     S
C936   H984    1.083   .     S
C936   C950    1.386   .     A
C937   H995    1.083   .     S
C937   C949    1.386   .     A
C938   H999    1.083   .     S
C938   C948    1.386   .     A
C939   H1000   1.083   .     S
C939   C947    1.386   .     A
C940   C972    1.412   .     A
C941   C946    1.386   .     A
C941   H1001   1.083   .     S
C942   H1002   1.083   .     S
C942   C945    1.386   .     A
C943   H1003   1.083   .     S
C943   C944    1.386   .     A
C944   H1004   1.083   .     S
C945   H974    1.083   .     S
C946   H975    1.083   .     S
C947   H976    1.083   .     S
C948   H977    1.083   .     S
C949   H978    1.083   .     S
C950   H979    1.083   .     S
C952   H980    1.083   .     S
C953   H981    1.083   .     S
C953   C969    1.386   .     A
C954   H982    1.083   .     S
C954   C968    1.386   .     A
C955   C967    1.386   .     A
C955   H983    1.083   .     S
C956   H985    1.083   .     S
C956   C966    1.386   .     A
C957   C965    1.386   .     A
C957   H986    1.083   .     S
C958   H987    1.083   .     S
C958   C964    1.386   .     A
C959   C963    1.386   .     A
C959   H988    1.083   .     S
C960   C961    1.386   .     A
C960   H989    1.083   .     S
C961   H990    1.083   .     S
C963   H991    1.083   .     S
C964   H992    1.083   .     S
C965   H993    1.083   .     S
C966   H994    1.083   .     S
C967   H996    1.083   .     S
C968   H997    1.083   .     S
C969   H998    1.083   .     S
C970   C602    1.422   1_655 A
C970   C623    1.414   1_655 S
C971   C604    1.422   1_655 A
C971   C624    1.414   1_655 S
O1005  Zn1068  1.947   .     S
O1005  Zn1060  1.947   .     S
O1005  Zn1057  1.947   .     S
O1006  C374    1.278   1_565 A
O1006  Zn1059  1.945   .     S
O1007  Zn1062  1.945   .     S
O1007  C643    1.278   1_655 S
O1008  Zn1061  1.945   .     S
O1009  Zn1071  1.945   .     S
O1010  Zn1070  1.945   .     S
O1011  Zn1065  1.945   .     S
O1012  Zn1057  1.945   .     S
O1013  Zn1067  1.945   .     S
O1014  Zn1066  1.945   .     S
O1015  Zn1069  1.945   .     S
O1016  Zn1063  1.947   .     S
O1016  Zn1065  1.947   .     S
O1016  Zn1069  1.947   .     S
O1017  Zn1068  1.945   .     S
O1018  Zn1060  1.938   .     S
O1019  Zn1059  1.938   .     S
O1020  Zn1062  1.938   .     S
O1021  Zn1061  1.938   .     S
O1022  Zn1064  1.938   .     S
O1023  Zn1063  1.938   .     S
O1024  Zn1058  1.938   .     S
O1025  Zn1072  1.938   .     S
O1026  Zn1059  1.938   .     S
O1027  Zn1070  1.947   .     S
O1027  Zn1058  1.947   .     S
O1027  Zn1066  1.947   .     S
O1028  Zn1060  1.938   .     S
O1029  Zn1072  1.938   .     S
O1030  Zn1058  1.938   .     S
O1031  Zn1063  1.938   .     S
O1032  Zn1064  1.938   .     S
O1033  Zn1061  1.938   .     S
O1034  Zn1062  1.938   .     S
O1035  Zn799   1.938   1_655 S
O1036  Zn1066  1.938   .     S
O1037  Zn533   1.938   1_565 S
O1038  Zn1061  1.947   .     S
O1038  Zn1067  1.947   .     S
O1038  Zn1071  1.947   .     S
O1039  Zn1068  1.938   .     S
O1040  Zn1071  1.938   .     S
O1041  Zn802   1.938   1_655 S
O1042  Zn1065  1.938   .     S
O1043  Zn521   1.938   1_565 S
O1044  Zn798   1.938   1_655 S
O1045  Zn1067  1.938   .     S
O1046  Zn1057  1.938   .     S
O1047  Zn529   1.938   1_565 S
O1048  Zn1070  1.938   .     S
O1049  Zn1064  1.945   .     S
O1049  C373    1.278   1_565 S
O1050  Zn803   1.938   1_655 S
O1051  Zn532   1.938   1_565 S
O1052  Zn1069  1.938   .     S
O1053  Zn1063  1.945   .     S
O1054  Zn1058  1.945   .     S
O1055  C644    1.278   1_655 A
O1055  Zn1072  1.945   .     S
O1056  Zn1060  1.945   .     S
Zn1059 O480    1.947   1_565 S
Zn1062 O759    1.947   1_655 S
Zn1064 O469    1.947   1_565 S
Zn1072 O770    1.947   1_655 S
