data_str_m2_o1_o2_pcu_sym.129
_audit_creation_date              2020-01-03
_audit_creation_method            'Materials Studio'
_symmetry_space_group_name_H-M    'P1'
_symmetry_Int_Tables_number       1
_symmetry_cell_setting            triclinic
loop_
_symmetry_equiv_pos_as_xyz
  x,y,z
_cell_length_a                    32.7658
_cell_length_b                    28.5328
_cell_length_c                    30.4389
_cell_angle_alpha                 90.0292
_cell_angle_beta                  90.7376
_cell_angle_gamma                 90.0662
loop_
_atom_site_label
_atom_site_type_symbol
_atom_site_fract_x
_atom_site_fract_y
_atom_site_fract_z
_atom_site_U_iso_or_equiv
_atom_site_adp_type
_atom_site_occupancy
C1     C     0.08739   0.16658   0.24930   0.00000  Uiso   1.00
C2     C     0.24601   0.16667   0.25022   0.00000  Uiso   1.00
C3     C     0.16733   0.16666   0.16508   0.00000  Uiso   1.00
C4     C     0.16584   0.16668   0.33491   0.00000  Uiso   1.00
C5     C     0.14422   0.02475   0.21960   0.00000  Uiso   1.00
C6     C     0.18865   0.30860   0.28078   0.00000  Uiso   1.00
C7     C     0.18910   0.02484   0.28043   0.00000  Uiso   1.00
C8     C     0.14469   0.30853   0.21925   0.00000  Uiso   1.00
C9     C     0.02138   0.12437   0.25728   0.00000  Uiso   1.00
C10    C     0.31236   0.20897   0.24521   0.00000  Uiso   1.00
C11    C     0.31224   0.12383   0.25402   0.00000  Uiso   1.00
C12    C     0.02118   0.20777   0.23946   0.00000  Uiso   1.00
C13    C     0.17498   0.20907   0.04883   0.00000  Uiso   1.00
C14    C     0.15649   0.12475   0.45119   0.00000  Uiso   1.00
C15    C     0.15730   0.20915   0.45109   0.00000  Uiso   1.00
C16    C     0.17495   0.12464   0.04863   0.00000  Uiso   1.00
C17    C     0.17274   0.20891   0.09436   0.00000  Uiso   1.00
C18    C     0.15915   0.12467   0.40567   0.00000  Uiso   1.00
C19    C     0.16001   0.20898   0.40560   0.00000  Uiso   1.00
C20    C     0.17276   0.12459   0.09418   0.00000  Uiso   1.00
C21    C     0.16955   0.16670   0.11718   0.00000  Uiso   1.00
C22    C     0.16311   0.16675   0.38278   0.00000  Uiso   1.00
C23    C     0.16982   0.16690   0.02451   0.00000  Uiso   1.00
C24    C     0.16192   0.16695   0.47538   0.00000  Uiso   1.00
C25    C     0.29070   0.16654   0.25005   0.00000  Uiso   1.00
C26    C     0.04282   0.16623   0.24864   0.00000  Uiso   1.00
Cu27   Cu    0.16667   0.21355   0.25000   0.00000  Uiso   1.00
Cu28   Cu    0.16667   0.11978   0.25000   0.00000  Uiso   1.00
H29    H     0.17522   0.24193   0.11179   0.00000  Uiso   1.00
H30    H     0.15644   0.09164   0.38830   0.00000  Uiso   1.00
H31    H     0.15799   0.24203   0.38818   0.00000  Uiso   1.00
H32    H     0.17524   0.09152   0.11148   0.00000  Uiso   1.00
N33    N     0.16667   0.28402   0.25000   0.00000  Uiso   1.00
N34    N     0.16667   0.04931   0.25000   0.00000  Uiso   1.00
O35    O     0.10655   0.20625   0.25000   0.00000  Uiso   1.00
O36    O     0.22679   0.12709   0.25001   0.00000  Uiso   1.00
O37    O     0.22679   0.20625   0.25001   0.00000  Uiso   1.00
O38    O     0.10655   0.12709   0.25000   0.00000  Uiso   1.00
O39    O     0.16666   0.20626   0.18573   0.00000  Uiso   1.00
O40    O     0.16667   0.12707   0.31427   0.00000  Uiso   1.00
O41    O     0.16667   0.20626   0.31427   0.00000  Uiso   1.00
O42    O     0.16666   0.12707   0.18573   0.00000  Uiso   1.00
F43    F     0.12118   0.04791   0.18939   0.00000  Uiso   1.00
F44    F     0.21024   0.28544   0.31216   0.00000  Uiso   1.00
F45    F     0.21212   0.04809   0.31066   0.00000  Uiso   1.00
F46    F     0.12329   0.28531   0.18781   0.00000  Uiso   1.00
F47    F     0.18778   0.24955   0.03034   0.00000  Uiso   1.00
F48    F     0.14314   0.08456   0.46981   0.00000  Uiso   1.00
F49    F     0.14459   0.24969   0.46952   0.00000  Uiso   1.00
F50    F     0.18758   0.08424   0.02984   0.00000  Uiso   1.00
O51    O     0.04166   0.08273   0.26565   0.00000  Uiso   1.00
C52    C     0.04424   0.07627   0.31153   0.00000  Uiso   1.00
H53    H     0.06095   0.10566   0.32783   0.00000  Uiso   1.00
H54    H     0.06164   0.04366   0.31825   0.00000  Uiso   1.00
H55    H     0.01346   0.07202   0.32603   0.00000  Uiso   1.00
O56    O     0.29227   0.25156   0.24218   0.00000  Uiso   1.00
C57    C     0.29915   0.27667   0.28159   0.00000  Uiso   1.00
H58    H     0.28920   0.25621   0.31072   0.00000  Uiso   1.00
H59    H     0.28096   0.30935   0.28048   0.00000  Uiso   1.00
H60    H     0.33165   0.28721   0.28555   0.00000  Uiso   1.00
O61    O     0.29200   0.08146   0.25807   0.00000  Uiso   1.00
C62    C     0.29135   0.05906   0.21669   0.00000  Uiso   1.00
H63    H     0.32220   0.04602   0.20808   0.00000  Uiso   1.00
H64    H     0.27062   0.02838   0.21828   0.00000  Uiso   1.00
H65    H     0.27928   0.08244   0.19024   0.00000  Uiso   1.00
O66    O     0.04109   0.24820   0.22657   0.00000  Uiso   1.00
C67    C     0.03599   0.25323   0.18068   0.00000  Uiso   1.00
H68    H     0.05362   0.22594   0.16302   0.00000  Uiso   1.00
H69    H     0.04779   0.28806   0.17088   0.00000  Uiso   1.00
H70    H     0.00335   0.25209   0.17011   0.00000  Uiso   1.00
C71    C     0.42072   0.16658   0.24930   0.00000  Uiso   1.00
C72    C     0.57935   0.16667   0.25022   0.00000  Uiso   1.00
C73    C     0.50066   0.16666   0.16508   0.00000  Uiso   1.00
C74    C     0.49917   0.16668   0.33491   0.00000  Uiso   1.00
C75    C     0.47755   0.02475   0.21960   0.00000  Uiso   1.00
C76    C     0.52198   0.30860   0.28078   0.00000  Uiso   1.00
C77    C     0.52243   0.02484   0.28043   0.00000  Uiso   1.00
C78    C     0.47803   0.30853   0.21925   0.00000  Uiso   1.00
C79    C     0.35471   0.12437   0.25728   0.00000  Uiso   1.00
C80    C     0.64569   0.20897   0.24521   0.00000  Uiso   1.00
C81    C     0.64558   0.12383   0.25402   0.00000  Uiso   1.00
C82    C     0.35452   0.20777   0.23946   0.00000  Uiso   1.00
C83    C     0.50831   0.20907   0.04883   0.00000  Uiso   1.00
C84    C     0.48982   0.12475   0.45119   0.00000  Uiso   1.00
C85    C     0.49064   0.20915   0.45109   0.00000  Uiso   1.00
C86    C     0.50828   0.12464   0.04863   0.00000  Uiso   1.00
C87    C     0.50607   0.20891   0.09436   0.00000  Uiso   1.00
C88    C     0.49248   0.12467   0.40567   0.00000  Uiso   1.00
C89    C     0.49335   0.20898   0.40560   0.00000  Uiso   1.00
C90    C     0.50609   0.12459   0.09418   0.00000  Uiso   1.00
C91    C     0.50288   0.16670   0.11718   0.00000  Uiso   1.00
C92    C     0.49645   0.16675   0.38278   0.00000  Uiso   1.00
C93    C     0.50316   0.16690   0.02451   0.00000  Uiso   1.00
C94    C     0.49525   0.16695   0.47538   0.00000  Uiso   1.00
C95    C     0.62404   0.16654   0.25005   0.00000  Uiso   1.00
C96    C     0.37615   0.16623   0.24864   0.00000  Uiso   1.00
Cu97   Cu    0.50000   0.21355   0.25000   0.00000  Uiso   1.00
Cu98   Cu    0.50000   0.11978   0.25000   0.00000  Uiso   1.00
H99    H     0.50855   0.24193   0.11179   0.00000  Uiso   1.00
H100   H     0.48977   0.09164   0.38830   0.00000  Uiso   1.00
H101   H     0.49132   0.24203   0.38818   0.00000  Uiso   1.00
H102   H     0.50857   0.09152   0.11148   0.00000  Uiso   1.00
N103   N     0.50000   0.28402   0.25000   0.00000  Uiso   1.00
N104   N     0.50000   0.04931   0.25000   0.00000  Uiso   1.00
O105   O     0.43988   0.20625   0.25000   0.00000  Uiso   1.00
O106   O     0.56012   0.12709   0.25001   0.00000  Uiso   1.00
O107   O     0.56012   0.20625   0.25001   0.00000  Uiso   1.00
O108   O     0.43988   0.12709   0.25000   0.00000  Uiso   1.00
O109   O     0.50000   0.20626   0.18573   0.00000  Uiso   1.00
O110   O     0.50000   0.12707   0.31427   0.00000  Uiso   1.00
O111   O     0.50000   0.20626   0.31427   0.00000  Uiso   1.00
O112   O     0.50000   0.12707   0.18573   0.00000  Uiso   1.00
F113   F     0.45451   0.04791   0.18939   0.00000  Uiso   1.00
F114   F     0.54357   0.28544   0.31216   0.00000  Uiso   1.00
F115   F     0.54545   0.04809   0.31066   0.00000  Uiso   1.00
F116   F     0.45662   0.28531   0.18781   0.00000  Uiso   1.00
F117   F     0.52111   0.24955   0.03034   0.00000  Uiso   1.00
F118   F     0.47647   0.08456   0.46981   0.00000  Uiso   1.00
F119   F     0.47792   0.24969   0.46952   0.00000  Uiso   1.00
F120   F     0.52091   0.08424   0.02984   0.00000  Uiso   1.00
O121   O     0.37499   0.08273   0.26565   0.00000  Uiso   1.00
C122   C     0.37758   0.07627   0.31153   0.00000  Uiso   1.00
H123   H     0.39428   0.10566   0.32783   0.00000  Uiso   1.00
H124   H     0.39497   0.04366   0.31825   0.00000  Uiso   1.00
H125   H     0.34679   0.07202   0.32603   0.00000  Uiso   1.00
O126   O     0.62561   0.25156   0.24218   0.00000  Uiso   1.00
C127   C     0.63248   0.27667   0.28159   0.00000  Uiso   1.00
H128   H     0.62254   0.25621   0.31072   0.00000  Uiso   1.00
H129   H     0.61429   0.30935   0.28048   0.00000  Uiso   1.00
H130   H     0.66499   0.28721   0.28555   0.00000  Uiso   1.00
O131   O     0.62534   0.08146   0.25807   0.00000  Uiso   1.00
C132   C     0.62468   0.05906   0.21669   0.00000  Uiso   1.00
H133   H     0.65553   0.04602   0.20808   0.00000  Uiso   1.00
H134   H     0.60395   0.02838   0.21828   0.00000  Uiso   1.00
H135   H     0.61261   0.08244   0.19024   0.00000  Uiso   1.00
O136   O     0.37442   0.24820   0.22657   0.00000  Uiso   1.00
C137   C     0.36932   0.25323   0.18068   0.00000  Uiso   1.00
H138   H     0.38695   0.22594   0.16302   0.00000  Uiso   1.00
H139   H     0.38113   0.28806   0.17088   0.00000  Uiso   1.00
H140   H     0.33668   0.25209   0.17011   0.00000  Uiso   1.00
C141   C     0.75405   0.16658   0.24930   0.00000  Uiso   1.00
C142   C     0.91268   0.16667   0.25022   0.00000  Uiso   1.00
C143   C     0.83399   0.16666   0.16508   0.00000  Uiso   1.00
C144   C     0.83251   0.16668   0.33491   0.00000  Uiso   1.00
C145   C     0.81089   0.02475   0.21960   0.00000  Uiso   1.00
C146   C     0.85532   0.30860   0.28078   0.00000  Uiso   1.00
C147   C     0.85577   0.02484   0.28043   0.00000  Uiso   1.00
C148   C     0.81136   0.30853   0.21925   0.00000  Uiso   1.00
C149   C     0.68804   0.12437   0.25728   0.00000  Uiso   1.00
C150   C     0.97903   0.20897   0.24521   0.00000  Uiso   1.00
C151   C     0.97891   0.12383   0.25402   0.00000  Uiso   1.00
C152   C     0.68785   0.20777   0.23946   0.00000  Uiso   1.00
C153   C     0.84165   0.20907   0.04883   0.00000  Uiso   1.00
C154   C     0.82316   0.12475   0.45119   0.00000  Uiso   1.00
C155   C     0.82397   0.20915   0.45109   0.00000  Uiso   1.00
C156   C     0.84162   0.12464   0.04863   0.00000  Uiso   1.00
C157   C     0.83941   0.20891   0.09436   0.00000  Uiso   1.00
C158   C     0.82582   0.12467   0.40567   0.00000  Uiso   1.00
C159   C     0.82668   0.20898   0.40560   0.00000  Uiso   1.00
C160   C     0.83942   0.12459   0.09418   0.00000  Uiso   1.00
C161   C     0.83622   0.16670   0.11718   0.00000  Uiso   1.00
C162   C     0.82978   0.16675   0.38278   0.00000  Uiso   1.00
C163   C     0.83649   0.16690   0.02451   0.00000  Uiso   1.00
C164   C     0.82859   0.16695   0.47538   0.00000  Uiso   1.00
C165   C     0.95737   0.16654   0.25005   0.00000  Uiso   1.00
C166   C     0.70948   0.16623   0.24864   0.00000  Uiso   1.00
Cu167  Cu    0.83333   0.21355   0.25000   0.00000  Uiso   1.00
Cu168  Cu    0.83333   0.11978   0.25000   0.00000  Uiso   1.00
H169   H     0.84188   0.24193   0.11179   0.00000  Uiso   1.00
H170   H     0.82310   0.09164   0.38830   0.00000  Uiso   1.00
H171   H     0.82466   0.24203   0.38818   0.00000  Uiso   1.00
H172   H     0.84190   0.09152   0.11148   0.00000  Uiso   1.00
N173   N     0.83333   0.28402   0.25000   0.00000  Uiso   1.00
N174   N     0.83333   0.04931   0.25000   0.00000  Uiso   1.00
O175   O     0.77321   0.20625   0.25000   0.00000  Uiso   1.00
O176   O     0.89345   0.12709   0.25001   0.00000  Uiso   1.00
O177   O     0.89345   0.20625   0.25001   0.00000  Uiso   1.00
O178   O     0.77321   0.12709   0.25000   0.00000  Uiso   1.00
O179   O     0.83333   0.20626   0.18573   0.00000  Uiso   1.00
O180   O     0.83334   0.12707   0.31427   0.00000  Uiso   1.00
O181   O     0.83334   0.20626   0.31427   0.00000  Uiso   1.00
O182   O     0.83333   0.12707   0.18573   0.00000  Uiso   1.00
F183   F     0.78784   0.04791   0.18939   0.00000  Uiso   1.00
F184   F     0.87690   0.28544   0.31216   0.00000  Uiso   1.00
F185   F     0.87879   0.04809   0.31066   0.00000  Uiso   1.00
F186   F     0.78996   0.28531   0.18781   0.00000  Uiso   1.00
F187   F     0.85445   0.24955   0.03034   0.00000  Uiso   1.00
F188   F     0.80980   0.08456   0.46981   0.00000  Uiso   1.00
F189   F     0.81125   0.24969   0.46952   0.00000  Uiso   1.00
F190   F     0.85424   0.08424   0.02984   0.00000  Uiso   1.00
O191   O     0.70833   0.08273   0.26565   0.00000  Uiso   1.00
C192   C     0.71091   0.07627   0.31153   0.00000  Uiso   1.00
H193   H     0.72761   0.10566   0.32783   0.00000  Uiso   1.00
H194   H     0.72830   0.04366   0.31825   0.00000  Uiso   1.00
H195   H     0.68013   0.07202   0.32603   0.00000  Uiso   1.00
O196   O     0.95894   0.25156   0.24218   0.00000  Uiso   1.00
C197   C     0.96581   0.27667   0.28159   0.00000  Uiso   1.00
H198   H     0.95587   0.25621   0.31072   0.00000  Uiso   1.00
H199   H     0.94763   0.30935   0.28048   0.00000  Uiso   1.00
H200   H     0.99832   0.28721   0.28555   0.00000  Uiso   1.00
O201   O     0.95867   0.08146   0.25807   0.00000  Uiso   1.00
C202   C     0.95801   0.05906   0.21669   0.00000  Uiso   1.00
H203   H     0.98886   0.04602   0.20808   0.00000  Uiso   1.00
H204   H     0.93728   0.02838   0.21828   0.00000  Uiso   1.00
H205   H     0.94594   0.08244   0.19024   0.00000  Uiso   1.00
O206   O     0.70775   0.24820   0.22657   0.00000  Uiso   1.00
C207   C     0.70265   0.25323   0.18068   0.00000  Uiso   1.00
H208   H     0.72029   0.22594   0.16302   0.00000  Uiso   1.00
H209   H     0.71446   0.28806   0.17088   0.00000  Uiso   1.00
H210   H     0.67001   0.25209   0.17011   0.00000  Uiso   1.00
C211   C     0.08739   0.49991   0.24930   0.00000  Uiso   1.00
C212   C     0.24601   0.50000   0.25022   0.00000  Uiso   1.00
C213   C     0.16733   0.50000   0.16508   0.00000  Uiso   1.00
C214   C     0.16584   0.50001   0.33491   0.00000  Uiso   1.00
C215   C     0.14422   0.35809   0.21960   0.00000  Uiso   1.00
C216   C     0.18865   0.64193   0.28078   0.00000  Uiso   1.00
C217   C     0.18910   0.35817   0.28043   0.00000  Uiso   1.00
C218   C     0.14469   0.64187   0.21925   0.00000  Uiso   1.00
C219   C     0.02138   0.45771   0.25728   0.00000  Uiso   1.00
C220   C     0.31236   0.54231   0.24521   0.00000  Uiso   1.00
C221   C     0.31224   0.45716   0.25402   0.00000  Uiso   1.00
C222   C     0.02118   0.54110   0.23946   0.00000  Uiso   1.00
C223   C     0.17498   0.54240   0.04883   0.00000  Uiso   1.00
C224   C     0.15649   0.45809   0.45119   0.00000  Uiso   1.00
C225   C     0.15730   0.54248   0.45109   0.00000  Uiso   1.00
C226   C     0.17495   0.45797   0.04863   0.00000  Uiso   1.00
C227   C     0.17274   0.54224   0.09436   0.00000  Uiso   1.00
C228   C     0.15915   0.45801   0.40567   0.00000  Uiso   1.00
C229   C     0.16001   0.54232   0.40560   0.00000  Uiso   1.00
C230   C     0.17276   0.45793   0.09418   0.00000  Uiso   1.00
C231   C     0.16955   0.50003   0.11718   0.00000  Uiso   1.00
C232   C     0.16311   0.50008   0.38278   0.00000  Uiso   1.00
C233   C     0.16982   0.50024   0.02451   0.00000  Uiso   1.00
C234   C     0.16192   0.50028   0.47538   0.00000  Uiso   1.00
C235   C     0.29070   0.49987   0.25005   0.00000  Uiso   1.00
C236   C     0.04282   0.49956   0.24864   0.00000  Uiso   1.00
Cu237  Cu    0.16667   0.54689   0.25000   0.00000  Uiso   1.00
Cu238  Cu    0.16667   0.45311   0.25000   0.00000  Uiso   1.00
H239   H     0.17522   0.57526   0.11179   0.00000  Uiso   1.00
H240   H     0.15644   0.42497   0.38830   0.00000  Uiso   1.00
H241   H     0.15799   0.57536   0.38818   0.00000  Uiso   1.00
H242   H     0.17524   0.42485   0.11148   0.00000  Uiso   1.00
N243   N     0.16667   0.61736   0.25000   0.00000  Uiso   1.00
N244   N     0.16667   0.38264   0.25000   0.00000  Uiso   1.00
O245   O     0.10655   0.53958   0.25000   0.00000  Uiso   1.00
O246   O     0.22679   0.46042   0.25001   0.00000  Uiso   1.00
O247   O     0.22679   0.53958   0.25001   0.00000  Uiso   1.00
O248   O     0.10655   0.46042   0.25000   0.00000  Uiso   1.00
O249   O     0.16666   0.53959   0.18573   0.00000  Uiso   1.00
O250   O     0.16667   0.46041   0.31427   0.00000  Uiso   1.00
O251   O     0.16667   0.53959   0.31427   0.00000  Uiso   1.00
O252   O     0.16666   0.46041   0.18573   0.00000  Uiso   1.00
F253   F     0.12118   0.38125   0.18939   0.00000  Uiso   1.00
F254   F     0.21024   0.61878   0.31216   0.00000  Uiso   1.00
F255   F     0.21212   0.38142   0.31066   0.00000  Uiso   1.00
F256   F     0.12329   0.61864   0.18781   0.00000  Uiso   1.00
F257   F     0.18778   0.58288   0.03034   0.00000  Uiso   1.00
F258   F     0.14314   0.41790   0.46981   0.00000  Uiso   1.00
F259   F     0.14459   0.58303   0.46952   0.00000  Uiso   1.00
F260   F     0.18758   0.41757   0.02984   0.00000  Uiso   1.00
O261   O     0.04166   0.41606   0.26565   0.00000  Uiso   1.00
C262   C     0.04424   0.40960   0.31153   0.00000  Uiso   1.00
H263   H     0.06095   0.43899   0.32783   0.00000  Uiso   1.00
H264   H     0.06164   0.37699   0.31825   0.00000  Uiso   1.00
H265   H     0.01346   0.40535   0.32603   0.00000  Uiso   1.00
O266   O     0.29227   0.58489   0.24218   0.00000  Uiso   1.00
C267   C     0.29915   0.61000   0.28159   0.00000  Uiso   1.00
H268   H     0.28920   0.58954   0.31072   0.00000  Uiso   1.00
H269   H     0.28096   0.64268   0.28048   0.00000  Uiso   1.00
H270   H     0.33165   0.62054   0.28555   0.00000  Uiso   1.00
O271   O     0.29200   0.41479   0.25807   0.00000  Uiso   1.00
C272   C     0.29135   0.39240   0.21669   0.00000  Uiso   1.00
H273   H     0.32220   0.37935   0.20808   0.00000  Uiso   1.00
H274   H     0.27062   0.36171   0.21828   0.00000  Uiso   1.00
H275   H     0.27928   0.41578   0.19024   0.00000  Uiso   1.00
O276   O     0.04109   0.58154   0.22657   0.00000  Uiso   1.00
C277   C     0.03599   0.58657   0.18068   0.00000  Uiso   1.00
H278   H     0.05362   0.55927   0.16302   0.00000  Uiso   1.00
H279   H     0.04779   0.62140   0.17088   0.00000  Uiso   1.00
H280   H     0.00335   0.58542   0.17011   0.00000  Uiso   1.00
C281   C     0.42072   0.49991   0.24930   0.00000  Uiso   1.00
C282   C     0.57935   0.50000   0.25022   0.00000  Uiso   1.00
C283   C     0.50066   0.50000   0.16508   0.00000  Uiso   1.00
C284   C     0.49917   0.50001   0.33491   0.00000  Uiso   1.00
C285   C     0.47755   0.35809   0.21960   0.00000  Uiso   1.00
C286   C     0.52198   0.64193   0.28078   0.00000  Uiso   1.00
C287   C     0.52243   0.35817   0.28043   0.00000  Uiso   1.00
C288   C     0.47803   0.64187   0.21925   0.00000  Uiso   1.00
C289   C     0.35471   0.45771   0.25728   0.00000  Uiso   1.00
C290   C     0.64569   0.54231   0.24521   0.00000  Uiso   1.00
C291   C     0.64558   0.45716   0.25402   0.00000  Uiso   1.00
C292   C     0.35452   0.54110   0.23946   0.00000  Uiso   1.00
C293   C     0.50831   0.54240   0.04883   0.00000  Uiso   1.00
C294   C     0.48982   0.45809   0.45119   0.00000  Uiso   1.00
C295   C     0.49064   0.54248   0.45109   0.00000  Uiso   1.00
C296   C     0.50828   0.45797   0.04863   0.00000  Uiso   1.00
C297   C     0.50607   0.54224   0.09436   0.00000  Uiso   1.00
C298   C     0.49248   0.45801   0.40567   0.00000  Uiso   1.00
C299   C     0.49335   0.54232   0.40560   0.00000  Uiso   1.00
C300   C     0.50609   0.45793   0.09418   0.00000  Uiso   1.00
C301   C     0.50288   0.50003   0.11718   0.00000  Uiso   1.00
C302   C     0.49645   0.50008   0.38278   0.00000  Uiso   1.00
C303   C     0.50316   0.50024   0.02451   0.00000  Uiso   1.00
C304   C     0.49525   0.50028   0.47538   0.00000  Uiso   1.00
C305   C     0.62404   0.49987   0.25005   0.00000  Uiso   1.00
C306   C     0.37615   0.49956   0.24864   0.00000  Uiso   1.00
Cu307  Cu    0.50000   0.54689   0.25000   0.00000  Uiso   1.00
Cu308  Cu    0.50000   0.45311   0.25000   0.00000  Uiso   1.00
H309   H     0.50855   0.57526   0.11179   0.00000  Uiso   1.00
H310   H     0.48977   0.42497   0.38830   0.00000  Uiso   1.00
H311   H     0.49132   0.57536   0.38818   0.00000  Uiso   1.00
H312   H     0.50857   0.42485   0.11148   0.00000  Uiso   1.00
N313   N     0.50000   0.61736   0.25000   0.00000  Uiso   1.00
N314   N     0.50000   0.38264   0.25000   0.00000  Uiso   1.00
O315   O     0.43988   0.53958   0.25000   0.00000  Uiso   1.00
O316   O     0.56012   0.46042   0.25001   0.00000  Uiso   1.00
O317   O     0.56012   0.53958   0.25001   0.00000  Uiso   1.00
O318   O     0.43988   0.46042   0.25000   0.00000  Uiso   1.00
O319   O     0.50000   0.53959   0.18573   0.00000  Uiso   1.00
O320   O     0.50000   0.46041   0.31427   0.00000  Uiso   1.00
O321   O     0.50000   0.53959   0.31427   0.00000  Uiso   1.00
O322   O     0.50000   0.46041   0.18573   0.00000  Uiso   1.00
F323   F     0.45451   0.38125   0.18939   0.00000  Uiso   1.00
F324   F     0.54357   0.61878   0.31216   0.00000  Uiso   1.00
F325   F     0.54545   0.38142   0.31066   0.00000  Uiso   1.00
F326   F     0.45662   0.61864   0.18781   0.00000  Uiso   1.00
F327   F     0.52111   0.58288   0.03034   0.00000  Uiso   1.00
F328   F     0.47647   0.41790   0.46981   0.00000  Uiso   1.00
F329   F     0.47792   0.58303   0.46952   0.00000  Uiso   1.00
F330   F     0.52091   0.41757   0.02984   0.00000  Uiso   1.00
O331   O     0.37499   0.41606   0.26565   0.00000  Uiso   1.00
C332   C     0.37758   0.40960   0.31153   0.00000  Uiso   1.00
H333   H     0.39428   0.43899   0.32783   0.00000  Uiso   1.00
H334   H     0.39497   0.37699   0.31825   0.00000  Uiso   1.00
H335   H     0.34679   0.40535   0.32603   0.00000  Uiso   1.00
O336   O     0.62561   0.58489   0.24218   0.00000  Uiso   1.00
C337   C     0.63248   0.61000   0.28159   0.00000  Uiso   1.00
H338   H     0.62254   0.58954   0.31072   0.00000  Uiso   1.00
H339   H     0.61429   0.64268   0.28048   0.00000  Uiso   1.00
H340   H     0.66499   0.62054   0.28555   0.00000  Uiso   1.00
O341   O     0.62534   0.41479   0.25807   0.00000  Uiso   1.00
C342   C     0.62468   0.39240   0.21669   0.00000  Uiso   1.00
H343   H     0.65553   0.37935   0.20808   0.00000  Uiso   1.00
H344   H     0.60395   0.36171   0.21828   0.00000  Uiso   1.00
H345   H     0.61261   0.41578   0.19024   0.00000  Uiso   1.00
O346   O     0.37442   0.58154   0.22657   0.00000  Uiso   1.00
C347   C     0.36932   0.58657   0.18068   0.00000  Uiso   1.00
H348   H     0.38695   0.55927   0.16302   0.00000  Uiso   1.00
H349   H     0.38113   0.62140   0.17088   0.00000  Uiso   1.00
H350   H     0.33668   0.58542   0.17011   0.00000  Uiso   1.00
C351   C     0.75405   0.49991   0.24930   0.00000  Uiso   1.00
C352   C     0.91268   0.50000   0.25022   0.00000  Uiso   1.00
C353   C     0.83399   0.50000   0.16508   0.00000  Uiso   1.00
C354   C     0.83251   0.50001   0.33491   0.00000  Uiso   1.00
C355   C     0.81089   0.35809   0.21960   0.00000  Uiso   1.00
C356   C     0.85532   0.64193   0.28078   0.00000  Uiso   1.00
C357   C     0.85577   0.35817   0.28043   0.00000  Uiso   1.00
C358   C     0.81136   0.64187   0.21925   0.00000  Uiso   1.00
C359   C     0.68804   0.45771   0.25728   0.00000  Uiso   1.00
C360   C     0.97903   0.54231   0.24521   0.00000  Uiso   1.00
C361   C     0.97891   0.45716   0.25402   0.00000  Uiso   1.00
C362   C     0.68785   0.54110   0.23946   0.00000  Uiso   1.00
C363   C     0.84165   0.54240   0.04883   0.00000  Uiso   1.00
C364   C     0.82316   0.45809   0.45119   0.00000  Uiso   1.00
C365   C     0.82397   0.54248   0.45109   0.00000  Uiso   1.00
C366   C     0.84162   0.45797   0.04863   0.00000  Uiso   1.00
C367   C     0.83941   0.54224   0.09436   0.00000  Uiso   1.00
C368   C     0.82582   0.45801   0.40567   0.00000  Uiso   1.00
C369   C     0.82668   0.54232   0.40560   0.00000  Uiso   1.00
C370   C     0.83942   0.45793   0.09418   0.00000  Uiso   1.00
C371   C     0.83622   0.50003   0.11718   0.00000  Uiso   1.00
C372   C     0.82978   0.50008   0.38278   0.00000  Uiso   1.00
C373   C     0.83649   0.50024   0.02451   0.00000  Uiso   1.00
C374   C     0.82859   0.50028   0.47538   0.00000  Uiso   1.00
C375   C     0.95737   0.49987   0.25005   0.00000  Uiso   1.00
C376   C     0.70948   0.49956   0.24864   0.00000  Uiso   1.00
Cu377  Cu    0.83333   0.54689   0.25000   0.00000  Uiso   1.00
Cu378  Cu    0.83333   0.45311   0.25000   0.00000  Uiso   1.00
H379   H     0.84188   0.57526   0.11179   0.00000  Uiso   1.00
H380   H     0.82310   0.42497   0.38830   0.00000  Uiso   1.00
H381   H     0.82466   0.57536   0.38818   0.00000  Uiso   1.00
H382   H     0.84190   0.42485   0.11148   0.00000  Uiso   1.00
N383   N     0.83333   0.61736   0.25000   0.00000  Uiso   1.00
N384   N     0.83333   0.38264   0.25000   0.00000  Uiso   1.00
O385   O     0.77321   0.53958   0.25000   0.00000  Uiso   1.00
O386   O     0.89345   0.46042   0.25001   0.00000  Uiso   1.00
O387   O     0.89345   0.53958   0.25001   0.00000  Uiso   1.00
O388   O     0.77321   0.46042   0.25000   0.00000  Uiso   1.00
O389   O     0.83333   0.53959   0.18573   0.00000  Uiso   1.00
O390   O     0.83334   0.46041   0.31427   0.00000  Uiso   1.00
O391   O     0.83334   0.53959   0.31427   0.00000  Uiso   1.00
O392   O     0.83333   0.46041   0.18573   0.00000  Uiso   1.00
F393   F     0.78784   0.38125   0.18939   0.00000  Uiso   1.00
F394   F     0.87690   0.61878   0.31216   0.00000  Uiso   1.00
F395   F     0.87879   0.38142   0.31066   0.00000  Uiso   1.00
F396   F     0.78996   0.61864   0.18781   0.00000  Uiso   1.00
F397   F     0.85445   0.58288   0.03034   0.00000  Uiso   1.00
F398   F     0.80980   0.41790   0.46981   0.00000  Uiso   1.00
F399   F     0.81125   0.58303   0.46952   0.00000  Uiso   1.00
F400   F     0.85424   0.41757   0.02984   0.00000  Uiso   1.00
O401   O     0.70833   0.41606   0.26565   0.00000  Uiso   1.00
C402   C     0.71091   0.40960   0.31153   0.00000  Uiso   1.00
H403   H     0.72761   0.43899   0.32783   0.00000  Uiso   1.00
H404   H     0.72830   0.37699   0.31825   0.00000  Uiso   1.00
H405   H     0.68013   0.40535   0.32603   0.00000  Uiso   1.00
O406   O     0.95894   0.58489   0.24218   0.00000  Uiso   1.00
C407   C     0.96581   0.61000   0.28159   0.00000  Uiso   1.00
H408   H     0.95587   0.58954   0.31072   0.00000  Uiso   1.00
H409   H     0.94763   0.64268   0.28048   0.00000  Uiso   1.00
H410   H     0.99832   0.62054   0.28555   0.00000  Uiso   1.00
O411   O     0.95867   0.41479   0.25807   0.00000  Uiso   1.00
C412   C     0.95801   0.39240   0.21669   0.00000  Uiso   1.00
H413   H     0.98886   0.37935   0.20808   0.00000  Uiso   1.00
H414   H     0.93728   0.36171   0.21828   0.00000  Uiso   1.00
H415   H     0.94594   0.41578   0.19024   0.00000  Uiso   1.00
O416   O     0.70775   0.58154   0.22657   0.00000  Uiso   1.00
C417   C     0.70265   0.58657   0.18068   0.00000  Uiso   1.00
H418   H     0.72029   0.55927   0.16302   0.00000  Uiso   1.00
H419   H     0.71446   0.62140   0.17088   0.00000  Uiso   1.00
H420   H     0.67001   0.58542   0.17011   0.00000  Uiso   1.00
C421   C     0.08739   0.83324   0.24930   0.00000  Uiso   1.00
C422   C     0.24601   0.83333   0.25022   0.00000  Uiso   1.00
C423   C     0.16733   0.83333   0.16508   0.00000  Uiso   1.00
C424   C     0.16584   0.83335   0.33491   0.00000  Uiso   1.00
C425   C     0.14422   0.69142   0.21960   0.00000  Uiso   1.00
C426   C     0.18865   0.97527   0.28078   0.00000  Uiso   1.00
C427   C     0.18910   0.69150   0.28043   0.00000  Uiso   1.00
C428   C     0.14469   0.97520   0.21925   0.00000  Uiso   1.00
C429   C     0.02138   0.79104   0.25728   0.00000  Uiso   1.00
C430   C     0.31236   0.87564   0.24521   0.00000  Uiso   1.00
C431   C     0.31224   0.79049   0.25402   0.00000  Uiso   1.00
C432   C     0.02118   0.87443   0.23946   0.00000  Uiso   1.00
C433   C     0.17498   0.87573   0.04883   0.00000  Uiso   1.00
C434   C     0.15649   0.79142   0.45119   0.00000  Uiso   1.00
C435   C     0.15730   0.87582   0.45109   0.00000  Uiso   1.00
C436   C     0.17495   0.79130   0.04863   0.00000  Uiso   1.00
C437   C     0.17274   0.87557   0.09436   0.00000  Uiso   1.00
C438   C     0.15915   0.79134   0.40567   0.00000  Uiso   1.00
C439   C     0.16001   0.87565   0.40560   0.00000  Uiso   1.00
C440   C     0.17276   0.79126   0.09418   0.00000  Uiso   1.00
C441   C     0.16955   0.83337   0.11718   0.00000  Uiso   1.00
C442   C     0.16311   0.83341   0.38278   0.00000  Uiso   1.00
C443   C     0.16982   0.83357   0.02451   0.00000  Uiso   1.00
C444   C     0.16192   0.83361   0.47538   0.00000  Uiso   1.00
C445   C     0.29070   0.83321   0.25005   0.00000  Uiso   1.00
C446   C     0.04282   0.83290   0.24864   0.00000  Uiso   1.00
Cu447  Cu    0.16667   0.88022   0.25000   0.00000  Uiso   1.00
Cu448  Cu    0.16667   0.78645   0.25000   0.00000  Uiso   1.00
H449   H     0.17522   0.90859   0.11179   0.00000  Uiso   1.00
H450   H     0.15644   0.75830   0.38830   0.00000  Uiso   1.00
H451   H     0.15799   0.90869   0.38818   0.00000  Uiso   1.00
H452   H     0.17524   0.75818   0.11148   0.00000  Uiso   1.00
N453   N     0.16667   0.95069   0.25000   0.00000  Uiso   1.00
N454   N     0.16667   0.71598   0.25000   0.00000  Uiso   1.00
O455   O     0.10655   0.87291   0.25000   0.00000  Uiso   1.00
O456   O     0.22679   0.79375   0.25001   0.00000  Uiso   1.00
O457   O     0.22679   0.87291   0.25001   0.00000  Uiso   1.00
O458   O     0.10655   0.79375   0.25000   0.00000  Uiso   1.00
O459   O     0.16666   0.87293   0.18573   0.00000  Uiso   1.00
O460   O     0.16667   0.79374   0.31427   0.00000  Uiso   1.00
O461   O     0.16667   0.87293   0.31427   0.00000  Uiso   1.00
O462   O     0.16666   0.79374   0.18573   0.00000  Uiso   1.00
F463   F     0.12118   0.71458   0.18939   0.00000  Uiso   1.00
F464   F     0.21024   0.95211   0.31216   0.00000  Uiso   1.00
F465   F     0.21212   0.71476   0.31066   0.00000  Uiso   1.00
F466   F     0.12329   0.95197   0.18781   0.00000  Uiso   1.00
F467   F     0.18778   0.91622   0.03034   0.00000  Uiso   1.00
F468   F     0.14314   0.75123   0.46981   0.00000  Uiso   1.00
F469   F     0.14459   0.91636   0.46952   0.00000  Uiso   1.00
F470   F     0.18758   0.75091   0.02984   0.00000  Uiso   1.00
O471   O     0.04166   0.74939   0.26565   0.00000  Uiso   1.00
C472   C     0.04424   0.74293   0.31153   0.00000  Uiso   1.00
H473   H     0.06095   0.77233   0.32783   0.00000  Uiso   1.00
H474   H     0.06164   0.71033   0.31825   0.00000  Uiso   1.00
H475   H     0.01346   0.73869   0.32603   0.00000  Uiso   1.00
O476   O     0.29227   0.91823   0.24218   0.00000  Uiso   1.00
C477   C     0.29915   0.94334   0.28159   0.00000  Uiso   1.00
H478   H     0.28920   0.92288   0.31072   0.00000  Uiso   1.00
H479   H     0.28096   0.97601   0.28048   0.00000  Uiso   1.00
H480   H     0.33165   0.95387   0.28555   0.00000  Uiso   1.00
O481   O     0.29200   0.74813   0.25807   0.00000  Uiso   1.00
C482   C     0.29135   0.72573   0.21669   0.00000  Uiso   1.00
H483   H     0.32220   0.71268   0.20808   0.00000  Uiso   1.00
H484   H     0.27062   0.69505   0.21828   0.00000  Uiso   1.00
H485   H     0.27928   0.74911   0.19024   0.00000  Uiso   1.00
O486   O     0.04109   0.91487   0.22657   0.00000  Uiso   1.00
C487   C     0.03599   0.91990   0.18068   0.00000  Uiso   1.00
H488   H     0.05362   0.89261   0.16302   0.00000  Uiso   1.00
H489   H     0.04779   0.95473   0.17088   0.00000  Uiso   1.00
H490   H     0.00335   0.91876   0.17011   0.00000  Uiso   1.00
C491   C     0.42072   0.83324   0.24930   0.00000  Uiso   1.00
C492   C     0.57935   0.83333   0.25022   0.00000  Uiso   1.00
C493   C     0.50066   0.83333   0.16508   0.00000  Uiso   1.00
C494   C     0.49917   0.83335   0.33491   0.00000  Uiso   1.00
C495   C     0.47755   0.69142   0.21960   0.00000  Uiso   1.00
C496   C     0.52198   0.97527   0.28078   0.00000  Uiso   1.00
C497   C     0.52243   0.69150   0.28043   0.00000  Uiso   1.00
C498   C     0.47803   0.97520   0.21925   0.00000  Uiso   1.00
C499   C     0.35471   0.79104   0.25728   0.00000  Uiso   1.00
C500   C     0.64569   0.87564   0.24521   0.00000  Uiso   1.00
C501   C     0.64558   0.79049   0.25402   0.00000  Uiso   1.00
C502   C     0.35452   0.87443   0.23946   0.00000  Uiso   1.00
C503   C     0.50831   0.87573   0.04883   0.00000  Uiso   1.00
C504   C     0.48982   0.79142   0.45119   0.00000  Uiso   1.00
C505   C     0.49064   0.87582   0.45109   0.00000  Uiso   1.00
C506   C     0.50828   0.79130   0.04863   0.00000  Uiso   1.00
C507   C     0.50607   0.87557   0.09436   0.00000  Uiso   1.00
C508   C     0.49248   0.79134   0.40567   0.00000  Uiso   1.00
C509   C     0.49335   0.87565   0.40560   0.00000  Uiso   1.00
C510   C     0.50609   0.79126   0.09418   0.00000  Uiso   1.00
C511   C     0.50288   0.83337   0.11718   0.00000  Uiso   1.00
C512   C     0.49645   0.83341   0.38278   0.00000  Uiso   1.00
C513   C     0.50316   0.83357   0.02451   0.00000  Uiso   1.00
C514   C     0.49525   0.83361   0.47538   0.00000  Uiso   1.00
C515   C     0.62404   0.83321   0.25005   0.00000  Uiso   1.00
C516   C     0.37615   0.83290   0.24864   0.00000  Uiso   1.00
Cu517  Cu    0.50000   0.88022   0.25000   0.00000  Uiso   1.00
Cu518  Cu    0.50000   0.78645   0.25000   0.00000  Uiso   1.00
H519   H     0.50855   0.90859   0.11179   0.00000  Uiso   1.00
H520   H     0.48977   0.75830   0.38830   0.00000  Uiso   1.00
H521   H     0.49132   0.90869   0.38818   0.00000  Uiso   1.00
H522   H     0.50857   0.75818   0.11148   0.00000  Uiso   1.00
N523   N     0.50000   0.95069   0.25000   0.00000  Uiso   1.00
N524   N     0.50000   0.71598   0.25000   0.00000  Uiso   1.00
O525   O     0.43988   0.87291   0.25000   0.00000  Uiso   1.00
O526   O     0.56012   0.79375   0.25001   0.00000  Uiso   1.00
O527   O     0.56012   0.87291   0.25001   0.00000  Uiso   1.00
O528   O     0.43988   0.79375   0.25000   0.00000  Uiso   1.00
O529   O     0.50000   0.87293   0.18573   0.00000  Uiso   1.00
O530   O     0.50000   0.79374   0.31427   0.00000  Uiso   1.00
O531   O     0.50000   0.87293   0.31427   0.00000  Uiso   1.00
O532   O     0.50000   0.79374   0.18573   0.00000  Uiso   1.00
F533   F     0.45451   0.71458   0.18939   0.00000  Uiso   1.00
F534   F     0.54357   0.95211   0.31216   0.00000  Uiso   1.00
F535   F     0.54545   0.71476   0.31066   0.00000  Uiso   1.00
F536   F     0.45662   0.95197   0.18781   0.00000  Uiso   1.00
F537   F     0.52111   0.91622   0.03034   0.00000  Uiso   1.00
F538   F     0.47647   0.75123   0.46981   0.00000  Uiso   1.00
F539   F     0.47792   0.91636   0.46952   0.00000  Uiso   1.00
F540   F     0.52091   0.75091   0.02984   0.00000  Uiso   1.00
O541   O     0.37499   0.74939   0.26565   0.00000  Uiso   1.00
C542   C     0.37758   0.74293   0.31153   0.00000  Uiso   1.00
H543   H     0.39428   0.77233   0.32783   0.00000  Uiso   1.00
H544   H     0.39497   0.71033   0.31825   0.00000  Uiso   1.00
H545   H     0.34679   0.73869   0.32603   0.00000  Uiso   1.00
O546   O     0.62561   0.91823   0.24218   0.00000  Uiso   1.00
C547   C     0.63248   0.94334   0.28159   0.00000  Uiso   1.00
H548   H     0.62254   0.92288   0.31072   0.00000  Uiso   1.00
H549   H     0.61429   0.97601   0.28048   0.00000  Uiso   1.00
H550   H     0.66499   0.95387   0.28555   0.00000  Uiso   1.00
O551   O     0.62534   0.74813   0.25807   0.00000  Uiso   1.00
C552   C     0.62468   0.72573   0.21669   0.00000  Uiso   1.00
H553   H     0.65553   0.71268   0.20808   0.00000  Uiso   1.00
H554   H     0.60395   0.69505   0.21828   0.00000  Uiso   1.00
H555   H     0.61261   0.74911   0.19024   0.00000  Uiso   1.00
O556   O     0.37442   0.91487   0.22657   0.00000  Uiso   1.00
C557   C     0.36932   0.91990   0.18068   0.00000  Uiso   1.00
H558   H     0.38695   0.89261   0.16302   0.00000  Uiso   1.00
H559   H     0.38113   0.95473   0.17088   0.00000  Uiso   1.00
H560   H     0.33668   0.91876   0.17011   0.00000  Uiso   1.00
C561   C     0.75405   0.83324   0.24930   0.00000  Uiso   1.00
C562   C     0.91268   0.83333   0.25022   0.00000  Uiso   1.00
C563   C     0.83399   0.83333   0.16508   0.00000  Uiso   1.00
C564   C     0.83251   0.83335   0.33491   0.00000  Uiso   1.00
C565   C     0.81089   0.69142   0.21960   0.00000  Uiso   1.00
C566   C     0.85532   0.97527   0.28078   0.00000  Uiso   1.00
C567   C     0.85577   0.69150   0.28043   0.00000  Uiso   1.00
C568   C     0.81136   0.97520   0.21925   0.00000  Uiso   1.00
C569   C     0.68804   0.79104   0.25728   0.00000  Uiso   1.00
C570   C     0.97903   0.87564   0.24521   0.00000  Uiso   1.00
C571   C     0.97891   0.79049   0.25402   0.00000  Uiso   1.00
C572   C     0.68785   0.87443   0.23946   0.00000  Uiso   1.00
C573   C     0.84165   0.87573   0.04883   0.00000  Uiso   1.00
C574   C     0.82316   0.79142   0.45119   0.00000  Uiso   1.00
C575   C     0.82397   0.87582   0.45109   0.00000  Uiso   1.00
C576   C     0.84162   0.79130   0.04863   0.00000  Uiso   1.00
C577   C     0.83941   0.87557   0.09436   0.00000  Uiso   1.00
C578   C     0.82582   0.79134   0.40567   0.00000  Uiso   1.00
C579   C     0.82668   0.87565   0.40560   0.00000  Uiso   1.00
C580   C     0.83942   0.79126   0.09418   0.00000  Uiso   1.00
C581   C     0.83622   0.83337   0.11718   0.00000  Uiso   1.00
C582   C     0.82978   0.83341   0.38278   0.00000  Uiso   1.00
C583   C     0.83649   0.83357   0.02451   0.00000  Uiso   1.00
C584   C     0.82859   0.83361   0.47538   0.00000  Uiso   1.00
C585   C     0.95737   0.83321   0.25005   0.00000  Uiso   1.00
C586   C     0.70948   0.83290   0.24864   0.00000  Uiso   1.00
Cu587  Cu    0.83333   0.88022   0.25000   0.00000  Uiso   1.00
Cu588  Cu    0.83333   0.78645   0.25000   0.00000  Uiso   1.00
H589   H     0.84188   0.90859   0.11179   0.00000  Uiso   1.00
H590   H     0.82310   0.75830   0.38830   0.00000  Uiso   1.00
H591   H     0.82466   0.90869   0.38818   0.00000  Uiso   1.00
H592   H     0.84190   0.75818   0.11148   0.00000  Uiso   1.00
N593   N     0.83333   0.95069   0.25000   0.00000  Uiso   1.00
N594   N     0.83333   0.71598   0.25000   0.00000  Uiso   1.00
O595   O     0.77321   0.87291   0.25000   0.00000  Uiso   1.00
O596   O     0.89345   0.79375   0.25001   0.00000  Uiso   1.00
O597   O     0.89345   0.87291   0.25001   0.00000  Uiso   1.00
O598   O     0.77321   0.79375   0.25000   0.00000  Uiso   1.00
O599   O     0.83333   0.87293   0.18573   0.00000  Uiso   1.00
O600   O     0.83334   0.79374   0.31427   0.00000  Uiso   1.00
O601   O     0.83334   0.87293   0.31427   0.00000  Uiso   1.00
O602   O     0.83333   0.79374   0.18573   0.00000  Uiso   1.00
F603   F     0.78784   0.71458   0.18939   0.00000  Uiso   1.00
F604   F     0.87690   0.95211   0.31216   0.00000  Uiso   1.00
F605   F     0.87879   0.71476   0.31066   0.00000  Uiso   1.00
F606   F     0.78996   0.95197   0.18781   0.00000  Uiso   1.00
F607   F     0.85445   0.91622   0.03034   0.00000  Uiso   1.00
F608   F     0.80980   0.75123   0.46981   0.00000  Uiso   1.00
F609   F     0.81125   0.91636   0.46952   0.00000  Uiso   1.00
F610   F     0.85424   0.75091   0.02984   0.00000  Uiso   1.00
O611   O     0.70833   0.74939   0.26565   0.00000  Uiso   1.00
C612   C     0.71091   0.74293   0.31153   0.00000  Uiso   1.00
H613   H     0.72761   0.77233   0.32783   0.00000  Uiso   1.00
H614   H     0.72830   0.71033   0.31825   0.00000  Uiso   1.00
H615   H     0.68013   0.73869   0.32603   0.00000  Uiso   1.00
O616   O     0.95894   0.91823   0.24218   0.00000  Uiso   1.00
C617   C     0.96581   0.94334   0.28159   0.00000  Uiso   1.00
H618   H     0.95587   0.92288   0.31072   0.00000  Uiso   1.00
H619   H     0.94763   0.97601   0.28048   0.00000  Uiso   1.00
H620   H     0.99832   0.95387   0.28555   0.00000  Uiso   1.00
O621   O     0.95867   0.74813   0.25807   0.00000  Uiso   1.00
C622   C     0.95801   0.72573   0.21669   0.00000  Uiso   1.00
H623   H     0.98886   0.71268   0.20808   0.00000  Uiso   1.00
H624   H     0.93728   0.69505   0.21828   0.00000  Uiso   1.00
H625   H     0.94594   0.74911   0.19024   0.00000  Uiso   1.00
O626   O     0.70775   0.91487   0.22657   0.00000  Uiso   1.00
C627   C     0.70265   0.91990   0.18068   0.00000  Uiso   1.00
H628   H     0.72029   0.89261   0.16302   0.00000  Uiso   1.00
H629   H     0.71446   0.95473   0.17088   0.00000  Uiso   1.00
H630   H     0.67001   0.91876   0.17011   0.00000  Uiso   1.00
C631   C     0.08739   0.16658   0.74930   0.00000  Uiso   1.00
C632   C     0.24601   0.16667   0.75022   0.00000  Uiso   1.00
C633   C     0.16733   0.16666   0.66508   0.00000  Uiso   1.00
C634   C     0.16584   0.16668   0.83491   0.00000  Uiso   1.00
C635   C     0.14422   0.02475   0.71960   0.00000  Uiso   1.00
C636   C     0.18865   0.30860   0.78078   0.00000  Uiso   1.00
C637   C     0.18910   0.02484   0.78043   0.00000  Uiso   1.00
C638   C     0.14469   0.30853   0.71925   0.00000  Uiso   1.00
C639   C     0.02138   0.12437   0.75728   0.00000  Uiso   1.00
C640   C     0.31236   0.20897   0.74521   0.00000  Uiso   1.00
C641   C     0.31224   0.12383   0.75402   0.00000  Uiso   1.00
C642   C     0.02118   0.20777   0.73946   0.00000  Uiso   1.00
C643   C     0.17498   0.20907   0.54883   0.00000  Uiso   1.00
C644   C     0.15649   0.12475   0.95119   0.00000  Uiso   1.00
C645   C     0.15730   0.20915   0.95109   0.00000  Uiso   1.00
C646   C     0.17495   0.12464   0.54863   0.00000  Uiso   1.00
C647   C     0.17274   0.20891   0.59436   0.00000  Uiso   1.00
C648   C     0.15915   0.12467   0.90567   0.00000  Uiso   1.00
C649   C     0.16001   0.20898   0.90560   0.00000  Uiso   1.00
C650   C     0.17276   0.12459   0.59418   0.00000  Uiso   1.00
C651   C     0.16955   0.16670   0.61718   0.00000  Uiso   1.00
C652   C     0.16311   0.16675   0.88278   0.00000  Uiso   1.00
C653   C     0.16982   0.16690   0.52451   0.00000  Uiso   1.00
C654   C     0.16192   0.16695   0.97538   0.00000  Uiso   1.00
C655   C     0.29070   0.16654   0.75005   0.00000  Uiso   1.00
C656   C     0.04282   0.16623   0.74864   0.00000  Uiso   1.00
Cu657  Cu    0.16667   0.21355   0.75000   0.00000  Uiso   1.00
Cu658  Cu    0.16667   0.11978   0.75000   0.00000  Uiso   1.00
H659   H     0.17522   0.24193   0.61179   0.00000  Uiso   1.00
H660   H     0.15644   0.09164   0.88830   0.00000  Uiso   1.00
H661   H     0.15799   0.24203   0.88818   0.00000  Uiso   1.00
H662   H     0.17524   0.09152   0.61148   0.00000  Uiso   1.00
N663   N     0.16667   0.28402   0.75000   0.00000  Uiso   1.00
N664   N     0.16667   0.04931   0.75000   0.00000  Uiso   1.00
O665   O     0.10655   0.20625   0.75000   0.00000  Uiso   1.00
O666   O     0.22679   0.12709   0.75001   0.00000  Uiso   1.00
O667   O     0.22679   0.20625   0.75001   0.00000  Uiso   1.00
O668   O     0.10655   0.12709   0.75000   0.00000  Uiso   1.00
O669   O     0.16666   0.20626   0.68573   0.00000  Uiso   1.00
O670   O     0.16667   0.12707   0.81427   0.00000  Uiso   1.00
O671   O     0.16667   0.20626   0.81427   0.00000  Uiso   1.00
O672   O     0.16666   0.12707   0.68573   0.00000  Uiso   1.00
F673   F     0.12118   0.04791   0.68939   0.00000  Uiso   1.00
F674   F     0.21024   0.28544   0.81216   0.00000  Uiso   1.00
F675   F     0.21212   0.04809   0.81066   0.00000  Uiso   1.00
F676   F     0.12329   0.28531   0.68781   0.00000  Uiso   1.00
F677   F     0.18778   0.24955   0.53034   0.00000  Uiso   1.00
F678   F     0.14314   0.08456   0.96981   0.00000  Uiso   1.00
F679   F     0.14459   0.24969   0.96952   0.00000  Uiso   1.00
F680   F     0.18758   0.08424   0.52984   0.00000  Uiso   1.00
O681   O     0.04166   0.08273   0.76565   0.00000  Uiso   1.00
C682   C     0.04424   0.07627   0.81153   0.00000  Uiso   1.00
H683   H     0.06095   0.10566   0.82783   0.00000  Uiso   1.00
H684   H     0.06164   0.04366   0.81825   0.00000  Uiso   1.00
H685   H     0.01346   0.07202   0.82603   0.00000  Uiso   1.00
O686   O     0.29227   0.25156   0.74218   0.00000  Uiso   1.00
C687   C     0.29915   0.27667   0.78159   0.00000  Uiso   1.00
H688   H     0.28920   0.25621   0.81072   0.00000  Uiso   1.00
H689   H     0.28096   0.30935   0.78048   0.00000  Uiso   1.00
H690   H     0.33165   0.28721   0.78555   0.00000  Uiso   1.00
O691   O     0.29200   0.08146   0.75807   0.00000  Uiso   1.00
C692   C     0.29135   0.05906   0.71669   0.00000  Uiso   1.00
H693   H     0.32220   0.04602   0.70808   0.00000  Uiso   1.00
H694   H     0.27062   0.02838   0.71828   0.00000  Uiso   1.00
H695   H     0.27928   0.08244   0.69024   0.00000  Uiso   1.00
O696   O     0.04109   0.24820   0.72657   0.00000  Uiso   1.00
C697   C     0.03599   0.25323   0.68068   0.00000  Uiso   1.00
H698   H     0.05362   0.22594   0.66302   0.00000  Uiso   1.00
H699   H     0.04779   0.28806   0.67088   0.00000  Uiso   1.00
H700   H     0.00335   0.25209   0.67011   0.00000  Uiso   1.00
C701   C     0.42072   0.16658   0.74930   0.00000  Uiso   1.00
C702   C     0.57935   0.16667   0.75022   0.00000  Uiso   1.00
C703   C     0.50066   0.16666   0.66508   0.00000  Uiso   1.00
C704   C     0.49917   0.16668   0.83491   0.00000  Uiso   1.00
C705   C     0.47755   0.02475   0.71960   0.00000  Uiso   1.00
C706   C     0.52198   0.30860   0.78078   0.00000  Uiso   1.00
C707   C     0.52243   0.02484   0.78043   0.00000  Uiso   1.00
C708   C     0.47803   0.30853   0.71925   0.00000  Uiso   1.00
C709   C     0.35471   0.12437   0.75728   0.00000  Uiso   1.00
C710   C     0.64569   0.20897   0.74521   0.00000  Uiso   1.00
C711   C     0.64558   0.12383   0.75402   0.00000  Uiso   1.00
C712   C     0.35452   0.20777   0.73946   0.00000  Uiso   1.00
C713   C     0.50831   0.20907   0.54883   0.00000  Uiso   1.00
C714   C     0.48982   0.12475   0.95119   0.00000  Uiso   1.00
C715   C     0.49064   0.20915   0.95109   0.00000  Uiso   1.00
C716   C     0.50828   0.12464   0.54863   0.00000  Uiso   1.00
C717   C     0.50607   0.20891   0.59436   0.00000  Uiso   1.00
C718   C     0.49248   0.12467   0.90567   0.00000  Uiso   1.00
C719   C     0.49335   0.20898   0.90560   0.00000  Uiso   1.00
C720   C     0.50609   0.12459   0.59418   0.00000  Uiso   1.00
C721   C     0.50288   0.16670   0.61718   0.00000  Uiso   1.00
C722   C     0.49645   0.16675   0.88278   0.00000  Uiso   1.00
C723   C     0.50316   0.16690   0.52451   0.00000  Uiso   1.00
C724   C     0.49525   0.16695   0.97538   0.00000  Uiso   1.00
C725   C     0.62404   0.16654   0.75005   0.00000  Uiso   1.00
C726   C     0.37615   0.16623   0.74864   0.00000  Uiso   1.00
Cu727  Cu    0.50000   0.21355   0.75000   0.00000  Uiso   1.00
Cu728  Cu    0.50000   0.11978   0.75000   0.00000  Uiso   1.00
H729   H     0.50855   0.24193   0.61179   0.00000  Uiso   1.00
H730   H     0.48977   0.09164   0.88830   0.00000  Uiso   1.00
H731   H     0.49132   0.24203   0.88818   0.00000  Uiso   1.00
H732   H     0.50857   0.09152   0.61148   0.00000  Uiso   1.00
N733   N     0.50000   0.28402   0.75000   0.00000  Uiso   1.00
N734   N     0.50000   0.04931   0.75000   0.00000  Uiso   1.00
O735   O     0.43988   0.20625   0.75000   0.00000  Uiso   1.00
O736   O     0.56012   0.12709   0.75001   0.00000  Uiso   1.00
O737   O     0.56012   0.20625   0.75001   0.00000  Uiso   1.00
O738   O     0.43988   0.12709   0.75000   0.00000  Uiso   1.00
O739   O     0.50000   0.20626   0.68573   0.00000  Uiso   1.00
O740   O     0.50000   0.12707   0.81427   0.00000  Uiso   1.00
O741   O     0.50000   0.20626   0.81427   0.00000  Uiso   1.00
O742   O     0.50000   0.12707   0.68573   0.00000  Uiso   1.00
F743   F     0.45451   0.04791   0.68939   0.00000  Uiso   1.00
F744   F     0.54357   0.28544   0.81216   0.00000  Uiso   1.00
F745   F     0.54545   0.04809   0.81066   0.00000  Uiso   1.00
F746   F     0.45662   0.28531   0.68781   0.00000  Uiso   1.00
F747   F     0.52111   0.24955   0.53034   0.00000  Uiso   1.00
F748   F     0.47647   0.08456   0.96981   0.00000  Uiso   1.00
F749   F     0.47792   0.24969   0.96952   0.00000  Uiso   1.00
F750   F     0.52091   0.08424   0.52984   0.00000  Uiso   1.00
O751   O     0.37499   0.08273   0.76565   0.00000  Uiso   1.00
C752   C     0.37758   0.07627   0.81153   0.00000  Uiso   1.00
H753   H     0.39428   0.10566   0.82783   0.00000  Uiso   1.00
H754   H     0.39497   0.04366   0.81825   0.00000  Uiso   1.00
H755   H     0.34679   0.07202   0.82603   0.00000  Uiso   1.00
O756   O     0.62561   0.25156   0.74218   0.00000  Uiso   1.00
C757   C     0.63248   0.27667   0.78159   0.00000  Uiso   1.00
H758   H     0.62254   0.25621   0.81072   0.00000  Uiso   1.00
H759   H     0.61429   0.30935   0.78048   0.00000  Uiso   1.00
H760   H     0.66499   0.28721   0.78555   0.00000  Uiso   1.00
O761   O     0.62534   0.08146   0.75807   0.00000  Uiso   1.00
C762   C     0.62468   0.05906   0.71669   0.00000  Uiso   1.00
H763   H     0.65553   0.04602   0.70808   0.00000  Uiso   1.00
H764   H     0.60395   0.02838   0.71828   0.00000  Uiso   1.00
H765   H     0.61261   0.08244   0.69024   0.00000  Uiso   1.00
O766   O     0.37442   0.24820   0.72657   0.00000  Uiso   1.00
C767   C     0.36932   0.25323   0.68068   0.00000  Uiso   1.00
H768   H     0.38695   0.22594   0.66302   0.00000  Uiso   1.00
H769   H     0.38113   0.28806   0.67088   0.00000  Uiso   1.00
H770   H     0.33668   0.25209   0.67011   0.00000  Uiso   1.00
C771   C     0.75405   0.16658   0.74930   0.00000  Uiso   1.00
C772   C     0.91268   0.16667   0.75022   0.00000  Uiso   1.00
C773   C     0.83399   0.16666   0.66508   0.00000  Uiso   1.00
C774   C     0.83251   0.16668   0.83491   0.00000  Uiso   1.00
C775   C     0.81089   0.02475   0.71960   0.00000  Uiso   1.00
C776   C     0.85532   0.30860   0.78078   0.00000  Uiso   1.00
C777   C     0.85577   0.02484   0.78043   0.00000  Uiso   1.00
C778   C     0.81136   0.30853   0.71925   0.00000  Uiso   1.00
C779   C     0.68804   0.12437   0.75728   0.00000  Uiso   1.00
C780   C     0.97903   0.20897   0.74521   0.00000  Uiso   1.00
C781   C     0.97891   0.12383   0.75402   0.00000  Uiso   1.00
C782   C     0.68785   0.20777   0.73946   0.00000  Uiso   1.00
C783   C     0.84165   0.20907   0.54883   0.00000  Uiso   1.00
C784   C     0.82316   0.12475   0.95119   0.00000  Uiso   1.00
C785   C     0.82397   0.20915   0.95109   0.00000  Uiso   1.00
C786   C     0.84162   0.12464   0.54863   0.00000  Uiso   1.00
C787   C     0.83941   0.20891   0.59436   0.00000  Uiso   1.00
C788   C     0.82582   0.12467   0.90567   0.00000  Uiso   1.00
C789   C     0.82668   0.20898   0.90560   0.00000  Uiso   1.00
C790   C     0.83942   0.12459   0.59418   0.00000  Uiso   1.00
C791   C     0.83622   0.16670   0.61718   0.00000  Uiso   1.00
C792   C     0.82978   0.16675   0.88278   0.00000  Uiso   1.00
C793   C     0.83649   0.16690   0.52451   0.00000  Uiso   1.00
C794   C     0.82859   0.16695   0.97538   0.00000  Uiso   1.00
C795   C     0.95737   0.16654   0.75005   0.00000  Uiso   1.00
C796   C     0.70948   0.16623   0.74864   0.00000  Uiso   1.00
Cu797  Cu    0.83333   0.21355   0.75000   0.00000  Uiso   1.00
Cu798  Cu    0.83333   0.11978   0.75000   0.00000  Uiso   1.00
H799   H     0.84188   0.24193   0.61179   0.00000  Uiso   1.00
H800   H     0.82310   0.09164   0.88830   0.00000  Uiso   1.00
H801   H     0.82466   0.24203   0.88818   0.00000  Uiso   1.00
H802   H     0.84190   0.09152   0.61148   0.00000  Uiso   1.00
N803   N     0.83333   0.28402   0.75000   0.00000  Uiso   1.00
N804   N     0.83333   0.04931   0.75000   0.00000  Uiso   1.00
O805   O     0.77321   0.20625   0.75000   0.00000  Uiso   1.00
O806   O     0.89345   0.12709   0.75001   0.00000  Uiso   1.00
O807   O     0.89345   0.20625   0.75001   0.00000  Uiso   1.00
O808   O     0.77321   0.12709   0.75000   0.00000  Uiso   1.00
O809   O     0.83333   0.20626   0.68573   0.00000  Uiso   1.00
O810   O     0.83334   0.12707   0.81427   0.00000  Uiso   1.00
O811   O     0.83334   0.20626   0.81427   0.00000  Uiso   1.00
O812   O     0.83333   0.12707   0.68573   0.00000  Uiso   1.00
F813   F     0.78784   0.04791   0.68939   0.00000  Uiso   1.00
F814   F     0.87690   0.28544   0.81216   0.00000  Uiso   1.00
F815   F     0.87879   0.04809   0.81066   0.00000  Uiso   1.00
F816   F     0.78996   0.28531   0.68781   0.00000  Uiso   1.00
F817   F     0.85445   0.24955   0.53034   0.00000  Uiso   1.00
F818   F     0.80980   0.08456   0.96981   0.00000  Uiso   1.00
F819   F     0.81125   0.24969   0.96952   0.00000  Uiso   1.00
F820   F     0.85424   0.08424   0.52984   0.00000  Uiso   1.00
O821   O     0.70833   0.08273   0.76565   0.00000  Uiso   1.00
C822   C     0.71091   0.07627   0.81153   0.00000  Uiso   1.00
H823   H     0.72761   0.10566   0.82783   0.00000  Uiso   1.00
H824   H     0.72830   0.04366   0.81825   0.00000  Uiso   1.00
H825   H     0.68013   0.07202   0.82603   0.00000  Uiso   1.00
O826   O     0.95894   0.25156   0.74218   0.00000  Uiso   1.00
C827   C     0.96581   0.27667   0.78159   0.00000  Uiso   1.00
H828   H     0.95587   0.25621   0.81072   0.00000  Uiso   1.00
H829   H     0.94763   0.30935   0.78048   0.00000  Uiso   1.00
H830   H     0.99832   0.28721   0.78555   0.00000  Uiso   1.00
O831   O     0.95867   0.08146   0.75807   0.00000  Uiso   1.00
C832   C     0.95801   0.05906   0.71669   0.00000  Uiso   1.00
H833   H     0.98886   0.04602   0.70808   0.00000  Uiso   1.00
H834   H     0.93728   0.02838   0.71828   0.00000  Uiso   1.00
H835   H     0.94594   0.08244   0.69024   0.00000  Uiso   1.00
O836   O     0.70775   0.24820   0.72657   0.00000  Uiso   1.00
C837   C     0.70265   0.25323   0.68068   0.00000  Uiso   1.00
H838   H     0.72029   0.22594   0.66302   0.00000  Uiso   1.00
H839   H     0.71446   0.28806   0.67088   0.00000  Uiso   1.00
H840   H     0.67001   0.25209   0.67011   0.00000  Uiso   1.00
C841   C     0.08739   0.49991   0.74930   0.00000  Uiso   1.00
C842   C     0.24601   0.50000   0.75022   0.00000  Uiso   1.00
C843   C     0.16733   0.50000   0.66508   0.00000  Uiso   1.00
C844   C     0.16584   0.50001   0.83491   0.00000  Uiso   1.00
C845   C     0.14422   0.35809   0.71960   0.00000  Uiso   1.00
C846   C     0.18865   0.64193   0.78078   0.00000  Uiso   1.00
C847   C     0.18910   0.35817   0.78043   0.00000  Uiso   1.00
C848   C     0.14469   0.64187   0.71925   0.00000  Uiso   1.00
C849   C     0.02138   0.45771   0.75728   0.00000  Uiso   1.00
C850   C     0.31236   0.54231   0.74521   0.00000  Uiso   1.00
C851   C     0.31224   0.45716   0.75402   0.00000  Uiso   1.00
C852   C     0.02118   0.54110   0.73946   0.00000  Uiso   1.00
C853   C     0.17498   0.54240   0.54883   0.00000  Uiso   1.00
C854   C     0.15649   0.45809   0.95119   0.00000  Uiso   1.00
C855   C     0.15730   0.54248   0.95109   0.00000  Uiso   1.00
C856   C     0.17495   0.45797   0.54863   0.00000  Uiso   1.00
C857   C     0.17274   0.54224   0.59436   0.00000  Uiso   1.00
C858   C     0.15915   0.45801   0.90567   0.00000  Uiso   1.00
C859   C     0.16001   0.54232   0.90560   0.00000  Uiso   1.00
C860   C     0.17276   0.45793   0.59418   0.00000  Uiso   1.00
C861   C     0.16955   0.50003   0.61718   0.00000  Uiso   1.00
C862   C     0.16311   0.50008   0.88278   0.00000  Uiso   1.00
C863   C     0.16982   0.50024   0.52451   0.00000  Uiso   1.00
C864   C     0.16192   0.50028   0.97538   0.00000  Uiso   1.00
C865   C     0.29070   0.49987   0.75005   0.00000  Uiso   1.00
C866   C     0.04282   0.49956   0.74864   0.00000  Uiso   1.00
Cu867  Cu    0.16667   0.54689   0.75000   0.00000  Uiso   1.00
Cu868  Cu    0.16667   0.45311   0.75000   0.00000  Uiso   1.00
H869   H     0.17522   0.57526   0.61179   0.00000  Uiso   1.00
H870   H     0.15644   0.42497   0.88830   0.00000  Uiso   1.00
H871   H     0.15799   0.57536   0.88818   0.00000  Uiso   1.00
H872   H     0.17524   0.42485   0.61148   0.00000  Uiso   1.00
N873   N     0.16667   0.61736   0.75000   0.00000  Uiso   1.00
N874   N     0.16667   0.38264   0.75000   0.00000  Uiso   1.00
O875   O     0.10655   0.53958   0.75000   0.00000  Uiso   1.00
O876   O     0.22679   0.46042   0.75001   0.00000  Uiso   1.00
O877   O     0.22679   0.53958   0.75001   0.00000  Uiso   1.00
O878   O     0.10655   0.46042   0.75000   0.00000  Uiso   1.00
O879   O     0.16666   0.53959   0.68573   0.00000  Uiso   1.00
O880   O     0.16667   0.46041   0.81427   0.00000  Uiso   1.00
O881   O     0.16667   0.53959   0.81427   0.00000  Uiso   1.00
O882   O     0.16666   0.46041   0.68573   0.00000  Uiso   1.00
F883   F     0.12118   0.38125   0.68939   0.00000  Uiso   1.00
F884   F     0.21024   0.61878   0.81216   0.00000  Uiso   1.00
F885   F     0.21212   0.38142   0.81066   0.00000  Uiso   1.00
F886   F     0.12329   0.61864   0.68781   0.00000  Uiso   1.00
F887   F     0.18778   0.58288   0.53034   0.00000  Uiso   1.00
F888   F     0.14314   0.41790   0.96981   0.00000  Uiso   1.00
F889   F     0.14459   0.58303   0.96952   0.00000  Uiso   1.00
F890   F     0.18758   0.41757   0.52984   0.00000  Uiso   1.00
O891   O     0.04166   0.41606   0.76565   0.00000  Uiso   1.00
C892   C     0.04424   0.40960   0.81153   0.00000  Uiso   1.00
H893   H     0.06095   0.43899   0.82783   0.00000  Uiso   1.00
H894   H     0.06164   0.37699   0.81825   0.00000  Uiso   1.00
H895   H     0.01346   0.40535   0.82603   0.00000  Uiso   1.00
O896   O     0.29227   0.58489   0.74218   0.00000  Uiso   1.00
C897   C     0.29915   0.61000   0.78159   0.00000  Uiso   1.00
H898   H     0.28920   0.58954   0.81072   0.00000  Uiso   1.00
H899   H     0.28096   0.64268   0.78048   0.00000  Uiso   1.00
H900   H     0.33165   0.62054   0.78555   0.00000  Uiso   1.00
O901   O     0.29200   0.41479   0.75807   0.00000  Uiso   1.00
C902   C     0.29135   0.39240   0.71669   0.00000  Uiso   1.00
H903   H     0.32220   0.37935   0.70808   0.00000  Uiso   1.00
H904   H     0.27062   0.36171   0.71828   0.00000  Uiso   1.00
H905   H     0.27928   0.41578   0.69024   0.00000  Uiso   1.00
O906   O     0.04109   0.58154   0.72657   0.00000  Uiso   1.00
C907   C     0.03599   0.58657   0.68068   0.00000  Uiso   1.00
H908   H     0.05362   0.55927   0.66302   0.00000  Uiso   1.00
H909   H     0.04779   0.62140   0.67088   0.00000  Uiso   1.00
H910   H     0.00335   0.58542   0.67011   0.00000  Uiso   1.00
C911   C     0.42072   0.49991   0.74930   0.00000  Uiso   1.00
C912   C     0.57935   0.50000   0.75022   0.00000  Uiso   1.00
C913   C     0.50066   0.50000   0.66508   0.00000  Uiso   1.00
C914   C     0.49917   0.50001   0.83491   0.00000  Uiso   1.00
C915   C     0.47755   0.35809   0.71960   0.00000  Uiso   1.00
C916   C     0.52198   0.64193   0.78078   0.00000  Uiso   1.00
C917   C     0.52243   0.35817   0.78043   0.00000  Uiso   1.00
C918   C     0.47803   0.64187   0.71925   0.00000  Uiso   1.00
C919   C     0.35471   0.45771   0.75728   0.00000  Uiso   1.00
C920   C     0.64569   0.54231   0.74521   0.00000  Uiso   1.00
C921   C     0.64558   0.45716   0.75402   0.00000  Uiso   1.00
C922   C     0.35452   0.54110   0.73946   0.00000  Uiso   1.00
C923   C     0.50831   0.54240   0.54883   0.00000  Uiso   1.00
C924   C     0.48982   0.45809   0.95119   0.00000  Uiso   1.00
C925   C     0.49064   0.54248   0.95109   0.00000  Uiso   1.00
C926   C     0.50828   0.45797   0.54863   0.00000  Uiso   1.00
C927   C     0.50607   0.54224   0.59436   0.00000  Uiso   1.00
C928   C     0.49248   0.45801   0.90567   0.00000  Uiso   1.00
C929   C     0.49335   0.54232   0.90560   0.00000  Uiso   1.00
C930   C     0.50609   0.45793   0.59418   0.00000  Uiso   1.00
C931   C     0.50288   0.50003   0.61718   0.00000  Uiso   1.00
C932   C     0.49645   0.50008   0.88278   0.00000  Uiso   1.00
C933   C     0.50316   0.50024   0.52451   0.00000  Uiso   1.00
C934   C     0.49525   0.50028   0.97538   0.00000  Uiso   1.00
C935   C     0.62404   0.49987   0.75005   0.00000  Uiso   1.00
C936   C     0.37615   0.49956   0.74864   0.00000  Uiso   1.00
Cu937  Cu    0.50000   0.54689   0.75000   0.00000  Uiso   1.00
Cu938  Cu    0.50000   0.45311   0.75000   0.00000  Uiso   1.00
H939   H     0.50855   0.57526   0.61179   0.00000  Uiso   1.00
H940   H     0.48977   0.42497   0.88830   0.00000  Uiso   1.00
H941   H     0.49132   0.57536   0.88818   0.00000  Uiso   1.00
H942   H     0.50857   0.42485   0.61148   0.00000  Uiso   1.00
N943   N     0.50000   0.61736   0.75000   0.00000  Uiso   1.00
N944   N     0.50000   0.38264   0.75000   0.00000  Uiso   1.00
O945   O     0.43988   0.53958   0.75000   0.00000  Uiso   1.00
O946   O     0.56012   0.46042   0.75001   0.00000  Uiso   1.00
O947   O     0.56012   0.53958   0.75001   0.00000  Uiso   1.00
O948   O     0.43988   0.46042   0.75000   0.00000  Uiso   1.00
O949   O     0.50000   0.53959   0.68573   0.00000  Uiso   1.00
O950   O     0.50000   0.46041   0.81427   0.00000  Uiso   1.00
O951   O     0.50000   0.53959   0.81427   0.00000  Uiso   1.00
O952   O     0.50000   0.46041   0.68573   0.00000  Uiso   1.00
F953   F     0.45451   0.38125   0.68939   0.00000  Uiso   1.00
F954   F     0.54357   0.61878   0.81216   0.00000  Uiso   1.00
F955   F     0.54545   0.38142   0.81066   0.00000  Uiso   1.00
F956   F     0.45662   0.61864   0.68781   0.00000  Uiso   1.00
F957   F     0.52111   0.58288   0.53034   0.00000  Uiso   1.00
F958   F     0.47647   0.41790   0.96981   0.00000  Uiso   1.00
F959   F     0.47792   0.58303   0.96952   0.00000  Uiso   1.00
F960   F     0.52091   0.41757   0.52984   0.00000  Uiso   1.00
O961   O     0.37499   0.41606   0.76565   0.00000  Uiso   1.00
C962   C     0.37758   0.40960   0.81153   0.00000  Uiso   1.00
H963   H     0.39428   0.43899   0.82783   0.00000  Uiso   1.00
H964   H     0.39497   0.37699   0.81825   0.00000  Uiso   1.00
H965   H     0.34679   0.40535   0.82603   0.00000  Uiso   1.00
O966   O     0.62561   0.58489   0.74218   0.00000  Uiso   1.00
C967   C     0.63248   0.61000   0.78159   0.00000  Uiso   1.00
H968   H     0.62254   0.58954   0.81072   0.00000  Uiso   1.00
H969   H     0.61429   0.64268   0.78048   0.00000  Uiso   1.00
H970   H     0.66499   0.62054   0.78555   0.00000  Uiso   1.00
O971   O     0.62534   0.41479   0.75807   0.00000  Uiso   1.00
C972   C     0.62468   0.39240   0.71669   0.00000  Uiso   1.00
H973   H     0.65553   0.37935   0.70808   0.00000  Uiso   1.00
H974   H     0.60395   0.36171   0.71828   0.00000  Uiso   1.00
H975   H     0.61261   0.41578   0.69024   0.00000  Uiso   1.00
O976   O     0.37442   0.58154   0.72657   0.00000  Uiso   1.00
C977   C     0.36932   0.58657   0.68068   0.00000  Uiso   1.00
H978   H     0.38695   0.55927   0.66302   0.00000  Uiso   1.00
H979   H     0.38113   0.62140   0.67088   0.00000  Uiso   1.00
H980   H     0.33668   0.58542   0.67011   0.00000  Uiso   1.00
C981   C     0.75405   0.49991   0.74930   0.00000  Uiso   1.00
C982   C     0.91268   0.50000   0.75022   0.00000  Uiso   1.00
C983   C     0.83399   0.50000   0.66508   0.00000  Uiso   1.00
C984   C     0.83251   0.50001   0.83491   0.00000  Uiso   1.00
C985   C     0.81089   0.35809   0.71960   0.00000  Uiso   1.00
C986   C     0.85532   0.64193   0.78078   0.00000  Uiso   1.00
C987   C     0.85577   0.35817   0.78043   0.00000  Uiso   1.00
C988   C     0.81136   0.64187   0.71925   0.00000  Uiso   1.00
C989   C     0.68804   0.45771   0.75728   0.00000  Uiso   1.00
C990   C     0.97903   0.54231   0.74521   0.00000  Uiso   1.00
C991   C     0.97891   0.45716   0.75402   0.00000  Uiso   1.00
C992   C     0.68785   0.54110   0.73946   0.00000  Uiso   1.00
C993   C     0.84165   0.54240   0.54883   0.00000  Uiso   1.00
C994   C     0.82316   0.45809   0.95119   0.00000  Uiso   1.00
C995   C     0.82397   0.54248   0.95109   0.00000  Uiso   1.00
C996   C     0.84162   0.45797   0.54863   0.00000  Uiso   1.00
C997   C     0.83941   0.54224   0.59436   0.00000  Uiso   1.00
C998   C     0.82582   0.45801   0.90567   0.00000  Uiso   1.00
C999   C     0.82668   0.54232   0.90560   0.00000  Uiso   1.00
C1000  C     0.83942   0.45793   0.59418   0.00000  Uiso   1.00
C1001  C     0.83622   0.50003   0.61718   0.00000  Uiso   1.00
C1002  C     0.82978   0.50008   0.88278   0.00000  Uiso   1.00
C1003  C     0.83649   0.50024   0.52451   0.00000  Uiso   1.00
C1004  C     0.82859   0.50028   0.97538   0.00000  Uiso   1.00
C1005  C     0.95737   0.49987   0.75005   0.00000  Uiso   1.00
C1006  C     0.70948   0.49956   0.74864   0.00000  Uiso   1.00
Cu1007 Cu    0.83333   0.54689   0.75000   0.00000  Uiso   1.00
Cu1008 Cu    0.83333   0.45311   0.75000   0.00000  Uiso   1.00
H1009  H     0.84188   0.57526   0.61179   0.00000  Uiso   1.00
H1010  H     0.82310   0.42497   0.88830   0.00000  Uiso   1.00
H1011  H     0.82466   0.57536   0.88818   0.00000  Uiso   1.00
H1012  H     0.84190   0.42485   0.61148   0.00000  Uiso   1.00
N1013  N     0.83333   0.61736   0.75000   0.00000  Uiso   1.00
N1014  N     0.83333   0.38264   0.75000   0.00000  Uiso   1.00
O1015  O     0.77321   0.53958   0.75000   0.00000  Uiso   1.00
O1016  O     0.89345   0.46042   0.75001   0.00000  Uiso   1.00
O1017  O     0.89345   0.53958   0.75001   0.00000  Uiso   1.00
O1018  O     0.77321   0.46042   0.75000   0.00000  Uiso   1.00
O1019  O     0.83333   0.53959   0.68573   0.00000  Uiso   1.00
O1020  O     0.83334   0.46041   0.81427   0.00000  Uiso   1.00
O1021  O     0.83334   0.53959   0.81427   0.00000  Uiso   1.00
O1022  O     0.83333   0.46041   0.68573   0.00000  Uiso   1.00
F1023  F     0.78784   0.38125   0.68939   0.00000  Uiso   1.00
F1024  F     0.87690   0.61878   0.81216   0.00000  Uiso   1.00
F1025  F     0.87879   0.38142   0.81066   0.00000  Uiso   1.00
F1026  F     0.78996   0.61864   0.68781   0.00000  Uiso   1.00
F1027  F     0.85445   0.58288   0.53034   0.00000  Uiso   1.00
F1028  F     0.80980   0.41790   0.96981   0.00000  Uiso   1.00
F1029  F     0.81125   0.58303   0.96952   0.00000  Uiso   1.00
F1030  F     0.85424   0.41757   0.52984   0.00000  Uiso   1.00
O1031  O     0.70833   0.41606   0.76565   0.00000  Uiso   1.00
C1032  C     0.71091   0.40960   0.81153   0.00000  Uiso   1.00
H1033  H     0.72761   0.43899   0.82783   0.00000  Uiso   1.00
H1034  H     0.72830   0.37699   0.81825   0.00000  Uiso   1.00
H1035  H     0.68013   0.40535   0.82603   0.00000  Uiso   1.00
O1036  O     0.95894   0.58489   0.74218   0.00000  Uiso   1.00
C1037  C     0.96581   0.61000   0.78159   0.00000  Uiso   1.00
H1038  H     0.95587   0.58954   0.81072   0.00000  Uiso   1.00
H1039  H     0.94763   0.64268   0.78048   0.00000  Uiso   1.00
H1040  H     0.99832   0.62054   0.78555   0.00000  Uiso   1.00
O1041  O     0.95867   0.41479   0.75807   0.00000  Uiso   1.00
C1042  C     0.95801   0.39240   0.71669   0.00000  Uiso   1.00
H1043  H     0.98886   0.37935   0.70808   0.00000  Uiso   1.00
H1044  H     0.93728   0.36171   0.71828   0.00000  Uiso   1.00
H1045  H     0.94594   0.41578   0.69024   0.00000  Uiso   1.00
O1046  O     0.70775   0.58154   0.72657   0.00000  Uiso   1.00
C1047  C     0.70265   0.58657   0.68068   0.00000  Uiso   1.00
H1048  H     0.72029   0.55927   0.66302   0.00000  Uiso   1.00
H1049  H     0.71446   0.62140   0.67088   0.00000  Uiso   1.00
H1050  H     0.67001   0.58542   0.67011   0.00000  Uiso   1.00
C1051  C     0.08739   0.83324   0.74930   0.00000  Uiso   1.00
C1052  C     0.24601   0.83333   0.75022   0.00000  Uiso   1.00
C1053  C     0.16733   0.83333   0.66508   0.00000  Uiso   1.00
C1054  C     0.16584   0.83335   0.83491   0.00000  Uiso   1.00
C1055  C     0.14422   0.69142   0.71960   0.00000  Uiso   1.00
C1056  C     0.18865   0.97527   0.78078   0.00000  Uiso   1.00
C1057  C     0.18910   0.69150   0.78043   0.00000  Uiso   1.00
C1058  C     0.14469   0.97520   0.71925   0.00000  Uiso   1.00
C1059  C     0.02138   0.79104   0.75728   0.00000  Uiso   1.00
C1060  C     0.31236   0.87564   0.74521   0.00000  Uiso   1.00
C1061  C     0.31224   0.79049   0.75402   0.00000  Uiso   1.00
C1062  C     0.02118   0.87443   0.73946   0.00000  Uiso   1.00
C1063  C     0.17498   0.87573   0.54883   0.00000  Uiso   1.00
C1064  C     0.15649   0.79142   0.95119   0.00000  Uiso   1.00
C1065  C     0.15730   0.87582   0.95109   0.00000  Uiso   1.00
C1066  C     0.17495   0.79130   0.54863   0.00000  Uiso   1.00
C1067  C     0.17274   0.87557   0.59436   0.00000  Uiso   1.00
C1068  C     0.15915   0.79134   0.90567   0.00000  Uiso   1.00
C1069  C     0.16001   0.87565   0.90560   0.00000  Uiso   1.00
C1070  C     0.17276   0.79126   0.59418   0.00000  Uiso   1.00
C1071  C     0.16955   0.83337   0.61718   0.00000  Uiso   1.00
C1072  C     0.16311   0.83341   0.88278   0.00000  Uiso   1.00
C1073  C     0.16982   0.83357   0.52451   0.00000  Uiso   1.00
C1074  C     0.16192   0.83361   0.97538   0.00000  Uiso   1.00
C1075  C     0.29070   0.83321   0.75005   0.00000  Uiso   1.00
C1076  C     0.04282   0.83290   0.74864   0.00000  Uiso   1.00
Cu1077 Cu    0.16667   0.88022   0.75000   0.00000  Uiso   1.00
Cu1078 Cu    0.16667   0.78645   0.75000   0.00000  Uiso   1.00
H1079  H     0.17522   0.90859   0.61179   0.00000  Uiso   1.00
H1080  H     0.15644   0.75830   0.88830   0.00000  Uiso   1.00
H1081  H     0.15799   0.90869   0.88818   0.00000  Uiso   1.00
H1082  H     0.17524   0.75818   0.61148   0.00000  Uiso   1.00
N1083  N     0.16667   0.95069   0.75000   0.00000  Uiso   1.00
N1084  N     0.16667   0.71598   0.75000   0.00000  Uiso   1.00
O1085  O     0.10655   0.87291   0.75000   0.00000  Uiso   1.00
O1086  O     0.22679   0.79375   0.75001   0.00000  Uiso   1.00
O1087  O     0.22679   0.87291   0.75001   0.00000  Uiso   1.00
O1088  O     0.10655   0.79375   0.75000   0.00000  Uiso   1.00
O1089  O     0.16666   0.87293   0.68573   0.00000  Uiso   1.00
O1090  O     0.16667   0.79374   0.81427   0.00000  Uiso   1.00
O1091  O     0.16667   0.87293   0.81427   0.00000  Uiso   1.00
O1092  O     0.16666   0.79374   0.68573   0.00000  Uiso   1.00
F1093  F     0.12118   0.71458   0.68939   0.00000  Uiso   1.00
F1094  F     0.21024   0.95211   0.81216   0.00000  Uiso   1.00
F1095  F     0.21212   0.71476   0.81066   0.00000  Uiso   1.00
F1096  F     0.12329   0.95197   0.68781   0.00000  Uiso   1.00
F1097  F     0.18778   0.91622   0.53034   0.00000  Uiso   1.00
F1098  F     0.14314   0.75123   0.96981   0.00000  Uiso   1.00
F1099  F     0.14459   0.91636   0.96952   0.00000  Uiso   1.00
F1100  F     0.18758   0.75091   0.52984   0.00000  Uiso   1.00
O1101  O     0.04166   0.74939   0.76565   0.00000  Uiso   1.00
C1102  C     0.04424   0.74293   0.81153   0.00000  Uiso   1.00
H1103  H     0.06095   0.77233   0.82783   0.00000  Uiso   1.00
H1104  H     0.06164   0.71033   0.81825   0.00000  Uiso   1.00
H1105  H     0.01346   0.73869   0.82603   0.00000  Uiso   1.00
O1106  O     0.29227   0.91823   0.74218   0.00000  Uiso   1.00
C1107  C     0.29915   0.94334   0.78159   0.00000  Uiso   1.00
H1108  H     0.28920   0.92288   0.81072   0.00000  Uiso   1.00
H1109  H     0.28096   0.97601   0.78048   0.00000  Uiso   1.00
H1110  H     0.33165   0.95387   0.78555   0.00000  Uiso   1.00
O1111  O     0.29200   0.74813   0.75807   0.00000  Uiso   1.00
C1112  C     0.29135   0.72573   0.71669   0.00000  Uiso   1.00
H1113  H     0.32220   0.71268   0.70808   0.00000  Uiso   1.00
H1114  H     0.27062   0.69505   0.71828   0.00000  Uiso   1.00
H1115  H     0.27928   0.74911   0.69024   0.00000  Uiso   1.00
O1116  O     0.04109   0.91487   0.72657   0.00000  Uiso   1.00
C1117  C     0.03599   0.91990   0.68068   0.00000  Uiso   1.00
H1118  H     0.05362   0.89261   0.66302   0.00000  Uiso   1.00
H1119  H     0.04779   0.95473   0.67088   0.00000  Uiso   1.00
H1120  H     0.00335   0.91876   0.67011   0.00000  Uiso   1.00
C1121  C     0.42072   0.83324   0.74930   0.00000  Uiso   1.00
C1122  C     0.57935   0.83333   0.75022   0.00000  Uiso   1.00
C1123  C     0.50066   0.83333   0.66508   0.00000  Uiso   1.00
C1124  C     0.49917   0.83335   0.83491   0.00000  Uiso   1.00
C1125  C     0.47755   0.69142   0.71960   0.00000  Uiso   1.00
C1126  C     0.52198   0.97527   0.78078   0.00000  Uiso   1.00
C1127  C     0.52243   0.69150   0.78043   0.00000  Uiso   1.00
C1128  C     0.47803   0.97520   0.71925   0.00000  Uiso   1.00
C1129  C     0.35471   0.79104   0.75728   0.00000  Uiso   1.00
C1130  C     0.64569   0.87564   0.74521   0.00000  Uiso   1.00
C1131  C     0.64558   0.79049   0.75402   0.00000  Uiso   1.00
C1132  C     0.35452   0.87443   0.73946   0.00000  Uiso   1.00
C1133  C     0.50831   0.87573   0.54883   0.00000  Uiso   1.00
C1134  C     0.48982   0.79142   0.95119   0.00000  Uiso   1.00
C1135  C     0.49064   0.87582   0.95109   0.00000  Uiso   1.00
C1136  C     0.50828   0.79130   0.54863   0.00000  Uiso   1.00
C1137  C     0.50607   0.87557   0.59436   0.00000  Uiso   1.00
C1138  C     0.49248   0.79134   0.90567   0.00000  Uiso   1.00
C1139  C     0.49335   0.87565   0.90560   0.00000  Uiso   1.00
C1140  C     0.50609   0.79126   0.59418   0.00000  Uiso   1.00
C1141  C     0.50288   0.83337   0.61718   0.00000  Uiso   1.00
C1142  C     0.49645   0.83341   0.88278   0.00000  Uiso   1.00
C1143  C     0.50316   0.83357   0.52451   0.00000  Uiso   1.00
C1144  C     0.49525   0.83361   0.97538   0.00000  Uiso   1.00
C1145  C     0.62404   0.83321   0.75005   0.00000  Uiso   1.00
C1146  C     0.37615   0.83290   0.74864   0.00000  Uiso   1.00
Cu1147 Cu    0.50000   0.88022   0.75000   0.00000  Uiso   1.00
Cu1148 Cu    0.50000   0.78645   0.75000   0.00000  Uiso   1.00
H1149  H     0.50855   0.90859   0.61179   0.00000  Uiso   1.00
H1150  H     0.48977   0.75830   0.88830   0.00000  Uiso   1.00
H1151  H     0.49132   0.90869   0.88818   0.00000  Uiso   1.00
H1152  H     0.50857   0.75818   0.61148   0.00000  Uiso   1.00
N1153  N     0.50000   0.95069   0.75000   0.00000  Uiso   1.00
N1154  N     0.50000   0.71598   0.75000   0.00000  Uiso   1.00
O1155  O     0.43988   0.87291   0.75000   0.00000  Uiso   1.00
O1156  O     0.56012   0.79375   0.75001   0.00000  Uiso   1.00
O1157  O     0.56012   0.87291   0.75001   0.00000  Uiso   1.00
O1158  O     0.43988   0.79375   0.75000   0.00000  Uiso   1.00
O1159  O     0.50000   0.87293   0.68573   0.00000  Uiso   1.00
O1160  O     0.50000   0.79374   0.81427   0.00000  Uiso   1.00
O1161  O     0.50000   0.87293   0.81427   0.00000  Uiso   1.00
O1162  O     0.50000   0.79374   0.68573   0.00000  Uiso   1.00
F1163  F     0.45451   0.71458   0.68939   0.00000  Uiso   1.00
F1164  F     0.54357   0.95211   0.81216   0.00000  Uiso   1.00
F1165  F     0.54545   0.71476   0.81066   0.00000  Uiso   1.00
F1166  F     0.45662   0.95197   0.68781   0.00000  Uiso   1.00
F1167  F     0.52111   0.91622   0.53034   0.00000  Uiso   1.00
F1168  F     0.47647   0.75123   0.96981   0.00000  Uiso   1.00
F1169  F     0.47792   0.91636   0.96952   0.00000  Uiso   1.00
F1170  F     0.52091   0.75091   0.52984   0.00000  Uiso   1.00
O1171  O     0.37499   0.74939   0.76565   0.00000  Uiso   1.00
C1172  C     0.37758   0.74293   0.81153   0.00000  Uiso   1.00
H1173  H     0.39428   0.77233   0.82783   0.00000  Uiso   1.00
H1174  H     0.39497   0.71033   0.81825   0.00000  Uiso   1.00
H1175  H     0.34679   0.73869   0.82603   0.00000  Uiso   1.00
O1176  O     0.62561   0.91823   0.74218   0.00000  Uiso   1.00
C1177  C     0.63248   0.94334   0.78159   0.00000  Uiso   1.00
H1178  H     0.62254   0.92288   0.81072   0.00000  Uiso   1.00
H1179  H     0.61429   0.97601   0.78048   0.00000  Uiso   1.00
H1180  H     0.66499   0.95387   0.78555   0.00000  Uiso   1.00
O1181  O     0.62534   0.74813   0.75807   0.00000  Uiso   1.00
C1182  C     0.62468   0.72573   0.71669   0.00000  Uiso   1.00
H1183  H     0.65553   0.71268   0.70808   0.00000  Uiso   1.00
H1184  H     0.60395   0.69505   0.71828   0.00000  Uiso   1.00
H1185  H     0.61261   0.74911   0.69024   0.00000  Uiso   1.00
O1186  O     0.37442   0.91487   0.72657   0.00000  Uiso   1.00
C1187  C     0.36932   0.91990   0.68068   0.00000  Uiso   1.00
H1188  H     0.38695   0.89261   0.66302   0.00000  Uiso   1.00
H1189  H     0.38113   0.95473   0.67088   0.00000  Uiso   1.00
H1190  H     0.33668   0.91876   0.67011   0.00000  Uiso   1.00
C1191  C     0.75405   0.83324   0.74930   0.00000  Uiso   1.00
C1192  C     0.91268   0.83333   0.75022   0.00000  Uiso   1.00
C1193  C     0.83399   0.83333   0.66508   0.00000  Uiso   1.00
C1194  C     0.83251   0.83335   0.83491   0.00000  Uiso   1.00
C1195  C     0.81089   0.69142   0.71960   0.00000  Uiso   1.00
C1196  C     0.85532   0.97527   0.78078   0.00000  Uiso   1.00
C1197  C     0.85577   0.69150   0.78043   0.00000  Uiso   1.00
C1198  C     0.81136   0.97520   0.71925   0.00000  Uiso   1.00
C1199  C     0.68804   0.79104   0.75728   0.00000  Uiso   1.00
C1200  C     0.97903   0.87564   0.74521   0.00000  Uiso   1.00
C1201  C     0.97891   0.79049   0.75402   0.00000  Uiso   1.00
C1202  C     0.68785   0.87443   0.73946   0.00000  Uiso   1.00
C1203  C     0.84165   0.87573   0.54883   0.00000  Uiso   1.00
C1204  C     0.82316   0.79142   0.95119   0.00000  Uiso   1.00
C1205  C     0.82397   0.87582   0.95109   0.00000  Uiso   1.00
C1206  C     0.84162   0.79130   0.54863   0.00000  Uiso   1.00
C1207  C     0.83941   0.87557   0.59436   0.00000  Uiso   1.00
C1208  C     0.82582   0.79134   0.90567   0.00000  Uiso   1.00
C1209  C     0.82668   0.87565   0.90560   0.00000  Uiso   1.00
C1210  C     0.83942   0.79126   0.59418   0.00000  Uiso   1.00
C1211  C     0.83622   0.83337   0.61718   0.00000  Uiso   1.00
C1212  C     0.82978   0.83341   0.88278   0.00000  Uiso   1.00
C1213  C     0.83649   0.83357   0.52451   0.00000  Uiso   1.00
C1214  C     0.82859   0.83361   0.97538   0.00000  Uiso   1.00
C1215  C     0.95737   0.83321   0.75005   0.00000  Uiso   1.00
C1216  C     0.70948   0.83290   0.74864   0.00000  Uiso   1.00
Cu1217 Cu    0.83333   0.88022   0.75000   0.00000  Uiso   1.00
Cu1218 Cu    0.83333   0.78645   0.75000   0.00000  Uiso   1.00
H1219  H     0.84188   0.90859   0.61179   0.00000  Uiso   1.00
H1220  H     0.82310   0.75830   0.88830   0.00000  Uiso   1.00
H1221  H     0.82466   0.90869   0.88818   0.00000  Uiso   1.00
H1222  H     0.84190   0.75818   0.61148   0.00000  Uiso   1.00
N1223  N     0.83333   0.95069   0.75000   0.00000  Uiso   1.00
N1224  N     0.83333   0.71598   0.75000   0.00000  Uiso   1.00
O1225  O     0.77321   0.87291   0.75000   0.00000  Uiso   1.00
O1226  O     0.89345   0.79375   0.75001   0.00000  Uiso   1.00
O1227  O     0.89345   0.87291   0.75001   0.00000  Uiso   1.00
O1228  O     0.77321   0.79375   0.75000   0.00000  Uiso   1.00
O1229  O     0.83333   0.87293   0.68573   0.00000  Uiso   1.00
O1230  O     0.83334   0.79374   0.81427   0.00000  Uiso   1.00
O1231  O     0.83334   0.87293   0.81427   0.00000  Uiso   1.00
O1232  O     0.83333   0.79374   0.68573   0.00000  Uiso   1.00
F1233  F     0.78784   0.71458   0.68939   0.00000  Uiso   1.00
F1234  F     0.87690   0.95211   0.81216   0.00000  Uiso   1.00
F1235  F     0.87879   0.71476   0.81066   0.00000  Uiso   1.00
F1236  F     0.78996   0.95197   0.68781   0.00000  Uiso   1.00
F1237  F     0.85445   0.91622   0.53034   0.00000  Uiso   1.00
F1238  F     0.80980   0.75123   0.96981   0.00000  Uiso   1.00
F1239  F     0.81125   0.91636   0.96952   0.00000  Uiso   1.00
F1240  F     0.85424   0.75091   0.52984   0.00000  Uiso   1.00
O1241  O     0.70833   0.74939   0.76565   0.00000  Uiso   1.00
C1242  C     0.71091   0.74293   0.81153   0.00000  Uiso   1.00
H1243  H     0.72761   0.77233   0.82783   0.00000  Uiso   1.00
H1244  H     0.72830   0.71033   0.81825   0.00000  Uiso   1.00
H1245  H     0.68013   0.73869   0.82603   0.00000  Uiso   1.00
O1246  O     0.95894   0.91823   0.74218   0.00000  Uiso   1.00
C1247  C     0.96581   0.94334   0.78159   0.00000  Uiso   1.00
H1248  H     0.95587   0.92288   0.81072   0.00000  Uiso   1.00
H1249  H     0.94763   0.97601   0.78048   0.00000  Uiso   1.00
H1250  H     0.99832   0.95387   0.78555   0.00000  Uiso   1.00
O1251  O     0.95867   0.74813   0.75807   0.00000  Uiso   1.00
C1252  C     0.95801   0.72573   0.71669   0.00000  Uiso   1.00
H1253  H     0.98886   0.71268   0.70808   0.00000  Uiso   1.00
H1254  H     0.93728   0.69505   0.71828   0.00000  Uiso   1.00
H1255  H     0.94594   0.74911   0.69024   0.00000  Uiso   1.00
O1256  O     0.70775   0.91487   0.72657   0.00000  Uiso   1.00
C1257  C     0.70265   0.91990   0.68068   0.00000  Uiso   1.00
H1258  H     0.72029   0.89261   0.66302   0.00000  Uiso   1.00
H1259  H     0.71446   0.95473   0.67088   0.00000  Uiso   1.00
H1260  H     0.67001   0.91876   0.67011   0.00000  Uiso   1.00
loop_
_geom_bond_atom_site_label_1
_geom_bond_atom_site_label_2
_geom_bond_distance
_geom_bond_site_symmetry_2
_ccdc_geom_bond_type
C1     O38     1.291   .     A
C1     C26     1.460   .     S
C1     O35     1.294   .     A
C2     C25     1.464   .     S
C2     O37     1.294   .     A
C2     O36     1.293   .     A
C3     O42     1.293   .     A
C3     O39     1.293   .     A
C3     C21     1.461   .     S
C4     C22     1.461   .     S
C4     O41     1.293   .     A
C4     O40     1.293   .     A
C5     N34     1.367   .     A
C5     F43     1.355   .     S
C5     C428    1.414   1_545 S
C6     N33     1.367   .     A
C6     F44     1.354   .     S
C6     C217    1.414   .     S
C7     F45     1.355   .     S
C7     N34     1.367   .     A
C7     C426    1.414   1_545 S
C8     N33     1.367   .     A
C8     F46     1.352   .     S
C8     C215    1.414   .     S
C9     O51     1.384   .     S
C9     C26     1.411   .     A
C9     C151    1.394   1_455 S
C10    C25     1.411   .     A
C10    O56     1.385   .     S
C10    C82     1.395   .     S
C11    O61     1.384   .     S
C11    C25     1.414   .     A
C11    C79     1.394   .     S
C12    O66     1.384   .     S
C12    C26     1.408   .     A
C12    C150    1.395   1_455 S
C13    C17     1.389   .     A
C13    C23     1.421   .     A
C13    F47     1.354   .     S
C14    C18     1.389   .     A
C14    C24     1.421   .     A
C14    F48     1.354   .     S
C15    C19     1.389   .     A
C15    C24     1.421   .     A
C15    F49     1.354   .     S
C16    C20     1.389   .     A
C16    C23     1.421   .     A
C16    F50     1.354   .     S
C17    H29     1.084   .     S
C17    C21     1.395   .     A
C18    H30     1.084   .     S
C18    C22     1.395   .     A
C19    H31     1.084   .     S
C19    C22     1.395   .     A
C20    C21     1.395   .     A
C20    H32     1.084   .     S
C23    C654    1.514   1_554 S
C24    C653    1.514   .     S
Cu27   N33     2.011   .     S
Cu27   O37     1.981   .     S
Cu27   O39     1.967   .     S
Cu27   Cu28    2.676   .     S
Cu27   O35     1.981   .     S
Cu27   O41     1.967   .     S
Cu28   O38     1.981   .     S
Cu28   O42     1.967   .     S
Cu28   O40     1.967   .     S
Cu28   N34     2.011   .     S
Cu28   O36     1.981   .     S
O51    C52     1.410   .     S
C52    H55     1.113   .     S
C52    H53     1.114   .     S
C52    H54     1.109   .     S
O56    C57     1.412   .     S
C57    H58     1.114   .     S
C57    H59     1.107   .     S
C57    H60     1.111   .     S
O61    C62     1.412   .     S
C62    H64     1.109   .     S
C62    H63     1.112   .     S
C62    H65     1.115   .     S
O66    C67     1.412   .     S
C67    H70     1.113   .     S
C67    H68     1.113   .     S
C67    H69     1.108   .     S
C71    O108    1.291   .     A
C71    C96     1.460   .     S
C71    O105    1.294   .     A
C72    C95     1.464   .     S
C72    O107    1.294   .     A
C72    O106    1.293   .     A
C73    O112    1.293   .     A
C73    O109    1.293   .     A
C73    C91     1.461   .     S
C74    C92     1.461   .     S
C74    O111    1.293   .     A
C74    O110    1.293   .     A
C75    N104    1.367   .     A
C75    F113    1.355   .     S
C75    C498    1.414   1_545 S
C76    N103    1.367   .     A
C76    F114    1.354   .     S
C76    C287    1.414   .     S
C77    F115    1.355   .     S
C77    N104    1.367   .     A
C77    C496    1.414   1_545 S
C78    N103    1.367   .     A
C78    F116    1.352   .     S
C78    C285    1.414   .     S
C79    O121    1.384   .     S
C79    C96     1.411   .     A
C80    C95     1.411   .     A
C80    O126    1.385   .     S
C80    C152    1.395   .     S
C81    O131    1.384   .     S
C81    C95     1.414   .     A
C81    C149    1.394   .     S
C82    O136    1.384   .     S
C82    C96     1.408   .     A
C83    C87     1.389   .     A
C83    C93     1.421   .     A
C83    F117    1.354   .     S
C84    C88     1.389   .     A
C84    C94     1.421   .     A
C84    F118    1.354   .     S
C85    C89     1.389   .     A
C85    C94     1.421   .     A
C85    F119    1.354   .     S
C86    C90     1.389   .     A
C86    C93     1.421   .     A
C86    F120    1.354   .     S
C87    H99     1.084   .     S
C87    C91     1.395   .     A
C88    H100    1.084   .     S
C88    C92     1.395   .     A
C89    H101    1.084   .     S
C89    C92     1.395   .     A
C90    C91     1.395   .     A
C90    H102    1.084   .     S
C93    C724    1.514   1_554 S
C94    C723    1.514   .     S
Cu97   N103    2.011   .     S
Cu97   O107    1.981   .     S
Cu97   O109    1.967   .     S
Cu97   Cu98    2.676   .     S
Cu97   O105    1.981   .     S
Cu97   O111    1.967   .     S
Cu98   O108    1.981   .     S
Cu98   O112    1.967   .     S
Cu98   O110    1.967   .     S
Cu98   N104    2.011   .     S
Cu98   O106    1.981   .     S
O121   C122    1.410   .     S
C122   H125    1.113   .     S
C122   H123    1.114   .     S
C122   H124    1.109   .     S
O126   C127    1.412   .     S
C127   H128    1.114   .     S
C127   H129    1.107   .     S
C127   H130    1.111   .     S
O131   C132    1.412   .     S
C132   H134    1.109   .     S
C132   H133    1.112   .     S
C132   H135    1.115   .     S
O136   C137    1.412   .     S
C137   H140    1.113   .     S
C137   H138    1.113   .     S
C137   H139    1.108   .     S
C141   O178    1.291   .     A
C141   C166    1.460   .     S
C141   O175    1.294   .     A
C142   C165    1.464   .     S
C142   O177    1.294   .     A
C142   O176    1.293   .     A
C143   O182    1.293   .     A
C143   O179    1.293   .     A
C143   C161    1.461   .     S
C144   C162    1.461   .     S
C144   O181    1.293   .     A
C144   O180    1.293   .     A
C145   N174    1.367   .     A
C145   F183    1.355   .     S
C145   C568    1.414   1_545 S
C146   N173    1.367   .     A
C146   F184    1.354   .     S
C146   C357    1.414   .     S
C147   F185    1.355   .     S
C147   N174    1.367   .     A
C147   C566    1.414   1_545 S
C148   N173    1.367   .     A
C148   F186    1.352   .     S
C148   C355    1.414   .     S
C149   O191    1.384   .     S
C149   C166    1.411   .     A
C150   C165    1.411   .     A
C150   O196    1.385   .     S
C150   C12     1.395   1_655 S
C151   O201    1.384   .     S
C151   C165    1.414   .     A
C151   C9      1.394   1_655 S
C152   O206    1.384   .     S
C152   C166    1.408   .     A
C153   C157    1.389   .     A
C153   C163    1.421   .     A
C153   F187    1.354   .     S
C154   C158    1.389   .     A
C154   C164    1.421   .     A
C154   F188    1.354   .     S
C155   C159    1.389   .     A
C155   C164    1.421   .     A
C155   F189    1.354   .     S
C156   C160    1.389   .     A
C156   C163    1.421   .     A
C156   F190    1.354   .     S
C157   H169    1.084   .     S
C157   C161    1.395   .     A
C158   H170    1.084   .     S
C158   C162    1.395   .     A
C159   H171    1.084   .     S
C159   C162    1.395   .     A
C160   C161    1.395   .     A
C160   H172    1.084   .     S
C163   C794    1.514   1_554 S
C164   C793    1.514   .     S
Cu167  N173    2.011   .     S
Cu167  O177    1.981   .     S
Cu167  O179    1.967   .     S
Cu167  Cu168   2.676   .     S
Cu167  O175    1.981   .     S
Cu167  O181    1.967   .     S
Cu168  O178    1.981   .     S
Cu168  O182    1.967   .     S
Cu168  O180    1.967   .     S
Cu168  N174    2.011   .     S
Cu168  O176    1.981   .     S
O191   C192    1.410   .     S
C192   H195    1.113   .     S
C192   H193    1.114   .     S
C192   H194    1.109   .     S
O196   C197    1.412   .     S
C197   H198    1.114   .     S
C197   H199    1.107   .     S
C197   H200    1.111   .     S
O201   C202    1.412   .     S
C202   H204    1.109   .     S
C202   H203    1.112   .     S
C202   H205    1.115   .     S
O206   C207    1.412   .     S
C207   H210    1.113   .     S
C207   H208    1.113   .     S
C207   H209    1.108   .     S
C211   O248    1.291   .     A
C211   C236    1.460   .     S
C211   O245    1.294   .     A
C212   C235    1.464   .     S
C212   O247    1.294   .     A
C212   O246    1.293   .     A
C213   O252    1.293   .     A
C213   O249    1.293   .     A
C213   C231    1.461   .     S
C214   C232    1.461   .     S
C214   O251    1.293   .     A
C214   O250    1.293   .     A
C215   N244    1.367   .     A
C215   F253    1.355   .     S
C216   N243    1.367   .     A
C216   F254    1.354   .     S
C216   C427    1.414   .     S
C217   F255    1.355   .     S
C217   N244    1.367   .     A
C218   N243    1.367   .     A
C218   F256    1.352   .     S
C218   C425    1.414   .     S
C219   O261    1.384   .     S
C219   C236    1.411   .     A
C219   C361    1.394   1_455 S
C220   C235    1.411   .     A
C220   O266    1.385   .     S
C220   C292    1.395   .     S
C221   O271    1.384   .     S
C221   C235    1.414   .     A
C221   C289    1.394   .     S
C222   O276    1.384   .     S
C222   C236    1.408   .     A
C222   C360    1.395   1_455 S
C223   C227    1.389   .     A
C223   C233    1.421   .     A
C223   F257    1.354   .     S
C224   C228    1.389   .     A
C224   C234    1.421   .     A
C224   F258    1.354   .     S
C225   C229    1.389   .     A
C225   C234    1.421   .     A
C225   F259    1.354   .     S
C226   C230    1.389   .     A
C226   C233    1.421   .     A
C226   F260    1.354   .     S
C227   H239    1.084   .     S
C227   C231    1.395   .     A
C228   H240    1.084   .     S
C228   C232    1.395   .     A
C229   H241    1.084   .     S
C229   C232    1.395   .     A
C230   C231    1.395   .     A
C230   H242    1.084   .     S
C233   C864    1.514   1_554 S
C234   C863    1.514   .     S
Cu237  N243    2.011   .     S
Cu237  O247    1.981   .     S
Cu237  O249    1.967   .     S
Cu237  Cu238   2.676   .     S
Cu237  O245    1.981   .     S
Cu237  O251    1.967   .     S
Cu238  O248    1.981   .     S
Cu238  O252    1.967   .     S
Cu238  O250    1.967   .     S
Cu238  N244    2.011   .     S
Cu238  O246    1.981   .     S
O261   C262    1.410   .     S
C262   H265    1.113   .     S
C262   H263    1.114   .     S
C262   H264    1.109   .     S
O266   C267    1.412   .     S
C267   H268    1.114   .     S
C267   H269    1.107   .     S
C267   H270    1.111   .     S
O271   C272    1.412   .     S
C272   H274    1.109   .     S
C272   H273    1.112   .     S
C272   H275    1.115   .     S
O276   C277    1.412   .     S
C277   H280    1.113   .     S
C277   H278    1.113   .     S
C277   H279    1.108   .     S
C281   O318    1.291   .     A
C281   C306    1.460   .     S
C281   O315    1.294   .     A
C282   C305    1.464   .     S
C282   O317    1.294   .     A
C282   O316    1.293   .     A
C283   O322    1.293   .     A
C283   O319    1.293   .     A
C283   C301    1.461   .     S
C284   C302    1.461   .     S
C284   O321    1.293   .     A
C284   O320    1.293   .     A
C285   N314    1.367   .     A
C285   F323    1.355   .     S
C286   N313    1.367   .     A
C286   F324    1.354   .     S
C286   C497    1.414   .     S
C287   F325    1.355   .     S
C287   N314    1.367   .     A
C288   N313    1.367   .     A
C288   F326    1.352   .     S
C288   C495    1.414   .     S
C289   O331    1.384   .     S
C289   C306    1.411   .     A
C290   C305    1.411   .     A
C290   O336    1.385   .     S
C290   C362    1.395   .     S
C291   O341    1.384   .     S
C291   C305    1.414   .     A
C291   C359    1.394   .     S
C292   O346    1.384   .     S
C292   C306    1.408   .     A
C293   C297    1.389   .     A
C293   C303    1.421   .     A
C293   F327    1.354   .     S
C294   C298    1.389   .     A
C294   C304    1.421   .     A
C294   F328    1.354   .     S
C295   C299    1.389   .     A
C295   C304    1.421   .     A
C295   F329    1.354   .     S
C296   C300    1.389   .     A
C296   C303    1.421   .     A
C296   F330    1.354   .     S
C297   H309    1.084   .     S
C297   C301    1.395   .     A
C298   H310    1.084   .     S
C298   C302    1.395   .     A
C299   H311    1.084   .     S
C299   C302    1.395   .     A
C300   C301    1.395   .     A
C300   H312    1.084   .     S
C303   C934    1.514   1_554 S
C304   C933    1.514   .     S
Cu307  N313    2.011   .     S
Cu307  O317    1.981   .     S
Cu307  O319    1.967   .     S
Cu307  Cu308   2.676   .     S
Cu307  O315    1.981   .     S
Cu307  O321    1.967   .     S
Cu308  O318    1.981   .     S
Cu308  O322    1.967   .     S
Cu308  O320    1.967   .     S
Cu308  N314    2.011   .     S
Cu308  O316    1.981   .     S
O331   C332    1.410   .     S
C332   H335    1.113   .     S
C332   H333    1.114   .     S
C332   H334    1.109   .     S
O336   C337    1.412   .     S
C337   H338    1.114   .     S
C337   H339    1.107   .     S
C337   H340    1.111   .     S
O341   C342    1.412   .     S
C342   H344    1.109   .     S
C342   H343    1.112   .     S
C342   H345    1.115   .     S
O346   C347    1.412   .     S
C347   H350    1.113   .     S
C347   H348    1.113   .     S
C347   H349    1.108   .     S
C351   O388    1.291   .     A
C351   C376    1.460   .     S
C351   O385    1.294   .     A
C352   C375    1.464   .     S
C352   O387    1.294   .     A
C352   O386    1.293   .     A
C353   O392    1.293   .     A
C353   O389    1.293   .     A
C353   C371    1.461   .     S
C354   C372    1.461   .     S
C354   O391    1.293   .     A
C354   O390    1.293   .     A
C355   N384    1.367   .     A
C355   F393    1.355   .     S
C356   N383    1.367   .     A
C356   F394    1.354   .     S
C356   C567    1.414   .     S
C357   F395    1.355   .     S
C357   N384    1.367   .     A
C358   N383    1.367   .     A
C358   F396    1.352   .     S
C358   C565    1.414   .     S
C359   O401    1.384   .     S
C359   C376    1.411   .     A
C360   C375    1.411   .     A
C360   O406    1.385   .     S
C360   C222    1.395   1_655 S
C361   O411    1.384   .     S
C361   C375    1.414   .     A
C361   C219    1.394   1_655 S
C362   O416    1.384   .     S
C362   C376    1.408   .     A
C363   C367    1.389   .     A
C363   C373    1.421   .     A
C363   F397    1.354   .     S
C364   C368    1.389   .     A
C364   C374    1.421   .     A
C364   F398    1.354   .     S
C365   C369    1.389   .     A
C365   C374    1.421   .     A
C365   F399    1.354   .     S
C366   C370    1.389   .     A
C366   C373    1.421   .     A
C366   F400    1.354   .     S
C367   H379    1.084   .     S
C367   C371    1.395   .     A
C368   H380    1.084   .     S
C368   C372    1.395   .     A
C369   H381    1.084   .     S
C369   C372    1.395   .     A
C370   C371    1.395   .     A
C370   H382    1.084   .     S
C373   C1004   1.514   1_554 S
C374   C1003   1.514   .     S
Cu377  N383    2.011   .     S
Cu377  O387    1.981   .     S
Cu377  O389    1.967   .     S
Cu377  Cu378   2.676   .     S
Cu377  O385    1.981   .     S
Cu377  O391    1.967   .     S
Cu378  O388    1.981   .     S
Cu378  O392    1.967   .     S
Cu378  O390    1.967   .     S
Cu378  N384    2.011   .     S
Cu378  O386    1.981   .     S
O401   C402    1.410   .     S
C402   H405    1.113   .     S
C402   H403    1.114   .     S
C402   H404    1.109   .     S
O406   C407    1.412   .     S
C407   H408    1.114   .     S
C407   H409    1.107   .     S
C407   H410    1.111   .     S
O411   C412    1.412   .     S
C412   H414    1.109   .     S
C412   H413    1.112   .     S
C412   H415    1.115   .     S
O416   C417    1.412   .     S
C417   H420    1.113   .     S
C417   H418    1.113   .     S
C417   H419    1.108   .     S
C421   O458    1.291   .     A
C421   C446    1.460   .     S
C421   O455    1.294   .     A
C422   C445    1.464   .     S
C422   O457    1.294   .     A
C422   O456    1.293   .     A
C423   O462    1.293   .     A
C423   O459    1.293   .     A
C423   C441    1.461   .     S
C424   C442    1.461   .     S
C424   O461    1.293   .     A
C424   O460    1.293   .     A
C425   N454    1.367   .     A
C425   F463    1.355   .     S
C426   N453    1.367   .     A
C426   F464    1.354   .     S
C426   C7      1.414   1_565 S
C427   F465    1.355   .     S
C427   N454    1.367   .     A
C428   N453    1.367   .     A
C428   F466    1.352   .     S
C428   C5      1.414   1_565 S
C429   O471    1.384   .     S
C429   C446    1.411   .     A
C429   C571    1.394   1_455 S
C430   C445    1.411   .     A
C430   O476    1.385   .     S
C430   C502    1.395   .     S
C431   O481    1.384   .     S
C431   C445    1.414   .     A
C431   C499    1.394   .     S
C432   O486    1.384   .     S
C432   C446    1.408   .     A
C432   C570    1.395   1_455 S
C433   C437    1.389   .     A
C433   C443    1.421   .     A
C433   F467    1.354   .     S
C434   C438    1.389   .     A
C434   C444    1.421   .     A
C434   F468    1.354   .     S
C435   C439    1.389   .     A
C435   C444    1.421   .     A
C435   F469    1.354   .     S
C436   C440    1.389   .     A
C436   C443    1.421   .     A
C436   F470    1.354   .     S
C437   H449    1.084   .     S
C437   C441    1.395   .     A
C438   H450    1.084   .     S
C438   C442    1.395   .     A
C439   H451    1.084   .     S
C439   C442    1.395   .     A
C440   C441    1.395   .     A
C440   H452    1.084   .     S
C443   C1074   1.514   1_554 S
C444   C1073   1.514   .     S
Cu447  N453    2.011   .     S
Cu447  O457    1.981   .     S
Cu447  O459    1.967   .     S
Cu447  Cu448   2.676   .     S
Cu447  O455    1.981   .     S
Cu447  O461    1.967   .     S
Cu448  O458    1.981   .     S
Cu448  O462    1.967   .     S
Cu448  O460    1.967   .     S
Cu448  N454    2.011   .     S
Cu448  O456    1.981   .     S
O471   C472    1.410   .     S
C472   H475    1.113   .     S
C472   H473    1.114   .     S
C472   H474    1.109   .     S
O476   C477    1.412   .     S
C477   H478    1.114   .     S
C477   H479    1.107   .     S
C477   H480    1.111   .     S
O481   C482    1.412   .     S
C482   H484    1.109   .     S
C482   H483    1.112   .     S
C482   H485    1.115   .     S
O486   C487    1.412   .     S
C487   H490    1.113   .     S
C487   H488    1.113   .     S
C487   H489    1.108   .     S
C491   O528    1.291   .     A
C491   C516    1.460   .     S
C491   O525    1.294   .     A
C492   C515    1.464   .     S
C492   O527    1.294   .     A
C492   O526    1.293   .     A
C493   O532    1.293   .     A
C493   O529    1.293   .     A
C493   C511    1.461   .     S
C494   C512    1.461   .     S
C494   O531    1.293   .     A
C494   O530    1.293   .     A
C495   N524    1.367   .     A
C495   F533    1.355   .     S
C496   N523    1.367   .     A
C496   F534    1.354   .     S
C496   C77     1.414   1_565 S
C497   F535    1.355   .     S
C497   N524    1.367   .     A
C498   N523    1.367   .     A
C498   F536    1.352   .     S
C498   C75     1.414   1_565 S
C499   O541    1.384   .     S
C499   C516    1.411   .     A
C500   C515    1.411   .     A
C500   O546    1.385   .     S
C500   C572    1.395   .     S
C501   O551    1.384   .     S
C501   C515    1.414   .     A
C501   C569    1.394   .     S
C502   O556    1.384   .     S
C502   C516    1.408   .     A
C503   C507    1.389   .     A
C503   C513    1.421   .     A
C503   F537    1.354   .     S
C504   C508    1.389   .     A
C504   C514    1.421   .     A
C504   F538    1.354   .     S
C505   C509    1.389   .     A
C505   C514    1.421   .     A
C505   F539    1.354   .     S
C506   C510    1.389   .     A
C506   C513    1.421   .     A
C506   F540    1.354   .     S
C507   H519    1.084   .     S
C507   C511    1.395   .     A
C508   H520    1.084   .     S
C508   C512    1.395   .     A
C509   H521    1.084   .     S
C509   C512    1.395   .     A
C510   C511    1.395   .     A
C510   H522    1.084   .     S
C513   C1144   1.514   1_554 S
C514   C1143   1.514   .     S
Cu517  N523    2.011   .     S
Cu517  O527    1.981   .     S
Cu517  O529    1.967   .     S
Cu517  Cu518   2.676   .     S
Cu517  O525    1.981   .     S
Cu517  O531    1.967   .     S
Cu518  O528    1.981   .     S
Cu518  O532    1.967   .     S
Cu518  O530    1.967   .     S
Cu518  N524    2.011   .     S
Cu518  O526    1.981   .     S
O541   C542    1.410   .     S
C542   H545    1.113   .     S
C542   H543    1.114   .     S
C542   H544    1.109   .     S
O546   C547    1.412   .     S
C547   H548    1.114   .     S
C547   H549    1.107   .     S
C547   H550    1.111   .     S
O551   C552    1.412   .     S
C552   H554    1.109   .     S
C552   H553    1.112   .     S
C552   H555    1.115   .     S
O556   C557    1.412   .     S
C557   H560    1.113   .     S
C557   H558    1.113   .     S
C557   H559    1.108   .     S
C561   O598    1.291   .     A
C561   C586    1.460   .     S
C561   O595    1.294   .     A
C562   C585    1.464   .     S
C562   O597    1.294   .     A
C562   O596    1.293   .     A
C563   O602    1.293   .     A
C563   O599    1.293   .     A
C563   C581    1.461   .     S
C564   C582    1.461   .     S
C564   O601    1.293   .     A
C564   O600    1.293   .     A
C565   N594    1.367   .     A
C565   F603    1.355   .     S
C566   N593    1.367   .     A
C566   F604    1.354   .     S
C566   C147    1.414   1_565 S
C567   F605    1.355   .     S
C567   N594    1.367   .     A
C568   N593    1.367   .     A
C568   F606    1.352   .     S
C568   C145    1.414   1_565 S
C569   O611    1.384   .     S
C569   C586    1.411   .     A
C570   C585    1.411   .     A
C570   O616    1.385   .     S
C570   C432    1.395   1_655 S
C571   O621    1.384   .     S
C571   C585    1.414   .     A
C571   C429    1.394   1_655 S
C572   O626    1.384   .     S
C572   C586    1.408   .     A
C573   C577    1.389   .     A
C573   C583    1.421   .     A
C573   F607    1.354   .     S
C574   C578    1.389   .     A
C574   C584    1.421   .     A
C574   F608    1.354   .     S
C575   C579    1.389   .     A
C575   C584    1.421   .     A
C575   F609    1.354   .     S
C576   C580    1.389   .     A
C576   C583    1.421   .     A
C576   F610    1.354   .     S
C577   H589    1.084   .     S
C577   C581    1.395   .     A
C578   H590    1.084   .     S
C578   C582    1.395   .     A
C579   H591    1.084   .     S
C579   C582    1.395   .     A
C580   C581    1.395   .     A
C580   H592    1.084   .     S
C583   C1214   1.514   1_554 S
C584   C1213   1.514   .     S
Cu587  N593    2.011   .     S
Cu587  O597    1.981   .     S
Cu587  O599    1.967   .     S
Cu587  Cu588   2.676   .     S
Cu587  O595    1.981   .     S
Cu587  O601    1.967   .     S
Cu588  O598    1.981   .     S
Cu588  O602    1.967   .     S
Cu588  O600    1.967   .     S
Cu588  N594    2.011   .     S
Cu588  O596    1.981   .     S
O611   C612    1.410   .     S
C612   H615    1.113   .     S
C612   H613    1.114   .     S
C612   H614    1.109   .     S
O616   C617    1.412   .     S
C617   H618    1.114   .     S
C617   H619    1.107   .     S
C617   H620    1.111   .     S
O621   C622    1.412   .     S
C622   H624    1.109   .     S
C622   H623    1.112   .     S
C622   H625    1.115   .     S
O626   C627    1.412   .     S
C627   H630    1.113   .     S
C627   H628    1.113   .     S
C627   H629    1.108   .     S
C631   O668    1.291   .     A
C631   C656    1.460   .     S
C631   O665    1.294   .     A
C632   C655    1.464   .     S
C632   O667    1.294   .     A
C632   O666    1.293   .     A
C633   O672    1.293   .     A
C633   O669    1.293   .     A
C633   C651    1.461   .     S
C634   C652    1.461   .     S
C634   O671    1.293   .     A
C634   O670    1.293   .     A
C635   N664    1.367   .     A
C635   F673    1.355   .     S
C635   C1058   1.414   1_545 S
C636   N663    1.367   .     A
C636   F674    1.354   .     S
C636   C847    1.414   .     S
C637   F675    1.355   .     S
C637   N664    1.367   .     A
C637   C1056   1.414   1_545 S
C638   N663    1.367   .     A
C638   F676    1.352   .     S
C638   C845    1.414   .     S
C639   O681    1.384   .     S
C639   C656    1.411   .     A
C639   C781    1.394   1_455 S
C640   C655    1.411   .     A
C640   O686    1.385   .     S
C640   C712    1.395   .     S
C641   O691    1.384   .     S
C641   C655    1.414   .     A
C641   C709    1.394   .     S
C642   O696    1.384   .     S
C642   C656    1.408   .     A
C642   C780    1.395   1_455 S
C643   C647    1.389   .     A
C643   C653    1.421   .     A
C643   F677    1.354   .     S
C644   C648    1.389   .     A
C644   C654    1.421   .     A
C644   F678    1.354   .     S
C645   C649    1.389   .     A
C645   C654    1.421   .     A
C645   F679    1.354   .     S
C646   C650    1.389   .     A
C646   C653    1.421   .     A
C646   F680    1.354   .     S
C647   H659    1.084   .     S
C647   C651    1.395   .     A
C648   H660    1.084   .     S
C648   C652    1.395   .     A
C649   H661    1.084   .     S
C649   C652    1.395   .     A
C650   C651    1.395   .     A
C650   H662    1.084   .     S
C654   C23     1.514   1_556 S
Cu657  N663    2.011   .     S
Cu657  O667    1.981   .     S
Cu657  O669    1.967   .     S
Cu657  Cu658   2.676   .     S
Cu657  O665    1.981   .     S
Cu657  O671    1.967   .     S
Cu658  O668    1.981   .     S
Cu658  O672    1.967   .     S
Cu658  O670    1.967   .     S
Cu658  N664    2.011   .     S
Cu658  O666    1.981   .     S
O681   C682    1.410   .     S
C682   H685    1.113   .     S
C682   H683    1.114   .     S
C682   H684    1.109   .     S
O686   C687    1.412   .     S
C687   H688    1.114   .     S
C687   H689    1.107   .     S
C687   H690    1.111   .     S
O691   C692    1.412   .     S
C692   H694    1.109   .     S
C692   H693    1.112   .     S
C692   H695    1.115   .     S
O696   C697    1.412   .     S
C697   H700    1.113   .     S
C697   H698    1.113   .     S
C697   H699    1.108   .     S
C701   O738    1.291   .     A
C701   C726    1.460   .     S
C701   O735    1.294   .     A
C702   C725    1.464   .     S
C702   O737    1.294   .     A
C702   O736    1.293   .     A
C703   O742    1.293   .     A
C703   O739    1.293   .     A
C703   C721    1.461   .     S
C704   C722    1.461   .     S
C704   O741    1.293   .     A
C704   O740    1.293   .     A
C705   N734    1.367   .     A
C705   F743    1.355   .     S
C705   C1128   1.414   1_545 S
C706   N733    1.367   .     A
C706   F744    1.354   .     S
C706   C917    1.414   .     S
C707   F745    1.355   .     S
C707   N734    1.367   .     A
C707   C1126   1.414   1_545 S
C708   N733    1.367   .     A
C708   F746    1.352   .     S
C708   C915    1.414   .     S
C709   O751    1.384   .     S
C709   C726    1.411   .     A
C710   C725    1.411   .     A
C710   O756    1.385   .     S
C710   C782    1.395   .     S
C711   O761    1.384   .     S
C711   C725    1.414   .     A
C711   C779    1.394   .     S
C712   O766    1.384   .     S
C712   C726    1.408   .     A
C713   C717    1.389   .     A
C713   C723    1.421   .     A
C713   F747    1.354   .     S
C714   C718    1.389   .     A
C714   C724    1.421   .     A
C714   F748    1.354   .     S
C715   C719    1.389   .     A
C715   C724    1.421   .     A
C715   F749    1.354   .     S
C716   C720    1.389   .     A
C716   C723    1.421   .     A
C716   F750    1.354   .     S
C717   H729    1.084   .     S
C717   C721    1.395   .     A
C718   H730    1.084   .     S
C718   C722    1.395   .     A
C719   H731    1.084   .     S
C719   C722    1.395   .     A
C720   C721    1.395   .     A
C720   H732    1.084   .     S
C724   C93     1.514   1_556 S
Cu727  N733    2.011   .     S
Cu727  O737    1.981   .     S
Cu727  O739    1.967   .     S
Cu727  Cu728   2.676   .     S
Cu727  O735    1.981   .     S
Cu727  O741    1.967   .     S
Cu728  O738    1.981   .     S
Cu728  O742    1.967   .     S
Cu728  O740    1.967   .     S
Cu728  N734    2.011   .     S
Cu728  O736    1.981   .     S
O751   C752    1.410   .     S
C752   H755    1.113   .     S
C752   H753    1.114   .     S
C752   H754    1.109   .     S
O756   C757    1.412   .     S
C757   H758    1.114   .     S
C757   H759    1.107   .     S
C757   H760    1.111   .     S
O761   C762    1.412   .     S
C762   H764    1.109   .     S
C762   H763    1.112   .     S
C762   H765    1.115   .     S
O766   C767    1.412   .     S
C767   H770    1.113   .     S
C767   H768    1.113   .     S
C767   H769    1.108   .     S
C771   O808    1.291   .     A
C771   C796    1.460   .     S
C771   O805    1.294   .     A
C772   C795    1.464   .     S
C772   O807    1.294   .     A
C772   O806    1.293   .     A
C773   O812    1.293   .     A
C773   O809    1.293   .     A
C773   C791    1.461   .     S
C774   C792    1.461   .     S
C774   O811    1.293   .     A
C774   O810    1.293   .     A
C775   N804    1.367   .     A
C775   F813    1.355   .     S
C775   C1198   1.414   1_545 S
C776   N803    1.367   .     A
C776   F814    1.354   .     S
C776   C987    1.414   .     S
C777   F815    1.355   .     S
C777   N804    1.367   .     A
C777   C1196   1.414   1_545 S
C778   N803    1.367   .     A
C778   F816    1.352   .     S
C778   C985    1.414   .     S
C779   O821    1.384   .     S
C779   C796    1.411   .     A
C780   C795    1.411   .     A
C780   O826    1.385   .     S
C780   C642    1.395   1_655 S
C781   O831    1.384   .     S
C781   C795    1.414   .     A
C781   C639    1.394   1_655 S
C782   O836    1.384   .     S
C782   C796    1.408   .     A
C783   C787    1.389   .     A
C783   C793    1.421   .     A
C783   F817    1.354   .     S
C784   C788    1.389   .     A
C784   C794    1.421   .     A
C784   F818    1.354   .     S
C785   C789    1.389   .     A
C785   C794    1.421   .     A
C785   F819    1.354   .     S
C786   C790    1.389   .     A
C786   C793    1.421   .     A
C786   F820    1.354   .     S
C787   H799    1.084   .     S
C787   C791    1.395   .     A
C788   H800    1.084   .     S
C788   C792    1.395   .     A
C789   H801    1.084   .     S
C789   C792    1.395   .     A
C790   C791    1.395   .     A
C790   H802    1.084   .     S
C794   C163    1.514   1_556 S
Cu797  N803    2.011   .     S
Cu797  O807    1.981   .     S
Cu797  O809    1.967   .     S
Cu797  Cu798   2.676   .     S
Cu797  O805    1.981   .     S
Cu797  O811    1.967   .     S
Cu798  O808    1.981   .     S
Cu798  O812    1.967   .     S
Cu798  O810    1.967   .     S
Cu798  N804    2.011   .     S
Cu798  O806    1.981   .     S
O821   C822    1.410   .     S
C822   H825    1.113   .     S
C822   H823    1.114   .     S
C822   H824    1.109   .     S
O826   C827    1.412   .     S
C827   H828    1.114   .     S
C827   H829    1.107   .     S
C827   H830    1.111   .     S
O831   C832    1.412   .     S
C832   H834    1.109   .     S
C832   H833    1.112   .     S
C832   H835    1.115   .     S
O836   C837    1.412   .     S
C837   H840    1.113   .     S
C837   H838    1.113   .     S
C837   H839    1.108   .     S
C841   O878    1.291   .     A
C841   C866    1.460   .     S
C841   O875    1.294   .     A
C842   C865    1.464   .     S
C842   O877    1.294   .     A
C842   O876    1.293   .     A
C843   O882    1.293   .     A
C843   O879    1.293   .     A
C843   C861    1.461   .     S
C844   C862    1.461   .     S
C844   O881    1.293   .     A
C844   O880    1.293   .     A
C845   N874    1.367   .     A
C845   F883    1.355   .     S
C846   N873    1.367   .     A
C846   F884    1.354   .     S
C846   C1057   1.414   .     S
C847   F885    1.355   .     S
C847   N874    1.367   .     A
C848   N873    1.367   .     A
C848   F886    1.352   .     S
C848   C1055   1.414   .     S
C849   O891    1.384   .     S
C849   C866    1.411   .     A
C849   C991    1.394   1_455 S
C850   C865    1.411   .     A
C850   O896    1.385   .     S
C850   C922    1.395   .     S
C851   O901    1.384   .     S
C851   C865    1.414   .     A
C851   C919    1.394   .     S
C852   O906    1.384   .     S
C852   C866    1.408   .     A
C852   C990    1.395   1_455 S
C853   C857    1.389   .     A
C853   C863    1.421   .     A
C853   F887    1.354   .     S
C854   C858    1.389   .     A
C854   C864    1.421   .     A
C854   F888    1.354   .     S
C855   C859    1.389   .     A
C855   C864    1.421   .     A
C855   F889    1.354   .     S
C856   C860    1.389   .     A
C856   C863    1.421   .     A
C856   F890    1.354   .     S
C857   H869    1.084   .     S
C857   C861    1.395   .     A
C858   H870    1.084   .     S
C858   C862    1.395   .     A
C859   H871    1.084   .     S
C859   C862    1.395   .     A
C860   C861    1.395   .     A
C860   H872    1.084   .     S
C864   C233    1.514   1_556 S
Cu867  N873    2.011   .     S
Cu867  O877    1.981   .     S
Cu867  O879    1.967   .     S
Cu867  Cu868   2.676   .     S
Cu867  O875    1.981   .     S
Cu867  O881    1.967   .     S
Cu868  O878    1.981   .     S
Cu868  O882    1.967   .     S
Cu868  O880    1.967   .     S
Cu868  N874    2.011   .     S
Cu868  O876    1.981   .     S
O891   C892    1.410   .     S
C892   H895    1.113   .     S
C892   H893    1.114   .     S
C892   H894    1.109   .     S
O896   C897    1.412   .     S
C897   H898    1.114   .     S
C897   H899    1.107   .     S
C897   H900    1.111   .     S
O901   C902    1.412   .     S
C902   H904    1.109   .     S
C902   H903    1.112   .     S
C902   H905    1.115   .     S
O906   C907    1.412   .     S
C907   H910    1.113   .     S
C907   H908    1.113   .     S
C907   H909    1.108   .     S
C911   O948    1.291   .     A
C911   C936    1.460   .     S
C911   O945    1.294   .     A
C912   C935    1.464   .     S
C912   O947    1.294   .     A
C912   O946    1.293   .     A
C913   O952    1.293   .     A
C913   O949    1.293   .     A
C913   C931    1.461   .     S
C914   C932    1.461   .     S
C914   O951    1.293   .     A
C914   O950    1.293   .     A
C915   N944    1.367   .     A
C915   F953    1.355   .     S
C916   N943    1.367   .     A
C916   F954    1.354   .     S
C916   C1127   1.414   .     S
C917   F955    1.355   .     S
C917   N944    1.367   .     A
C918   N943    1.367   .     A
C918   F956    1.352   .     S
C918   C1125   1.414   .     S
C919   O961    1.384   .     S
C919   C936    1.411   .     A
C920   C935    1.411   .     A
C920   O966    1.385   .     S
C920   C992    1.395   .     S
C921   O971    1.384   .     S
C921   C935    1.414   .     A
C921   C989    1.394   .     S
C922   O976    1.384   .     S
C922   C936    1.408   .     A
C923   C927    1.389   .     A
C923   C933    1.421   .     A
C923   F957    1.354   .     S
C924   C928    1.389   .     A
C924   C934    1.421   .     A
C924   F958    1.354   .     S
C925   C929    1.389   .     A
C925   C934    1.421   .     A
C925   F959    1.354   .     S
C926   C930    1.389   .     A
C926   C933    1.421   .     A
C926   F960    1.354   .     S
C927   H939    1.084   .     S
C927   C931    1.395   .     A
C928   H940    1.084   .     S
C928   C932    1.395   .     A
C929   H941    1.084   .     S
C929   C932    1.395   .     A
C930   C931    1.395   .     A
C930   H942    1.084   .     S
C934   C303    1.514   1_556 S
Cu937  N943    2.011   .     S
Cu937  O947    1.981   .     S
Cu937  O949    1.967   .     S
Cu937  Cu938   2.676   .     S
Cu937  O945    1.981   .     S
Cu937  O951    1.967   .     S
Cu938  O948    1.981   .     S
Cu938  O952    1.967   .     S
Cu938  O950    1.967   .     S
Cu938  N944    2.011   .     S
Cu938  O946    1.981   .     S
O961   C962    1.410   .     S
C962   H965    1.113   .     S
C962   H963    1.114   .     S
C962   H964    1.109   .     S
O966   C967    1.412   .     S
C967   H968    1.114   .     S
C967   H969    1.107   .     S
C967   H970    1.111   .     S
O971   C972    1.412   .     S
C972   H974    1.109   .     S
C972   H973    1.112   .     S
C972   H975    1.115   .     S
O976   C977    1.412   .     S
C977   H980    1.113   .     S
C977   H978    1.113   .     S
C977   H979    1.108   .     S
C981   O1018   1.291   .     A
C981   C1006   1.460   .     S
C981   O1015   1.294   .     A
C982   C1005   1.464   .     S
C982   O1017   1.294   .     A
C982   O1016   1.293   .     A
C983   O1022   1.293   .     A
C983   O1019   1.293   .     A
C983   C1001   1.461   .     S
C984   C1002   1.461   .     S
C984   O1021   1.293   .     A
C984   O1020   1.293   .     A
C985   N1014   1.367   .     A
C985   F1023   1.355   .     S
C986   N1013   1.367   .     A
C986   F1024   1.354   .     S
C986   C1197   1.414   .     S
C987   F1025   1.355   .     S
C987   N1014   1.367   .     A
C988   N1013   1.367   .     A
C988   F1026   1.352   .     S
C988   C1195   1.414   .     S
C989   O1031   1.384   .     S
C989   C1006   1.411   .     A
C990   C1005   1.411   .     A
C990   O1036   1.385   .     S
C990   C852    1.395   1_655 S
C991   O1041   1.384   .     S
C991   C1005   1.414   .     A
C991   C849    1.394   1_655 S
C992   O1046   1.384   .     S
C992   C1006   1.408   .     A
C993   C997    1.389   .     A
C993   C1003   1.421   .     A
C993   F1027   1.354   .     S
C994   C998    1.389   .     A
C994   C1004   1.421   .     A
C994   F1028   1.354   .     S
C995   C999    1.389   .     A
C995   C1004   1.421   .     A
C995   F1029   1.354   .     S
C996   C1000   1.389   .     A
C996   C1003   1.421   .     A
C996   F1030   1.354   .     S
C997   H1009   1.084   .     S
C997   C1001   1.395   .     A
C998   H1010   1.084   .     S
C998   C1002   1.395   .     A
C999   H1011   1.084   .     S
C999   C1002   1.395   .     A
C1000  C1001   1.395   .     A
C1000  H1012   1.084   .     S
C1004  C373    1.514   1_556 S
Cu1007 N1013   2.011   .     S
Cu1007 O1017   1.981   .     S
Cu1007 O1019   1.967   .     S
Cu1007 Cu1008  2.676   .     S
Cu1007 O1015   1.981   .     S
Cu1007 O1021   1.967   .     S
Cu1008 O1018   1.981   .     S
Cu1008 O1022   1.967   .     S
Cu1008 O1020   1.967   .     S
Cu1008 N1014   2.011   .     S
Cu1008 O1016   1.981   .     S
O1031  C1032   1.410   .     S
C1032  H1035   1.113   .     S
C1032  H1033   1.114   .     S
C1032  H1034   1.109   .     S
O1036  C1037   1.412   .     S
C1037  H1038   1.114   .     S
C1037  H1039   1.107   .     S
C1037  H1040   1.111   .     S
O1041  C1042   1.412   .     S
C1042  H1044   1.109   .     S
C1042  H1043   1.112   .     S
C1042  H1045   1.115   .     S
O1046  C1047   1.412   .     S
C1047  H1050   1.113   .     S
C1047  H1048   1.113   .     S
C1047  H1049   1.108   .     S
C1051  O1088   1.291   .     A
C1051  C1076   1.460   .     S
C1051  O1085   1.294   .     A
C1052  C1075   1.464   .     S
C1052  O1087   1.294   .     A
C1052  O1086   1.293   .     A
C1053  O1092   1.293   .     A
C1053  O1089   1.293   .     A
C1053  C1071   1.461   .     S
C1054  C1072   1.461   .     S
C1054  O1091   1.293   .     A
C1054  O1090   1.293   .     A
C1055  N1084   1.367   .     A
C1055  F1093   1.355   .     S
C1056  N1083   1.367   .     A
C1056  F1094   1.354   .     S
C1056  C637    1.414   1_565 S
C1057  F1095   1.355   .     S
C1057  N1084   1.367   .     A
C1058  N1083   1.367   .     A
C1058  F1096   1.352   .     S
C1058  C635    1.414   1_565 S
C1059  O1101   1.384   .     S
C1059  C1076   1.411   .     A
C1059  C1201   1.394   1_455 S
C1060  C1075   1.411   .     A
C1060  O1106   1.385   .     S
C1060  C1132   1.395   .     S
C1061  O1111   1.384   .     S
C1061  C1075   1.414   .     A
C1061  C1129   1.394   .     S
C1062  O1116   1.384   .     S
C1062  C1076   1.408   .     A
C1062  C1200   1.395   1_455 S
C1063  C1067   1.389   .     A
C1063  C1073   1.421   .     A
C1063  F1097   1.354   .     S
C1064  C1068   1.389   .     A
C1064  C1074   1.421   .     A
C1064  F1098   1.354   .     S
C1065  C1069   1.389   .     A
C1065  C1074   1.421   .     A
C1065  F1099   1.354   .     S
C1066  C1070   1.389   .     A
C1066  C1073   1.421   .     A
C1066  F1100   1.354   .     S
C1067  H1079   1.084   .     S
C1067  C1071   1.395   .     A
C1068  H1080   1.084   .     S
C1068  C1072   1.395   .     A
C1069  H1081   1.084   .     S
C1069  C1072   1.395   .     A
C1070  C1071   1.395   .     A
C1070  H1082   1.084   .     S
C1074  C443    1.514   1_556 S
Cu1077 N1083   2.011   .     S
Cu1077 O1087   1.981   .     S
Cu1077 O1089   1.967   .     S
Cu1077 Cu1078  2.676   .     S
Cu1077 O1085   1.981   .     S
Cu1077 O1091   1.967   .     S
Cu1078 O1088   1.981   .     S
Cu1078 O1092   1.967   .     S
Cu1078 O1090   1.967   .     S
Cu1078 N1084   2.011   .     S
Cu1078 O1086   1.981   .     S
O1101  C1102   1.410   .     S
C1102  H1105   1.113   .     S
C1102  H1103   1.114   .     S
C1102  H1104   1.109   .     S
O1106  C1107   1.412   .     S
C1107  H1108   1.114   .     S
C1107  H1109   1.107   .     S
C1107  H1110   1.111   .     S
O1111  C1112   1.412   .     S
C1112  H1114   1.109   .     S
C1112  H1113   1.112   .     S
C1112  H1115   1.115   .     S
O1116  C1117   1.412   .     S
C1117  H1120   1.113   .     S
C1117  H1118   1.113   .     S
C1117  H1119   1.108   .     S
C1121  O1158   1.291   .     A
C1121  C1146   1.460   .     S
C1121  O1155   1.294   .     A
C1122  C1145   1.464   .     S
C1122  O1157   1.294   .     A
C1122  O1156   1.293   .     A
C1123  O1162   1.293   .     A
C1123  O1159   1.293   .     A
C1123  C1141   1.461   .     S
C1124  C1142   1.461   .     S
C1124  O1161   1.293   .     A
C1124  O1160   1.293   .     A
C1125  N1154   1.367   .     A
C1125  F1163   1.355   .     S
C1126  N1153   1.367   .     A
C1126  F1164   1.354   .     S
C1126  C707    1.414   1_565 S
C1127  F1165   1.355   .     S
C1127  N1154   1.367   .     A
C1128  N1153   1.367   .     A
C1128  F1166   1.352   .     S
C1128  C705    1.414   1_565 S
C1129  O1171   1.384   .     S
C1129  C1146   1.411   .     A
C1130  C1145   1.411   .     A
C1130  O1176   1.385   .     S
C1130  C1202   1.395   .     S
C1131  O1181   1.384   .     S
C1131  C1145   1.414   .     A
C1131  C1199   1.394   .     S
C1132  O1186   1.384   .     S
C1132  C1146   1.408   .     A
C1133  C1137   1.389   .     A
C1133  C1143   1.421   .     A
C1133  F1167   1.354   .     S
C1134  C1138   1.389   .     A
C1134  C1144   1.421   .     A
C1134  F1168   1.354   .     S
C1135  C1139   1.389   .     A
C1135  C1144   1.421   .     A
C1135  F1169   1.354   .     S
C1136  C1140   1.389   .     A
C1136  C1143   1.421   .     A
C1136  F1170   1.354   .     S
C1137  H1149   1.084   .     S
C1137  C1141   1.395   .     A
C1138  H1150   1.084   .     S
C1138  C1142   1.395   .     A
C1139  H1151   1.084   .     S
C1139  C1142   1.395   .     A
C1140  C1141   1.395   .     A
C1140  H1152   1.084   .     S
C1144  C513    1.514   1_556 S
Cu1147 N1153   2.011   .     S
Cu1147 O1157   1.981   .     S
Cu1147 O1159   1.967   .     S
Cu1147 Cu1148  2.676   .     S
Cu1147 O1155   1.981   .     S
Cu1147 O1161   1.967   .     S
Cu1148 O1158   1.981   .     S
Cu1148 O1162   1.967   .     S
Cu1148 O1160   1.967   .     S
Cu1148 N1154   2.011   .     S
Cu1148 O1156   1.981   .     S
O1171  C1172   1.410   .     S
C1172  H1175   1.113   .     S
C1172  H1173   1.114   .     S
C1172  H1174   1.109   .     S
O1176  C1177   1.412   .     S
C1177  H1178   1.114   .     S
C1177  H1179   1.107   .     S
C1177  H1180   1.111   .     S
O1181  C1182   1.412   .     S
C1182  H1184   1.109   .     S
C1182  H1183   1.112   .     S
C1182  H1185   1.115   .     S
O1186  C1187   1.412   .     S
C1187  H1190   1.113   .     S
C1187  H1188   1.113   .     S
C1187  H1189   1.108   .     S
C1191  O1228   1.291   .     A
C1191  C1216   1.460   .     S
C1191  O1225   1.294   .     A
C1192  C1215   1.464   .     S
C1192  O1227   1.294   .     A
C1192  O1226   1.293   .     A
C1193  O1232   1.293   .     A
C1193  O1229   1.293   .     A
C1193  C1211   1.461   .     S
C1194  C1212   1.461   .     S
C1194  O1231   1.293   .     A
C1194  O1230   1.293   .     A
C1195  N1224   1.367   .     A
C1195  F1233   1.355   .     S
C1196  N1223   1.367   .     A
C1196  F1234   1.354   .     S
C1196  C777    1.414   1_565 S
C1197  F1235   1.355   .     S
C1197  N1224   1.367   .     A
C1198  N1223   1.367   .     A
C1198  F1236   1.352   .     S
C1198  C775    1.414   1_565 S
C1199  O1241   1.384   .     S
C1199  C1216   1.411   .     A
C1200  C1215   1.411   .     A
C1200  O1246   1.385   .     S
C1200  C1062   1.395   1_655 S
C1201  O1251   1.384   .     S
C1201  C1215   1.414   .     A
C1201  C1059   1.394   1_655 S
C1202  O1256   1.384   .     S
C1202  C1216   1.408   .     A
C1203  C1207   1.389   .     A
C1203  C1213   1.421   .     A
C1203  F1237   1.354   .     S
C1204  C1208   1.389   .     A
C1204  C1214   1.421   .     A
C1204  F1238   1.354   .     S
C1205  C1209   1.389   .     A
C1205  C1214   1.421   .     A
C1205  F1239   1.354   .     S
C1206  C1210   1.389   .     A
C1206  C1213   1.421   .     A
C1206  F1240   1.354   .     S
C1207  H1219   1.084   .     S
C1207  C1211   1.395   .     A
C1208  H1220   1.084   .     S
C1208  C1212   1.395   .     A
C1209  H1221   1.084   .     S
C1209  C1212   1.395   .     A
C1210  C1211   1.395   .     A
C1210  H1222   1.084   .     S
C1214  C583    1.514   1_556 S
Cu1217 N1223   2.011   .     S
Cu1217 O1227   1.981   .     S
Cu1217 O1229   1.967   .     S
Cu1217 Cu1218  2.676   .     S
Cu1217 O1225   1.981   .     S
Cu1217 O1231   1.967   .     S
Cu1218 O1228   1.981   .     S
Cu1218 O1232   1.967   .     S
Cu1218 O1230   1.967   .     S
Cu1218 N1224   2.011   .     S
Cu1218 O1226   1.981   .     S
O1241  C1242   1.410   .     S
C1242  H1245   1.113   .     S
C1242  H1243   1.114   .     S
C1242  H1244   1.109   .     S
O1246  C1247   1.412   .     S
C1247  H1248   1.114   .     S
C1247  H1249   1.107   .     S
C1247  H1250   1.111   .     S
O1251  C1252   1.412   .     S
C1252  H1254   1.109   .     S
C1252  H1253   1.112   .     S
C1252  H1255   1.115   .     S
O1256  C1257   1.412   .     S
C1257  H1260   1.113   .     S
C1257  H1258   1.113   .     S
C1257  H1259   1.108   .     S
