data_str_m1_o5_o17_pcu_sym.89
_audit_creation_date              2020-01-03
_audit_creation_method            'Materials Studio'
_symmetry_space_group_name_H-M    'P1'
_symmetry_Int_Tables_number       1
_symmetry_cell_setting            triclinic
loop_
_symmetry_equiv_pos_as_xyz
  x,y,z
_cell_length_a                    31.7742
_cell_length_b                    31.8836
_cell_length_c                    34.4738
_cell_angle_alpha                 90.1720
_cell_angle_beta                  90.1651
_cell_angle_gamma                 90.0394
loop_
_atom_site_label
_atom_site_type_symbol
_atom_site_fract_x
_atom_site_fract_y
_atom_site_fract_z
_atom_site_U_iso_or_equiv
_atom_site_adp_type
_atom_site_occupancy
C1     C     0.24999   0.00005   0.35569   0.00000  Uiso   1.00
C2     C     0.33005   0.41998   0.75002   0.00000  Uiso   1.00
C3     C     0.42272   0.24417   0.02075   0.00000  Uiso   1.00
C4     C     0.25219   0.07741   0.97932   0.00000  Uiso   1.00
C5     C     0.24735   0.42344   0.01825   0.00000  Uiso   1.00
C6     C     0.42261   0.24392   0.98009   0.00000  Uiso   1.00
C7     C     0.07577   0.26085   0.02227   0.00000  Uiso   1.00
C8     C     0.41030   0.14021   0.46346   0.00000  Uiso   1.00
C9     C     0.39616   0.10398   0.43732   0.00000  Uiso   1.00
C10    C     0.34993   0.09295   0.44374   0.00000  Uiso   1.00
C11    C     0.00132   0.37322   0.55823   0.00000  Uiso   1.00
C12    C     0.46540   0.38206   0.52951   0.00000  Uiso   1.00
C13    C     0.41998   0.16998   0.24999   0.00000  Uiso   1.00
C14    C     0.42612   0.39562   0.55136   0.00000  Uiso   1.00
C15    C     0.34890   0.40857   0.45925   0.00000  Uiso   1.00
C16    C     0.38815   0.38850   0.44156   0.00000  Uiso   1.00
C17    C     0.38641   0.34072   0.44346   0.00000  Uiso   1.00
C18    C     0.11383   0.49669   0.53993   0.00000  Uiso   1.00
C19    C     0.08143   0.49628   0.50690   0.00000  Uiso   1.00
C20    C     0.04670   0.46440   0.51414   0.00000  Uiso   1.00
C21    C     0.09011   0.35971   0.46441   0.00000  Uiso   1.00
C22    C     0.10436   0.39548   0.43805   0.00000  Uiso   1.00
C23    C     0.15050   0.40678   0.44488   0.00000  Uiso   1.00
C24    C     0.08002   0.33002   0.75001   0.00000  Uiso   1.00
C25    C     0.49891   0.12721   0.55790   0.00000  Uiso   1.00
C26    C     0.03479   0.11805   0.52939   0.00000  Uiso   1.00
C27    C     0.07404   0.10454   0.55145   0.00000  Uiso   1.00
C28    C     0.15082   0.09118   0.45931   0.00000  Uiso   1.00
C29    C     0.11150   0.11122   0.44165   0.00000  Uiso   1.00
C30    C     0.11322   0.15901   0.44378   0.00000  Uiso   1.00
C31    C     0.38596   0.00321   0.54052   0.00000  Uiso   1.00
C32    C     0.41809   0.00385   0.50743   0.00000  Uiso   1.00
C33    C     0.45268   0.03591   0.51484   0.00000  Uiso   1.00
C34    C     0.20739   0.38372   0.93476   0.00000  Uiso   1.00
C35    C     0.33003   0.42000   0.24998   0.00000  Uiso   1.00
C36    C     0.17035   0.36669   0.95761   0.00000  Uiso   1.00
C37    C     0.13167   0.36127   0.93162   0.00000  Uiso   1.00
C38    C     0.21049   0.13051   0.04334   0.00000  Uiso   1.00
C39    C     0.21161   0.17231   0.06515   0.00000  Uiso   1.00
C40    C     0.16764   0.18587   0.07769   0.00000  Uiso   1.00
C41    C     0.13832   0.23078   0.96199   0.00000  Uiso   1.00
C42    C     0.17824   0.23868   0.93848   0.00000  Uiso   1.00
C43    C     0.20673   0.20020   0.93788   0.00000  Uiso   1.00
C44    C     0.38116   0.19626   0.05135   0.00000  Uiso   1.00
C45    C     0.34095   0.19128   0.07502   0.00000  Uiso   1.00
C46    C     0.16997   0.08000   0.75002   0.00000  Uiso   1.00
C47    C     0.33670   0.14701   0.09102   0.00000  Uiso   1.00
C48    C     0.29630   0.11816   0.94171   0.00000  Uiso   1.00
C49    C     0.33075   0.13475   0.96866   0.00000  Uiso   1.00
C50    C     0.37258   0.13768   0.94696   0.00000  Uiso   1.00
C51    C     0.28865   0.37122   0.04151   0.00000  Uiso   1.00
C52    C     0.28868   0.33062   0.06492   0.00000  Uiso   1.00
C53    C     0.33306   0.31913   0.07809   0.00000  Uiso   1.00
C54    C     0.36065   0.27255   0.95914   0.00000  Uiso   1.00
C55    C     0.32038   0.26290   0.93645   0.00000  Uiso   1.00
C56    C     0.29081   0.30052   0.93562   0.00000  Uiso   1.00
C57    C     0.08006   0.32998   0.25005   0.00000  Uiso   1.00
C58    C     0.11158   0.30544   0.06465   0.00000  Uiso   1.00
C59    C     0.13495   0.34080   0.04458   0.00000  Uiso   1.00
C60    C     0.13850   0.37955   0.07050   0.00000  Uiso   1.00
C61    C     0.41994   0.17002   0.74996   0.00000  Uiso   1.00
C62    C     0.16999   0.41997   0.75000   0.00000  Uiso   1.00
C63    C     0.33001   0.08003   0.24999   0.00000  Uiso   1.00
C64    C     0.41995   0.33002   0.74998   0.00000  Uiso   1.00
C65    C     0.24999   0.49994   0.64416   0.00000  Uiso   1.00
C66    C     0.08006   0.16998   0.25002   0.00000  Uiso   1.00
C67    C     0.33005   0.07999   0.75005   0.00000  Uiso   1.00
C68    C     0.16995   0.42001   0.24995   0.00000  Uiso   1.00
C69    C     0.08003   0.17001   0.74998   0.00000  Uiso   1.00
C70    C     0.41997   0.32999   0.25002   0.00000  Uiso   1.00
C71    C     0.13828   0.38837   0.24993   0.00000  Uiso   1.00
C72    C     0.36171   0.11163   0.75007   0.00000  Uiso   1.00
C73    C     0.11170   0.13835   0.25002   0.00000  Uiso   1.00
C74    C     0.38830   0.36166   0.74998   0.00000  Uiso   1.00
C75    C     0.36166   0.11169   0.24999   0.00000  Uiso   1.00
C76    C     0.00005   0.24998   0.35589   0.00000  Uiso   1.00
C77    C     0.13834   0.38832   0.75001   0.00000  Uiso   1.00
C78    C     0.38830   0.36165   0.25002   0.00000  Uiso   1.00
C79    C     0.11170   0.13835   0.74997   0.00000  Uiso   1.00
C80    C     0.13831   0.11165   0.75003   0.00000  Uiso   1.00
C81    C     0.36169   0.38834   0.24997   0.00000  Uiso   1.00
C82    C     0.11167   0.36167   0.75001   0.00000  Uiso   1.00
C83    C     0.38832   0.13833   0.24998   0.00000  Uiso   1.00
C84    C     0.36170   0.38834   0.75003   0.00000  Uiso   1.00
C85    C     0.13830   0.11166   0.24997   0.00000  Uiso   1.00
C86    C     0.38828   0.13838   0.74994   0.00000  Uiso   1.00
C87    C     0.49995   0.25006   0.64413   0.00000  Uiso   1.00
C88    C     0.11172   0.36162   0.25006   0.00000  Uiso   1.00
C89    C     0.01708   0.28453   0.41839   0.00000  Uiso   1.00
C90    C     0.47574   0.22048   0.58130   0.00000  Uiso   1.00
C91    C     0.21398   0.01355   0.41760   0.00000  Uiso   1.00
C92    C     0.28626   0.48718   0.58180   0.00000  Uiso   1.00
C93    C     0.48330   0.21538   0.41815   0.00000  Uiso   1.00
C94    C     0.02403   0.27989   0.58162   0.00000  Uiso   1.00
C95    C     0.28596   0.48655   0.41771   0.00000  Uiso   1.00
C96    C     0.21360   0.01247   0.58170   0.00000  Uiso   1.00
C97    C     0.24218   0.03837   0.91805   0.00000  Uiso   1.00
C98    C     0.00031   0.25009   0.85593   0.00000  Uiso   1.00
C99    C     0.24601   0.46166   0.08106   0.00000  Uiso   1.00
C100   C     0.46189   0.24547   0.91822   0.00000  Uiso   1.00
C101   C     0.03711   0.24513   0.08221   0.00000  Uiso   1.00
C102   C     0.25990   0.46416   0.91788   0.00000  Uiso   1.00
C103   C     0.25211   0.03817   0.08183   0.00000  Uiso   1.00
C104   C     0.03819   0.25638   0.91884   0.00000  Uiso   1.00
C105   C     0.46105   0.25420   0.08224   0.00000  Uiso   1.00
C106   C     0.00017   0.24995   0.39827   0.00000  Uiso   1.00
C107   C     0.49986   0.25018   0.60186   0.00000  Uiso   1.00
C108   C     0.25000   0.00012   0.39779   0.00000  Uiso   1.00
C109   C     0.49958   0.24989   0.14432   0.00000  Uiso   1.00
C110   C     0.24994   0.49983   0.60177   0.00000  Uiso   1.00
C111   C     0.25059   0.00109   0.89782   0.00000  Uiso   1.00
C112   C     0.24950   0.49975   0.10150   0.00000  Uiso   1.00
C113   C     0.00019   0.25042   0.89848   0.00000  Uiso   1.00
C114   C     0.49919   0.24963   0.10226   0.00000  Uiso   1.00
C115   C     0.48311   0.21506   0.45912   0.00000  Uiso   1.00
C116   C     0.01861   0.28359   0.54129   0.00000  Uiso   1.00
C117   C     0.28580   0.48535   0.45859   0.00000  Uiso   1.00
C118   C     0.21307   0.01191   0.54070   0.00000  Uiso   1.00
C119   C     0.01722   0.28493   0.45936   0.00000  Uiso   1.00
C120   C     0.25012   0.00064   0.85574   0.00000  Uiso   1.00
C121   C     0.48136   0.21668   0.54102   0.00000  Uiso   1.00
C122   C     0.21407   0.01457   0.45849   0.00000  Uiso   1.00
C123   C     0.28677   0.48777   0.54081   0.00000  Uiso   1.00
C124   C     0.25220   0.46262   0.95803   0.00000  Uiso   1.00
C125   C     0.25041   0.03904   0.04081   0.00000  Uiso   1.00
C126   C     0.03847   0.25610   0.95994   0.00000  Uiso   1.00
C127   C     0.46063   0.25011   0.04146   0.00000  Uiso   1.00
C128   C     0.24796   0.03928   0.95864   0.00000  Uiso   1.00
C129   C     0.24754   0.46148   0.04000   0.00000  Uiso   1.00
C130   C     0.46101   0.24714   0.95924   0.00000  Uiso   1.00
C131   C     0.24989   0.49957   0.14404   0.00000  Uiso   1.00
C132   C     0.03777   0.25241   0.04196   0.00000  Uiso   1.00
C133   C     0.00012   0.25003   0.47959   0.00000  Uiso   1.00
C134   C     0.00003   0.25011   0.52054   0.00000  Uiso   1.00
C135   C     0.24993   0.49993   0.47909   0.00000  Uiso   1.00
C136   C     0.24992   0.49986   0.52025   0.00000  Uiso   1.00
C137   C     0.24958   0.00078   0.97899   0.00000  Uiso   1.00
C138   C     0.24908   0.00044   0.02000   0.00000  Uiso   1.00
C139   C     0.49958   0.25175   0.98002   0.00000  Uiso   1.00
C140   C     0.49931   0.25155   0.02106   0.00000  Uiso   1.00
C141   C     0.46716   0.18031   0.48023   0.00000  Uiso   1.00
C142   C     0.16995   0.08002   0.24998   0.00000  Uiso   1.00
C143   C     0.03103   0.32003   0.52131   0.00000  Uiso   1.00
C144   C     0.32091   0.47047   0.47956   0.00000  Uiso   1.00
C145   C     0.17682   0.02382   0.51950   0.00000  Uiso   1.00
C146   C     0.03316   0.31972   0.48070   0.00000  Uiso   1.00
C147   C     0.46916   0.18014   0.52085   0.00000  Uiso   1.00
C148   C     0.17891   0.02931   0.47938   0.00000  Uiso   1.00
C149   C     0.32301   0.47591   0.51972   0.00000  Uiso   1.00
C150   C     0.24716   0.42412   0.97761   0.00000  Uiso   1.00
C151   C     0.25081   0.07743   0.01990   0.00000  Uiso   1.00
C152   C     0.07650   0.26044   0.98157   0.00000  Uiso   1.00
H153   H     0.05904   0.30994   0.38062   0.00000  Uiso   1.00
H154   H     0.49068   0.16889   0.37812   0.00000  Uiso   1.00
H155   H     0.14594   0.18670   0.05244   0.00000  Uiso   1.00
H156   H     0.16917   0.21763   0.09091   0.00000  Uiso   1.00
H157   H     0.15498   0.16368   0.09953   0.00000  Uiso   1.00
H158   H     0.12014   0.20493   0.94790   0.00000  Uiso   1.00
H159   H     0.14770   0.22100   0.99168   0.00000  Uiso   1.00
H160   H     0.16951   0.24709   0.90824   0.00000  Uiso   1.00
H161   H     0.19593   0.26533   0.95145   0.00000  Uiso   1.00
H162   H     0.21798   0.19314   0.96767   0.00000  Uiso   1.00
H163   H     0.23448   0.20644   0.91927   0.00000  Uiso   1.00
H164   H     0.18959   0.17259   0.92604   0.00000  Uiso   1.00
H165   H     0.03863   0.32213   0.62430   0.00000  Uiso   1.00
H166   H     0.40844   0.18629   0.06946   0.00000  Uiso   1.00
H167   H     0.37934   0.17547   0.02564   0.00000  Uiso   1.00
H168   H     0.34149   0.21368   0.09976   0.00000  Uiso   1.00
H169   H     0.31321   0.19853   0.05649   0.00000  Uiso   1.00
H170   H     0.33437   0.12386   0.06699   0.00000  Uiso   1.00
H171   H     0.30782   0.14526   0.10893   0.00000  Uiso   1.00
H172   H     0.36414   0.13917   0.10965   0.00000  Uiso   1.00
H173   H     0.29275   0.14038   0.91715   0.00000  Uiso   1.00
H174   H     0.30682   0.08787   0.92886   0.00000  Uiso   1.00
H175   H     0.32169   0.16623   0.97969   0.00000  Uiso   1.00
H176   H     0.07779   0.28802   0.61270   0.00000  Uiso   1.00
H177   H     0.33457   0.11323   0.99370   0.00000  Uiso   1.00
H178   H     0.38174   0.10641   0.93548   0.00000  Uiso   1.00
H179   H     0.39795   0.14863   0.96666   0.00000  Uiso   1.00
H180   H     0.36987   0.16006   0.92245   0.00000  Uiso   1.00
H181   H     0.30744   0.39527   0.05756   0.00000  Uiso   1.00
H182   H     0.30391   0.36511   0.01299   0.00000  Uiso   1.00
H183   H     0.26848   0.33444   0.09097   0.00000  Uiso   1.00
H184   H     0.27553   0.30476   0.04687   0.00000  Uiso   1.00
H185   H     0.35438   0.31642   0.05277   0.00000  Uiso   1.00
H186   H     0.33232   0.28873   0.09360   0.00000  Uiso   1.00
H187   H     0.31681   0.45019   0.37835   0.00000  Uiso   1.00
H188   H     0.34558   0.34343   0.09820   0.00000  Uiso   1.00
H189   H     0.37821   0.29789   0.94392   0.00000  Uiso   1.00
H190   H     0.35178   0.28368   0.98859   0.00000  Uiso   1.00
H191   H     0.32861   0.25390   0.90624   0.00000  Uiso   1.00
H192   H     0.30382   0.23607   0.95016   0.00000  Uiso   1.00
H193   H     0.27993   0.30797   0.96544   0.00000  Uiso   1.00
H194   H     0.26290   0.29304   0.91742   0.00000  Uiso   1.00
H195   H     0.30693   0.32830   0.92317   0.00000  Uiso   1.00
H196   H     0.12773   0.29904   0.09263   0.00000  Uiso   1.00
H197   H     0.07913   0.31634   0.07161   0.00000  Uiso   1.00
H198   H     0.33204   0.00138   0.37917   0.00000  Uiso   1.00
H199   H     0.16710   0.33000   0.03686   0.00000  Uiso   1.00
H200   H     0.11714   0.34909   0.01803   0.00000  Uiso   1.00
H201   H     0.10671   0.39129   0.07830   0.00000  Uiso   1.00
H202   H     0.15558   0.40472   0.05485   0.00000  Uiso   1.00
H203   H     0.15620   0.37196   0.09740   0.00000  Uiso   1.00
H204   H     0.16794   0.00222   0.62184   0.00000  Uiso   1.00
H205   H     0.18536   0.05269   0.61945   0.00000  Uiso   1.00
H206   H     0.25014   0.08253   0.87624   0.00000  Uiso   1.00
H207   H     0.19954   0.06812   0.88407   0.00000  Uiso   1.00
H208   H     0.26623   0.41927   0.12084   0.00000  Uiso   1.00
H209   H     0.00975   0.33099   0.37853   0.00000  Uiso   1.00
H210   H     0.21319   0.42559   0.11886   0.00000  Uiso   1.00
H211   H     0.41935   0.26458   0.87779   0.00000  Uiso   1.00
H212   H     0.42687   0.21178   0.87974   0.00000  Uiso   1.00
H213   H     0.08034   0.25292   0.12538   0.00000  Uiso   1.00
H214   H     0.06930   0.20244   0.11399   0.00000  Uiso   1.00
H215   H     0.25697   0.42011   0.87496   0.00000  Uiso   1.00
H216   H     0.30608   0.43698   0.88614   0.00000  Uiso   1.00
H217   H     0.23093   0.07956   0.12218   0.00000  Uiso   1.00
H218   H     0.28405   0.07395   0.12076   0.00000  Uiso   1.00
H219   H     0.08138   0.23635   0.87957   0.00000  Uiso   1.00
H220   H     0.46105   0.17818   0.62359   0.00000  Uiso   1.00
H221   H     0.07345   0.28910   0.88025   0.00000  Uiso   1.00
H222   H     0.41808   0.23918   0.12356   0.00000  Uiso   1.00
H223   H     0.42672   0.29134   0.11806   0.00000  Uiso   1.00
H224   H     0.39446   0.16944   0.45336   0.00000  Uiso   1.00
H225   H     0.40036   0.13351   0.49374   0.00000  Uiso   1.00
H226   H     0.40087   0.11281   0.40647   0.00000  Uiso   1.00
H227   H     0.41569   0.07587   0.44333   0.00000  Uiso   1.00
H228   H     0.34497   0.08202   0.47396   0.00000  Uiso   1.00
H229   H     0.34054   0.06737   0.42360   0.00000  Uiso   1.00
H230   H     0.32970   0.12068   0.43812   0.00000  Uiso   1.00
H231   H     0.42197   0.21240   0.61203   0.00000  Uiso   1.00
H232   H     0.00955   0.40303   0.57317   0.00000  Uiso   1.00
H233   H     0.48972   0.35206   0.58126   0.00000  Uiso   1.00
H234   H     0.47502   0.40692   0.50891   0.00000  Uiso   1.00
H235   H     0.45728   0.35344   0.51266   0.00000  Uiso   1.00
H236   H     0.41636   0.37104   0.57227   0.00000  Uiso   1.00
H237   H     0.40021   0.40008   0.53041   0.00000  Uiso   1.00
H238   H     0.43203   0.42540   0.56725   0.00000  Uiso   1.00
H239   H     0.32123   0.40077   0.44065   0.00000  Uiso   1.00
H240   H     0.34360   0.39531   0.48869   0.00000  Uiso   1.00
H241   H     0.39103   0.39838   0.41078   0.00000  Uiso   1.00
H242   H     0.18310   0.04983   0.37824   0.00000  Uiso   1.00
H243   H     0.41656   0.39959   0.45739   0.00000  Uiso   1.00
H244   H     0.38469   0.33019   0.47410   0.00000  Uiso   1.00
H245   H     0.41530   0.32735   0.43021   0.00000  Uiso   1.00
H246   H     0.35855   0.32880   0.42730   0.00000  Uiso   1.00
H247   H     0.09683   0.49798   0.56802   0.00000  Uiso   1.00
H248   H     0.13205   0.46672   0.54009   0.00000  Uiso   1.00
H249   H     0.06704   0.02780   0.50378   0.00000  Uiso   1.00
H250   H     0.09726   0.48803   0.47929   0.00000  Uiso   1.00
H251   H     0.06050   0.43266   0.51710   0.00000  Uiso   1.00
H252   H     0.02443   0.46431   0.48927   0.00000  Uiso   1.00
H253   H     0.16792   0.49863   0.37877   0.00000  Uiso   1.00
H254   H     0.02912   0.47250   0.54092   0.00000  Uiso   1.00
H255   H     0.10596   0.33029   0.45468   0.00000  Uiso   1.00
H256   H     0.09996   0.36689   0.49471   0.00000  Uiso   1.00
H257   H     0.09990   0.38606   0.40724   0.00000  Uiso   1.00
H258   H     0.08470   0.42364   0.44351   0.00000  Uiso   1.00
H259   H     0.15522   0.41826   0.47505   0.00000  Uiso   1.00
H260   H     0.15993   0.43206   0.42460   0.00000  Uiso   1.00
H261   H     0.17087   0.37903   0.43973   0.00000  Uiso   1.00
H262   H     0.49068   0.09758   0.57293   0.00000  Uiso   1.00
H263   H     0.01054   0.14863   0.58090   0.00000  Uiso   1.00
H264   H     0.33198   0.49741   0.62218   0.00000  Uiso   1.00
H265   H     0.02508   0.09307   0.50876   0.00000  Uiso   1.00
H266   H     0.04297   0.14654   0.51256   0.00000  Uiso   1.00
H267   H     0.08381   0.12920   0.57247   0.00000  Uiso   1.00
H268   H     0.09997   0.09998   0.53065   0.00000  Uiso   1.00
H269   H     0.06810   0.07483   0.56723   0.00000  Uiso   1.00
H270   H     0.17843   0.09904   0.44085   0.00000  Uiso   1.00
H271   H     0.15619   0.10443   0.48886   0.00000  Uiso   1.00
H272   H     0.10851   0.10132   0.41082   0.00000  Uiso   1.00
H273   H     0.08316   0.10013   0.45737   0.00000  Uiso   1.00
H274   H     0.11508   0.16956   0.47448   0.00000  Uiso   1.00
H275   H     0.31448   0.44697   0.61948   0.00000  Uiso   1.00
H276   H     0.08427   0.17235   0.43057   0.00000  Uiso   1.00
H277   H     0.14100   0.17093   0.42772   0.00000  Uiso   1.00
H278   H     0.40319   0.00189   0.56857   0.00000  Uiso   1.00
H279   H     0.36763   0.03312   0.54097   0.00000  Uiso   1.00
H280   H     0.43263   0.47241   0.50408   0.00000  Uiso   1.00
H281   H     0.40200   0.01209   0.47991   0.00000  Uiso   1.00
H282   H     0.43870   0.06757   0.51794   0.00000  Uiso   1.00
H283   H     0.47480   0.03611   0.48996   0.00000  Uiso   1.00
H284   H     0.47047   0.02793   0.54158   0.00000  Uiso   1.00
H285   H     0.21398   0.36192   0.91032   0.00000  Uiso   1.00
H286   H     0.44135   0.18985   0.38006   0.00000  Uiso   1.00
H287   H     0.19778   0.41406   0.92166   0.00000  Uiso   1.00
H288   H     0.17904   0.33596   0.97029   0.00000  Uiso   1.00
H289   H     0.16289   0.38930   0.98115   0.00000  Uiso   1.00
H290   H     0.12306   0.39158   0.91793   0.00000  Uiso   1.00
H291   H     0.10451   0.35040   0.94907   0.00000  Uiso   1.00
H292   H     0.13804   0.33768   0.90860   0.00000  Uiso   1.00
H293   H     0.19141   0.10765   0.06028   0.00000  Uiso   1.00
H294   H     0.19509   0.13553   0.01464   0.00000  Uiso   1.00
H295   H     0.23176   0.16931   0.09140   0.00000  Uiso   1.00
H296   H     0.22548   0.19677   0.04614   0.00000  Uiso   1.00
N297   N     0.03323   0.31968   0.39705   0.00000  Uiso   1.00
N298   N     0.24054   0.42328   0.10221   0.00000  Uiso   1.00
N299   N     0.42383   0.23909   0.89635   0.00000  Uiso   1.00
N300   N     0.07458   0.23223   0.10238   0.00000  Uiso   1.00
N301   N     0.27701   0.42842   0.89784   0.00000  Uiso   1.00
N302   N     0.25683   0.07623   0.10379   0.00000  Uiso   1.00
N303   N     0.07650   0.26238   0.89752   0.00000  Uiso   1.00
N304   N     0.42300   0.26293   0.10322   0.00000  Uiso   1.00
N305   N     0.44607   0.19376   0.60076   0.00000  Uiso   1.00
N306   N     0.17664   0.02419   0.39608   0.00000  Uiso   1.00
N307   N     0.32252   0.47344   0.60330   0.00000  Uiso   1.00
N308   N     0.46719   0.18018   0.39658   0.00000  Uiso   1.00
N309   N     0.05365   0.30663   0.60143   0.00000  Uiso   1.00
N310   N     0.32329   0.47585   0.39634   0.00000  Uiso   1.00
N311   N     0.17734   0.02618   0.60311   0.00000  Uiso   1.00
N312   N     0.22816   0.07509   0.89767   0.00000  Uiso   1.00
O313   O     0.25000  -0.00000   0.25000   0.00000  Uiso   1.00
O314   O     0.25000   0.46538   0.66251   0.00000  Uiso   1.00
O315   O     0.46538   0.25000   0.33749   0.00000  Uiso   1.00
O316   O     0.03461   0.25000   0.66251   0.00000  Uiso   1.00
O317   O     0.00000   0.21538   0.83749   0.00000  Uiso   1.00
O318   O     0.00000   0.28461   0.16251   0.00000  Uiso   1.00
O319   O     0.28461  -0.00000   0.83749   0.00000  Uiso   1.00
O320   O     0.21538  -0.00000   0.16251   0.00000  Uiso   1.00
O321   O     0.00000   0.28461   0.83749   0.00000  Uiso   1.00
O322   O     0.00000   0.21538   0.16251   0.00000  Uiso   1.00
O323   O     0.21538  -0.00000   0.83749   0.00000  Uiso   1.00
O324   O     0.25000  -0.00000   0.75000   0.00000  Uiso   1.00
O325   O     0.28461  -0.00000   0.16251   0.00000  Uiso   1.00
O326   O     0.20126   0.08332   0.27298   0.00000  Uiso   1.00
O327   O     0.29873   0.41668   0.72702   0.00000  Uiso   1.00
O328   O     0.41668   0.20126   0.27298   0.00000  Uiso   1.00
O329   O     0.08332   0.29873   0.72702   0.00000  Uiso   1.00
O330   O     0.29873   0.41668   0.27298   0.00000  Uiso   1.00
O331   O     0.20126   0.08332   0.72702   0.00000  Uiso   1.00
O332   O     0.08332   0.29873   0.27298   0.00000  Uiso   1.00
O333   O     0.41668   0.20126   0.72702   0.00000  Uiso   1.00
O334   O     0.20126   0.41668   0.72702   0.00000  Uiso   1.00
O335   O     0.00000   0.25000   0.25000   0.00000  Uiso   1.00
O336   O     0.29873   0.08332   0.27298   0.00000  Uiso   1.00
O337   O     0.41668   0.29873   0.72702   0.00000  Uiso   1.00
O338   O     0.08332   0.20126   0.27298   0.00000  Uiso   1.00
O339   O     0.29873   0.08332   0.72702   0.00000  Uiso   1.00
O340   O     0.20126   0.41668   0.27298   0.00000  Uiso   1.00
O341   O     0.08332   0.20126   0.72702   0.00000  Uiso   1.00
O342   O     0.41668   0.29873   0.27298   0.00000  Uiso   1.00
O343   O     0.45126   0.33332   0.77298   0.00000  Uiso   1.00
O344   O     0.04873   0.16668   0.22702   0.00000  Uiso   1.00
O345   O     0.16668   0.45126   0.77298   0.00000  Uiso   1.00
O346   O     0.00000   0.25000   0.75000   0.00000  Uiso   1.00
O347   O     0.33332   0.04873   0.22702   0.00000  Uiso   1.00
O348   O     0.04873   0.16668   0.77298   0.00000  Uiso   1.00
O349   O     0.45126   0.33332   0.22702   0.00000  Uiso   1.00
O350   O     0.33332   0.04873   0.77298   0.00000  Uiso   1.00
O351   O     0.16668   0.45126   0.22702   0.00000  Uiso   1.00
O352   O     0.45126   0.16668   0.22702   0.00000  Uiso   1.00
O353   O     0.04873   0.33332   0.77298   0.00000  Uiso   1.00
O354   O     0.16668   0.04873   0.22702   0.00000  Uiso   1.00
O355   O     0.33332   0.45126   0.77298   0.00000  Uiso   1.00
O356   O     0.04873   0.33332   0.22702   0.00000  Uiso   1.00
O357   O     0.25000   0.46538   0.33749   0.00000  Uiso   1.00
O358   O     0.45126   0.16668   0.77298   0.00000  Uiso   1.00
O359   O     0.33332   0.45126   0.22702   0.00000  Uiso   1.00
O360   O     0.16668   0.04873   0.77298   0.00000  Uiso   1.00
O361   O     0.45459   0.14396   0.46135   0.00000  Uiso   1.00
O362   O     0.03852   0.35780   0.54032   0.00000  Uiso   1.00
O363   O     0.35497   0.45243   0.46101   0.00000  Uiso   1.00
O364   O     0.13934   0.03310   0.53785   0.00000  Uiso   1.00
O365   O     0.04582   0.35600   0.46202   0.00000  Uiso   1.00
O366   O     0.46171   0.14242   0.53972   0.00000  Uiso   1.00
O367   O     0.14482   0.04731   0.46078   0.00000  Uiso   1.00
O368   O     0.25000   0.03461   0.66251   0.00000  Uiso   1.00
O369   O     0.36053   0.46673   0.53819   0.00000  Uiso   1.00
O370   O     0.24432   0.38598   0.95808   0.00000  Uiso   1.00
O371   O     0.25213   0.11579   0.03870   0.00000  Uiso   1.00
O372   O     0.11444   0.26813   0.96323   0.00000  Uiso   1.00
O373   O     0.38485   0.23858   0.03981   0.00000  Uiso   1.00
O374   O     0.25681   0.11575   0.96078   0.00000  Uiso   1.00
O375   O     0.24666   0.38477   0.03629   0.00000  Uiso   1.00
O376   O     0.38501   0.23559   0.96118   0.00000  Uiso   1.00
O377   O     0.11340   0.26822   0.04190   0.00000  Uiso   1.00
O378   O     0.03461   0.25000   0.33749   0.00000  Uiso   1.00
O379   O     0.46538   0.25000   0.66251   0.00000  Uiso   1.00
O380   O     0.25000   0.03461   0.33749   0.00000  Uiso   1.00
Zn381  Zn    0.20052  -0.00000   0.21730   0.00000  Uiso   1.00
Zn382  Zn    0.04947   0.25000   0.28270   0.00000  Uiso   1.00
Zn383  Zn    0.25000   0.45052   0.71730   0.00000  Uiso   1.00
Zn384  Zn    0.25000   0.04947   0.28270   0.00000  Uiso   1.00
Zn385  Zn    0.04947   0.25000   0.71730   0.00000  Uiso   1.00
Zn386  Zn    0.45052   0.25000   0.28270   0.00000  Uiso   1.00
Zn387  Zn    0.25000   0.04947   0.71730   0.00000  Uiso   1.00
Zn388  Zn    0.25000   0.45052   0.28270   0.00000  Uiso   1.00
Zn389  Zn    0.29947  -0.00000   0.78270   0.00000  Uiso   1.00
Zn390  Zn    0.00000   0.20052   0.21730   0.00000  Uiso   1.00
Zn391  Zn    0.00000   0.29947   0.78270   0.00000  Uiso   1.00
Zn392  Zn    0.29947  -0.00000   0.21730   0.00000  Uiso   1.00
Zn393  Zn    0.20052  -0.00000   0.78270   0.00000  Uiso   1.00
Zn394  Zn    0.00000   0.29947   0.21730   0.00000  Uiso   1.00
Zn395  Zn    0.00000   0.20052   0.78270   0.00000  Uiso   1.00
Zn396  Zn    0.45052   0.25000   0.71730   0.00000  Uiso   1.00
C397   C     0.74999   0.00005   0.35569   0.00000  Uiso   1.00
C398   C     0.83005   0.41998   0.75002   0.00000  Uiso   1.00
C399   C     0.92272   0.24417   0.02075   0.00000  Uiso   1.00
C400   C     0.75219   0.07741   0.97932   0.00000  Uiso   1.00
C401   C     0.74735   0.42344   0.01825   0.00000  Uiso   1.00
C402   C     0.92261   0.24392   0.98009   0.00000  Uiso   1.00
C403   C     0.57577   0.26085   0.02227   0.00000  Uiso   1.00
C404   C     0.91030   0.14021   0.46346   0.00000  Uiso   1.00
C405   C     0.89616   0.10398   0.43732   0.00000  Uiso   1.00
C406   C     0.84993   0.09295   0.44374   0.00000  Uiso   1.00
C407   C     0.50132   0.37322   0.55823   0.00000  Uiso   1.00
C408   C     0.96540   0.38206   0.52951   0.00000  Uiso   1.00
C409   C     0.91998   0.16998   0.24999   0.00000  Uiso   1.00
C410   C     0.92612   0.39562   0.55136   0.00000  Uiso   1.00
C411   C     0.84890   0.40857   0.45925   0.00000  Uiso   1.00
C412   C     0.88815   0.38850   0.44156   0.00000  Uiso   1.00
C413   C     0.88641   0.34072   0.44346   0.00000  Uiso   1.00
C414   C     0.61383   0.49669   0.53993   0.00000  Uiso   1.00
C415   C     0.58143   0.49628   0.50690   0.00000  Uiso   1.00
C416   C     0.54670   0.46440   0.51414   0.00000  Uiso   1.00
C417   C     0.59011   0.35971   0.46441   0.00000  Uiso   1.00
C418   C     0.60436   0.39548   0.43805   0.00000  Uiso   1.00
C419   C     0.65050   0.40678   0.44488   0.00000  Uiso   1.00
C420   C     0.58002   0.33002   0.75001   0.00000  Uiso   1.00
C421   C     0.99891   0.12721   0.55790   0.00000  Uiso   1.00
C422   C     0.53479   0.11805   0.52939   0.00000  Uiso   1.00
C423   C     0.57404   0.10454   0.55145   0.00000  Uiso   1.00
C424   C     0.65082   0.09118   0.45931   0.00000  Uiso   1.00
C425   C     0.61150   0.11122   0.44165   0.00000  Uiso   1.00
C426   C     0.61322   0.15901   0.44378   0.00000  Uiso   1.00
C427   C     0.88596   0.00321   0.54052   0.00000  Uiso   1.00
C428   C     0.91809   0.00385   0.50743   0.00000  Uiso   1.00
C429   C     0.95268   0.03591   0.51484   0.00000  Uiso   1.00
C430   C     0.70739   0.38372   0.93476   0.00000  Uiso   1.00
C431   C     0.83003   0.42000   0.24998   0.00000  Uiso   1.00
C432   C     0.67035   0.36669   0.95761   0.00000  Uiso   1.00
C433   C     0.63167   0.36127   0.93162   0.00000  Uiso   1.00
C434   C     0.71049   0.13051   0.04334   0.00000  Uiso   1.00
C435   C     0.71161   0.17231   0.06515   0.00000  Uiso   1.00
C436   C     0.66764   0.18587   0.07769   0.00000  Uiso   1.00
C437   C     0.63832   0.23078   0.96199   0.00000  Uiso   1.00
C438   C     0.67824   0.23868   0.93848   0.00000  Uiso   1.00
C439   C     0.70673   0.20020   0.93788   0.00000  Uiso   1.00
C440   C     0.88116   0.19626   0.05135   0.00000  Uiso   1.00
C441   C     0.84095   0.19128   0.07502   0.00000  Uiso   1.00
C442   C     0.66997   0.08000   0.75002   0.00000  Uiso   1.00
C443   C     0.83670   0.14701   0.09102   0.00000  Uiso   1.00
C444   C     0.79630   0.11816   0.94171   0.00000  Uiso   1.00
C445   C     0.83075   0.13475   0.96866   0.00000  Uiso   1.00
C446   C     0.87258   0.13768   0.94696   0.00000  Uiso   1.00
C447   C     0.78865   0.37122   0.04151   0.00000  Uiso   1.00
C448   C     0.78868   0.33062   0.06492   0.00000  Uiso   1.00
C449   C     0.83306   0.31913   0.07809   0.00000  Uiso   1.00
C450   C     0.86065   0.27255   0.95914   0.00000  Uiso   1.00
C451   C     0.82038   0.26290   0.93645   0.00000  Uiso   1.00
C452   C     0.79081   0.30052   0.93562   0.00000  Uiso   1.00
C453   C     0.58006   0.32998   0.25005   0.00000  Uiso   1.00
C454   C     0.61158   0.30544   0.06465   0.00000  Uiso   1.00
C455   C     0.63495   0.34080   0.04458   0.00000  Uiso   1.00
C456   C     0.63850   0.37955   0.07050   0.00000  Uiso   1.00
C457   C     0.91994   0.17002   0.74996   0.00000  Uiso   1.00
C458   C     0.66999   0.41997   0.75000   0.00000  Uiso   1.00
C459   C     0.83001   0.08003   0.24999   0.00000  Uiso   1.00
C460   C     0.91995   0.33002   0.74998   0.00000  Uiso   1.00
C461   C     0.74999   0.49994   0.64416   0.00000  Uiso   1.00
C462   C     0.58006   0.16998   0.25002   0.00000  Uiso   1.00
C463   C     0.83005   0.07999   0.75005   0.00000  Uiso   1.00
C464   C     0.66995   0.42001   0.24995   0.00000  Uiso   1.00
C465   C     0.58003   0.17001   0.74998   0.00000  Uiso   1.00
C466   C     0.91997   0.32999   0.25002   0.00000  Uiso   1.00
C467   C     0.63828   0.38837   0.24993   0.00000  Uiso   1.00
C468   C     0.86171   0.11163   0.75007   0.00000  Uiso   1.00
C469   C     0.61170   0.13835   0.25002   0.00000  Uiso   1.00
C470   C     0.88830   0.36166   0.74998   0.00000  Uiso   1.00
C471   C     0.86166   0.11169   0.24999   0.00000  Uiso   1.00
C472   C     0.50005   0.24998   0.35589   0.00000  Uiso   1.00
C473   C     0.63834   0.38832   0.75001   0.00000  Uiso   1.00
C474   C     0.88830   0.36165   0.25002   0.00000  Uiso   1.00
C475   C     0.61170   0.13835   0.74997   0.00000  Uiso   1.00
C476   C     0.63831   0.11165   0.75003   0.00000  Uiso   1.00
C477   C     0.86169   0.38834   0.24997   0.00000  Uiso   1.00
C478   C     0.61167   0.36167   0.75001   0.00000  Uiso   1.00
C479   C     0.88832   0.13833   0.24998   0.00000  Uiso   1.00
C480   C     0.86170   0.38834   0.75003   0.00000  Uiso   1.00
C481   C     0.63830   0.11166   0.24997   0.00000  Uiso   1.00
C482   C     0.88828   0.13838   0.74994   0.00000  Uiso   1.00
C483   C     0.99995   0.25006   0.64413   0.00000  Uiso   1.00
C484   C     0.61172   0.36162   0.25006   0.00000  Uiso   1.00
C485   C     0.51708   0.28453   0.41839   0.00000  Uiso   1.00
C486   C     0.97574   0.22048   0.58130   0.00000  Uiso   1.00
C487   C     0.71398   0.01355   0.41760   0.00000  Uiso   1.00
C488   C     0.78626   0.48718   0.58180   0.00000  Uiso   1.00
C489   C     0.98330   0.21538   0.41815   0.00000  Uiso   1.00
C490   C     0.52403   0.27989   0.58162   0.00000  Uiso   1.00
C491   C     0.78596   0.48655   0.41771   0.00000  Uiso   1.00
C492   C     0.71360   0.01247   0.58170   0.00000  Uiso   1.00
C493   C     0.74218   0.03837   0.91805   0.00000  Uiso   1.00
C494   C     0.50031   0.25009   0.85593   0.00000  Uiso   1.00
C495   C     0.74601   0.46166   0.08106   0.00000  Uiso   1.00
C496   C     0.96189   0.24547   0.91822   0.00000  Uiso   1.00
C497   C     0.53711   0.24513   0.08221   0.00000  Uiso   1.00
C498   C     0.75990   0.46416   0.91788   0.00000  Uiso   1.00
C499   C     0.75211   0.03817   0.08183   0.00000  Uiso   1.00
C500   C     0.53819   0.25638   0.91884   0.00000  Uiso   1.00
C501   C     0.96105   0.25420   0.08224   0.00000  Uiso   1.00
C502   C     0.50017   0.24995   0.39827   0.00000  Uiso   1.00
C503   C     0.99986   0.25018   0.60186   0.00000  Uiso   1.00
C504   C     0.75000   0.00012   0.39779   0.00000  Uiso   1.00
C505   C     0.99958   0.24989   0.14432   0.00000  Uiso   1.00
C506   C     0.74994   0.49983   0.60177   0.00000  Uiso   1.00
C507   C     0.75059   0.00109   0.89782   0.00000  Uiso   1.00
C508   C     0.74950   0.49975   0.10150   0.00000  Uiso   1.00
C509   C     0.50019   0.25042   0.89848   0.00000  Uiso   1.00
C510   C     0.99919   0.24963   0.10226   0.00000  Uiso   1.00
C511   C     0.98311   0.21506   0.45912   0.00000  Uiso   1.00
C512   C     0.51861   0.28359   0.54129   0.00000  Uiso   1.00
C513   C     0.78580   0.48535   0.45859   0.00000  Uiso   1.00
C514   C     0.71307   0.01191   0.54070   0.00000  Uiso   1.00
C515   C     0.51722   0.28493   0.45936   0.00000  Uiso   1.00
C516   C     0.75012   0.00064   0.85574   0.00000  Uiso   1.00
C517   C     0.98136   0.21668   0.54102   0.00000  Uiso   1.00
C518   C     0.71407   0.01457   0.45849   0.00000  Uiso   1.00
C519   C     0.78677   0.48777   0.54081   0.00000  Uiso   1.00
C520   C     0.75220   0.46262   0.95803   0.00000  Uiso   1.00
C521   C     0.75041   0.03904   0.04081   0.00000  Uiso   1.00
C522   C     0.53847   0.25610   0.95994   0.00000  Uiso   1.00
C523   C     0.96063   0.25011   0.04146   0.00000  Uiso   1.00
C524   C     0.74796   0.03928   0.95864   0.00000  Uiso   1.00
C525   C     0.74754   0.46148   0.04000   0.00000  Uiso   1.00
C526   C     0.96101   0.24714   0.95924   0.00000  Uiso   1.00
C527   C     0.74989   0.49957   0.14404   0.00000  Uiso   1.00
C528   C     0.53777   0.25241   0.04196   0.00000  Uiso   1.00
C529   C     0.50012   0.25003   0.47959   0.00000  Uiso   1.00
C530   C     0.50003   0.25011   0.52054   0.00000  Uiso   1.00
C531   C     0.74993   0.49993   0.47909   0.00000  Uiso   1.00
C532   C     0.74992   0.49986   0.52025   0.00000  Uiso   1.00
C533   C     0.74958   0.00078   0.97899   0.00000  Uiso   1.00
C534   C     0.74908   0.00044   0.02000   0.00000  Uiso   1.00
C535   C     0.99958   0.25175   0.98002   0.00000  Uiso   1.00
C536   C     0.99931   0.25155   0.02106   0.00000  Uiso   1.00
C537   C     0.96716   0.18031   0.48023   0.00000  Uiso   1.00
C538   C     0.66995   0.08002   0.24998   0.00000  Uiso   1.00
C539   C     0.53103   0.32003   0.52131   0.00000  Uiso   1.00
C540   C     0.82091   0.47047   0.47956   0.00000  Uiso   1.00
C541   C     0.67682   0.02382   0.51950   0.00000  Uiso   1.00
C542   C     0.53316   0.31972   0.48070   0.00000  Uiso   1.00
C543   C     0.96916   0.18014   0.52085   0.00000  Uiso   1.00
C544   C     0.67891   0.02931   0.47938   0.00000  Uiso   1.00
C545   C     0.82301   0.47591   0.51972   0.00000  Uiso   1.00
C546   C     0.74716   0.42412   0.97761   0.00000  Uiso   1.00
C547   C     0.75081   0.07743   0.01990   0.00000  Uiso   1.00
C548   C     0.57650   0.26044   0.98157   0.00000  Uiso   1.00
H549   H     0.55904   0.30994   0.38062   0.00000  Uiso   1.00
H550   H     0.99068   0.16889   0.37812   0.00000  Uiso   1.00
H551   H     0.64594   0.18670   0.05244   0.00000  Uiso   1.00
H552   H     0.66917   0.21763   0.09091   0.00000  Uiso   1.00
H553   H     0.65498   0.16368   0.09953   0.00000  Uiso   1.00
H554   H     0.62014   0.20493   0.94790   0.00000  Uiso   1.00
H555   H     0.64770   0.22100   0.99168   0.00000  Uiso   1.00
H556   H     0.66951   0.24709   0.90824   0.00000  Uiso   1.00
H557   H     0.69593   0.26533   0.95145   0.00000  Uiso   1.00
H558   H     0.71798   0.19314   0.96767   0.00000  Uiso   1.00
H559   H     0.73448   0.20644   0.91927   0.00000  Uiso   1.00
H560   H     0.68959   0.17259   0.92604   0.00000  Uiso   1.00
H561   H     0.53863   0.32213   0.62430   0.00000  Uiso   1.00
H562   H     0.90844   0.18629   0.06946   0.00000  Uiso   1.00
H563   H     0.87934   0.17547   0.02564   0.00000  Uiso   1.00
H564   H     0.84149   0.21368   0.09976   0.00000  Uiso   1.00
H565   H     0.81321   0.19853   0.05649   0.00000  Uiso   1.00
H566   H     0.83437   0.12386   0.06699   0.00000  Uiso   1.00
H567   H     0.80782   0.14526   0.10893   0.00000  Uiso   1.00
H568   H     0.86414   0.13917   0.10965   0.00000  Uiso   1.00
H569   H     0.79275   0.14038   0.91715   0.00000  Uiso   1.00
H570   H     0.80682   0.08787   0.92886   0.00000  Uiso   1.00
H571   H     0.82169   0.16623   0.97969   0.00000  Uiso   1.00
H572   H     0.57779   0.28802   0.61270   0.00000  Uiso   1.00
H573   H     0.83457   0.11323   0.99370   0.00000  Uiso   1.00
H574   H     0.88174   0.10641   0.93548   0.00000  Uiso   1.00
H575   H     0.89795   0.14863   0.96666   0.00000  Uiso   1.00
H576   H     0.86987   0.16006   0.92245   0.00000  Uiso   1.00
H577   H     0.80744   0.39527   0.05756   0.00000  Uiso   1.00
H578   H     0.80391   0.36511   0.01299   0.00000  Uiso   1.00
H579   H     0.76848   0.33444   0.09097   0.00000  Uiso   1.00
H580   H     0.77553   0.30476   0.04687   0.00000  Uiso   1.00
H581   H     0.85438   0.31642   0.05277   0.00000  Uiso   1.00
H582   H     0.83232   0.28873   0.09360   0.00000  Uiso   1.00
H583   H     0.81681   0.45019   0.37835   0.00000  Uiso   1.00
H584   H     0.84558   0.34343   0.09820   0.00000  Uiso   1.00
H585   H     0.87821   0.29789   0.94392   0.00000  Uiso   1.00
H586   H     0.85178   0.28368   0.98859   0.00000  Uiso   1.00
H587   H     0.82861   0.25390   0.90624   0.00000  Uiso   1.00
H588   H     0.80382   0.23607   0.95016   0.00000  Uiso   1.00
H589   H     0.77993   0.30797   0.96544   0.00000  Uiso   1.00
H590   H     0.76290   0.29304   0.91742   0.00000  Uiso   1.00
H591   H     0.80693   0.32830   0.92317   0.00000  Uiso   1.00
H592   H     0.62773   0.29904   0.09263   0.00000  Uiso   1.00
H593   H     0.57913   0.31634   0.07161   0.00000  Uiso   1.00
H594   H     0.83204   0.00138   0.37917   0.00000  Uiso   1.00
H595   H     0.66710   0.33000   0.03686   0.00000  Uiso   1.00
H596   H     0.61714   0.34909   0.01803   0.00000  Uiso   1.00
H597   H     0.60671   0.39129   0.07830   0.00000  Uiso   1.00
H598   H     0.65558   0.40472   0.05485   0.00000  Uiso   1.00
H599   H     0.65620   0.37196   0.09740   0.00000  Uiso   1.00
H600   H     0.66794   0.00222   0.62184   0.00000  Uiso   1.00
H601   H     0.68536   0.05269   0.61945   0.00000  Uiso   1.00
H602   H     0.75014   0.08253   0.87624   0.00000  Uiso   1.00
H603   H     0.69954   0.06812   0.88407   0.00000  Uiso   1.00
H604   H     0.76623   0.41927   0.12084   0.00000  Uiso   1.00
H605   H     0.50975   0.33099   0.37853   0.00000  Uiso   1.00
H606   H     0.71319   0.42559   0.11886   0.00000  Uiso   1.00
H607   H     0.91935   0.26458   0.87779   0.00000  Uiso   1.00
H608   H     0.92687   0.21178   0.87974   0.00000  Uiso   1.00
H609   H     0.58034   0.25292   0.12538   0.00000  Uiso   1.00
H610   H     0.56930   0.20244   0.11399   0.00000  Uiso   1.00
H611   H     0.75697   0.42011   0.87496   0.00000  Uiso   1.00
H612   H     0.80608   0.43698   0.88614   0.00000  Uiso   1.00
H613   H     0.73093   0.07956   0.12218   0.00000  Uiso   1.00
H614   H     0.78405   0.07395   0.12076   0.00000  Uiso   1.00
H615   H     0.58138   0.23635   0.87957   0.00000  Uiso   1.00
H616   H     0.96105   0.17818   0.62359   0.00000  Uiso   1.00
H617   H     0.57345   0.28910   0.88025   0.00000  Uiso   1.00
H618   H     0.91808   0.23918   0.12356   0.00000  Uiso   1.00
H619   H     0.92672   0.29134   0.11806   0.00000  Uiso   1.00
H620   H     0.89446   0.16944   0.45336   0.00000  Uiso   1.00
H621   H     0.90036   0.13351   0.49374   0.00000  Uiso   1.00
H622   H     0.90087   0.11281   0.40647   0.00000  Uiso   1.00
H623   H     0.91569   0.07587   0.44333   0.00000  Uiso   1.00
H624   H     0.84497   0.08202   0.47396   0.00000  Uiso   1.00
H625   H     0.84054   0.06737   0.42360   0.00000  Uiso   1.00
H626   H     0.82970   0.12068   0.43812   0.00000  Uiso   1.00
H627   H     0.92197   0.21240   0.61203   0.00000  Uiso   1.00
H628   H     0.50955   0.40303   0.57317   0.00000  Uiso   1.00
H629   H     0.98972   0.35206   0.58126   0.00000  Uiso   1.00
H630   H     0.97502   0.40692   0.50891   0.00000  Uiso   1.00
H631   H     0.95728   0.35344   0.51266   0.00000  Uiso   1.00
H632   H     0.91636   0.37104   0.57227   0.00000  Uiso   1.00
H633   H     0.90021   0.40008   0.53041   0.00000  Uiso   1.00
H634   H     0.93203   0.42540   0.56725   0.00000  Uiso   1.00
H635   H     0.82123   0.40077   0.44065   0.00000  Uiso   1.00
H636   H     0.84360   0.39531   0.48869   0.00000  Uiso   1.00
H637   H     0.89103   0.39838   0.41078   0.00000  Uiso   1.00
H638   H     0.68310   0.04983   0.37824   0.00000  Uiso   1.00
H639   H     0.91656   0.39959   0.45739   0.00000  Uiso   1.00
H640   H     0.88469   0.33019   0.47410   0.00000  Uiso   1.00
H641   H     0.91530   0.32735   0.43021   0.00000  Uiso   1.00
H642   H     0.85855   0.32880   0.42730   0.00000  Uiso   1.00
H643   H     0.59683   0.49798   0.56802   0.00000  Uiso   1.00
H644   H     0.63205   0.46672   0.54009   0.00000  Uiso   1.00
H645   H     0.56704   0.02780   0.50378   0.00000  Uiso   1.00
H646   H     0.59726   0.48803   0.47929   0.00000  Uiso   1.00
H647   H     0.56050   0.43266   0.51710   0.00000  Uiso   1.00
H648   H     0.52443   0.46431   0.48927   0.00000  Uiso   1.00
H649   H     0.66792   0.49863   0.37877   0.00000  Uiso   1.00
H650   H     0.52912   0.47250   0.54092   0.00000  Uiso   1.00
H651   H     0.60596   0.33029   0.45468   0.00000  Uiso   1.00
H652   H     0.59996   0.36689   0.49471   0.00000  Uiso   1.00
H653   H     0.59990   0.38606   0.40724   0.00000  Uiso   1.00
H654   H     0.58470   0.42364   0.44351   0.00000  Uiso   1.00
H655   H     0.65522   0.41826   0.47505   0.00000  Uiso   1.00
H656   H     0.65993   0.43206   0.42460   0.00000  Uiso   1.00
H657   H     0.67087   0.37903   0.43973   0.00000  Uiso   1.00
H658   H     0.99068   0.09758   0.57293   0.00000  Uiso   1.00
H659   H     0.51054   0.14863   0.58090   0.00000  Uiso   1.00
H660   H     0.83198   0.49741   0.62218   0.00000  Uiso   1.00
H661   H     0.52508   0.09307   0.50876   0.00000  Uiso   1.00
H662   H     0.54297   0.14654   0.51256   0.00000  Uiso   1.00
H663   H     0.58381   0.12920   0.57247   0.00000  Uiso   1.00
H664   H     0.59997   0.09998   0.53065   0.00000  Uiso   1.00
H665   H     0.56810   0.07483   0.56723   0.00000  Uiso   1.00
H666   H     0.67843   0.09904   0.44085   0.00000  Uiso   1.00
H667   H     0.65619   0.10443   0.48886   0.00000  Uiso   1.00
H668   H     0.60851   0.10132   0.41082   0.00000  Uiso   1.00
H669   H     0.58316   0.10013   0.45737   0.00000  Uiso   1.00
H670   H     0.61508   0.16956   0.47448   0.00000  Uiso   1.00
H671   H     0.81448   0.44697   0.61948   0.00000  Uiso   1.00
H672   H     0.58427   0.17235   0.43057   0.00000  Uiso   1.00
H673   H     0.64100   0.17093   0.42772   0.00000  Uiso   1.00
H674   H     0.90319   0.00189   0.56857   0.00000  Uiso   1.00
H675   H     0.86763   0.03312   0.54097   0.00000  Uiso   1.00
H676   H     0.93263   0.47241   0.50408   0.00000  Uiso   1.00
H677   H     0.90200   0.01209   0.47991   0.00000  Uiso   1.00
H678   H     0.93870   0.06757   0.51794   0.00000  Uiso   1.00
H679   H     0.97480   0.03611   0.48996   0.00000  Uiso   1.00
H680   H     0.97047   0.02793   0.54158   0.00000  Uiso   1.00
H681   H     0.71398   0.36192   0.91032   0.00000  Uiso   1.00
H682   H     0.94135   0.18985   0.38006   0.00000  Uiso   1.00
H683   H     0.69778   0.41406   0.92166   0.00000  Uiso   1.00
H684   H     0.67904   0.33596   0.97029   0.00000  Uiso   1.00
H685   H     0.66289   0.38930   0.98115   0.00000  Uiso   1.00
H686   H     0.62306   0.39158   0.91793   0.00000  Uiso   1.00
H687   H     0.60451   0.35040   0.94907   0.00000  Uiso   1.00
H688   H     0.63804   0.33768   0.90860   0.00000  Uiso   1.00
H689   H     0.69141   0.10765   0.06028   0.00000  Uiso   1.00
H690   H     0.69509   0.13553   0.01464   0.00000  Uiso   1.00
H691   H     0.73176   0.16931   0.09140   0.00000  Uiso   1.00
H692   H     0.72548   0.19677   0.04614   0.00000  Uiso   1.00
N693   N     0.53323   0.31968   0.39705   0.00000  Uiso   1.00
N694   N     0.74054   0.42328   0.10221   0.00000  Uiso   1.00
N695   N     0.92383   0.23909   0.89635   0.00000  Uiso   1.00
N696   N     0.57458   0.23223   0.10238   0.00000  Uiso   1.00
N697   N     0.77701   0.42842   0.89784   0.00000  Uiso   1.00
N698   N     0.75683   0.07623   0.10379   0.00000  Uiso   1.00
N699   N     0.57650   0.26238   0.89752   0.00000  Uiso   1.00
N700   N     0.92300   0.26293   0.10322   0.00000  Uiso   1.00
N701   N     0.94607   0.19376   0.60076   0.00000  Uiso   1.00
N702   N     0.67664   0.02419   0.39608   0.00000  Uiso   1.00
N703   N     0.82252   0.47344   0.60330   0.00000  Uiso   1.00
N704   N     0.96719   0.18018   0.39658   0.00000  Uiso   1.00
N705   N     0.55365   0.30663   0.60143   0.00000  Uiso   1.00
N706   N     0.82329   0.47585   0.39634   0.00000  Uiso   1.00
N707   N     0.67734   0.02618   0.60311   0.00000  Uiso   1.00
N708   N     0.72816   0.07509   0.89767   0.00000  Uiso   1.00
O709   O     0.75000  -0.00000   0.25000   0.00000  Uiso   1.00
O710   O     0.75000   0.46538   0.66251   0.00000  Uiso   1.00
O711   O     0.96538   0.25000   0.33749   0.00000  Uiso   1.00
O712   O     0.53461   0.25000   0.66251   0.00000  Uiso   1.00
O713   O     0.50000   0.21538   0.83749   0.00000  Uiso   1.00
O714   O     0.50000   0.28461   0.16251   0.00000  Uiso   1.00
O715   O     0.78461  -0.00000   0.83749   0.00000  Uiso   1.00
O716   O     0.71538  -0.00000   0.16251   0.00000  Uiso   1.00
O717   O     0.50000   0.28461   0.83749   0.00000  Uiso   1.00
O718   O     0.50000   0.21538   0.16251   0.00000  Uiso   1.00
O719   O     0.71538  -0.00000   0.83749   0.00000  Uiso   1.00
O720   O     0.75000  -0.00000   0.75000   0.00000  Uiso   1.00
O721   O     0.78461  -0.00000   0.16251   0.00000  Uiso   1.00
O722   O     0.70126   0.08332   0.27298   0.00000  Uiso   1.00
O723   O     0.79873   0.41668   0.72702   0.00000  Uiso   1.00
O724   O     0.91668   0.20126   0.27298   0.00000  Uiso   1.00
O725   O     0.58332   0.29873   0.72702   0.00000  Uiso   1.00
O726   O     0.79873   0.41668   0.27298   0.00000  Uiso   1.00
O727   O     0.70126   0.08332   0.72702   0.00000  Uiso   1.00
O728   O     0.58332   0.29873   0.27298   0.00000  Uiso   1.00
O729   O     0.91668   0.20126   0.72702   0.00000  Uiso   1.00
O730   O     0.70126   0.41668   0.72702   0.00000  Uiso   1.00
O731   O     0.50000   0.25000   0.25000   0.00000  Uiso   1.00
O732   O     0.79873   0.08332   0.27298   0.00000  Uiso   1.00
O733   O     0.91668   0.29873   0.72702   0.00000  Uiso   1.00
O734   O     0.58332   0.20126   0.27298   0.00000  Uiso   1.00
O735   O     0.79873   0.08332   0.72702   0.00000  Uiso   1.00
O736   O     0.70126   0.41668   0.27298   0.00000  Uiso   1.00
O737   O     0.58332   0.20126   0.72702   0.00000  Uiso   1.00
O738   O     0.91668   0.29873   0.27298   0.00000  Uiso   1.00
O739   O     0.95126   0.33332   0.77298   0.00000  Uiso   1.00
O740   O     0.54873   0.16668   0.22702   0.00000  Uiso   1.00
O741   O     0.66668   0.45126   0.77298   0.00000  Uiso   1.00
O742   O     0.50000   0.25000   0.75000   0.00000  Uiso   1.00
O743   O     0.83332   0.04873   0.22702   0.00000  Uiso   1.00
O744   O     0.54873   0.16668   0.77298   0.00000  Uiso   1.00
O745   O     0.95126   0.33332   0.22702   0.00000  Uiso   1.00
O746   O     0.83332   0.04873   0.77298   0.00000  Uiso   1.00
O747   O     0.66668   0.45126   0.22702   0.00000  Uiso   1.00
O748   O     0.95126   0.16668   0.22702   0.00000  Uiso   1.00
O749   O     0.54873   0.33332   0.77298   0.00000  Uiso   1.00
O750   O     0.66668   0.04873   0.22702   0.00000  Uiso   1.00
O751   O     0.83332   0.45126   0.77298   0.00000  Uiso   1.00
O752   O     0.54873   0.33332   0.22702   0.00000  Uiso   1.00
O753   O     0.75000   0.46538   0.33749   0.00000  Uiso   1.00
O754   O     0.95126   0.16668   0.77298   0.00000  Uiso   1.00
O755   O     0.83332   0.45126   0.22702   0.00000  Uiso   1.00
O756   O     0.66668   0.04873   0.77298   0.00000  Uiso   1.00
O757   O     0.95459   0.14396   0.46135   0.00000  Uiso   1.00
O758   O     0.53852   0.35780   0.54032   0.00000  Uiso   1.00
O759   O     0.85497   0.45243   0.46101   0.00000  Uiso   1.00
O760   O     0.63934   0.03310   0.53785   0.00000  Uiso   1.00
O761   O     0.54582   0.35600   0.46202   0.00000  Uiso   1.00
O762   O     0.96171   0.14242   0.53972   0.00000  Uiso   1.00
O763   O     0.64482   0.04731   0.46078   0.00000  Uiso   1.00
O764   O     0.75000   0.03461   0.66251   0.00000  Uiso   1.00
O765   O     0.86053   0.46673   0.53819   0.00000  Uiso   1.00
O766   O     0.74432   0.38598   0.95808   0.00000  Uiso   1.00
O767   O     0.75213   0.11579   0.03870   0.00000  Uiso   1.00
O768   O     0.61444   0.26813   0.96323   0.00000  Uiso   1.00
O769   O     0.88485   0.23858   0.03981   0.00000  Uiso   1.00
O770   O     0.75681   0.11575   0.96078   0.00000  Uiso   1.00
O771   O     0.74666   0.38477   0.03629   0.00000  Uiso   1.00
O772   O     0.88501   0.23559   0.96118   0.00000  Uiso   1.00
O773   O     0.61340   0.26822   0.04190   0.00000  Uiso   1.00
O774   O     0.53461   0.25000   0.33749   0.00000  Uiso   1.00
O775   O     0.96538   0.25000   0.66251   0.00000  Uiso   1.00
O776   O     0.75000   0.03461   0.33749   0.00000  Uiso   1.00
Zn777  Zn    0.70052  -0.00000   0.21730   0.00000  Uiso   1.00
Zn778  Zn    0.54947   0.25000   0.28270   0.00000  Uiso   1.00
Zn779  Zn    0.75000   0.45052   0.71730   0.00000  Uiso   1.00
Zn780  Zn    0.75000   0.04947   0.28270   0.00000  Uiso   1.00
Zn781  Zn    0.54947   0.25000   0.71730   0.00000  Uiso   1.00
Zn782  Zn    0.95052   0.25000   0.28270   0.00000  Uiso   1.00
Zn783  Zn    0.75000   0.04947   0.71730   0.00000  Uiso   1.00
Zn784  Zn    0.75000   0.45052   0.28270   0.00000  Uiso   1.00
Zn785  Zn    0.79947  -0.00000   0.78270   0.00000  Uiso   1.00
Zn786  Zn    0.50000   0.20052   0.21730   0.00000  Uiso   1.00
Zn787  Zn    0.50000   0.29947   0.78270   0.00000  Uiso   1.00
Zn788  Zn    0.79947  -0.00000   0.21730   0.00000  Uiso   1.00
Zn789  Zn    0.70052  -0.00000   0.78270   0.00000  Uiso   1.00
Zn790  Zn    0.50000   0.29947   0.21730   0.00000  Uiso   1.00
Zn791  Zn    0.50000   0.20052   0.78270   0.00000  Uiso   1.00
Zn792  Zn    0.95052   0.25000   0.71730   0.00000  Uiso   1.00
C793   C     0.24999   0.50005   0.35569   0.00000  Uiso   1.00
C794   C     0.33005   0.91998   0.75002   0.00000  Uiso   1.00
C795   C     0.42272   0.74417   0.02075   0.00000  Uiso   1.00
C796   C     0.25219   0.57741   0.97932   0.00000  Uiso   1.00
C797   C     0.24735   0.92344   0.01825   0.00000  Uiso   1.00
C798   C     0.42261   0.74392   0.98009   0.00000  Uiso   1.00
C799   C     0.07577   0.76085   0.02227   0.00000  Uiso   1.00
C800   C     0.41030   0.64021   0.46346   0.00000  Uiso   1.00
C801   C     0.39616   0.60398   0.43732   0.00000  Uiso   1.00
C802   C     0.34993   0.59295   0.44374   0.00000  Uiso   1.00
C803   C     0.00132   0.87322   0.55823   0.00000  Uiso   1.00
C804   C     0.46540   0.88206   0.52951   0.00000  Uiso   1.00
C805   C     0.41998   0.66998   0.24999   0.00000  Uiso   1.00
C806   C     0.42612   0.89562   0.55136   0.00000  Uiso   1.00
C807   C     0.34890   0.90857   0.45925   0.00000  Uiso   1.00
C808   C     0.38815   0.88850   0.44156   0.00000  Uiso   1.00
C809   C     0.38641   0.84072   0.44346   0.00000  Uiso   1.00
C810   C     0.11383   0.99669   0.53993   0.00000  Uiso   1.00
C811   C     0.08143   0.99628   0.50690   0.00000  Uiso   1.00
C812   C     0.04670   0.96440   0.51414   0.00000  Uiso   1.00
C813   C     0.09011   0.85971   0.46441   0.00000  Uiso   1.00
C814   C     0.10436   0.89548   0.43805   0.00000  Uiso   1.00
C815   C     0.15050   0.90678   0.44488   0.00000  Uiso   1.00
C816   C     0.08002   0.83002   0.75001   0.00000  Uiso   1.00
C817   C     0.49891   0.62721   0.55790   0.00000  Uiso   1.00
C818   C     0.03479   0.61805   0.52939   0.00000  Uiso   1.00
C819   C     0.07404   0.60454   0.55145   0.00000  Uiso   1.00
C820   C     0.15082   0.59118   0.45931   0.00000  Uiso   1.00
C821   C     0.11150   0.61122   0.44165   0.00000  Uiso   1.00
C822   C     0.11322   0.65901   0.44378   0.00000  Uiso   1.00
C823   C     0.38596   0.50321   0.54052   0.00000  Uiso   1.00
C824   C     0.41809   0.50385   0.50743   0.00000  Uiso   1.00
C825   C     0.45268   0.53591   0.51484   0.00000  Uiso   1.00
C826   C     0.20739   0.88372   0.93476   0.00000  Uiso   1.00
C827   C     0.33003   0.92000   0.24998   0.00000  Uiso   1.00
C828   C     0.17035   0.86669   0.95761   0.00000  Uiso   1.00
C829   C     0.13167   0.86127   0.93162   0.00000  Uiso   1.00
C830   C     0.21049   0.63051   0.04334   0.00000  Uiso   1.00
C831   C     0.21161   0.67231   0.06515   0.00000  Uiso   1.00
C832   C     0.16764   0.68587   0.07769   0.00000  Uiso   1.00
C833   C     0.13832   0.73078   0.96199   0.00000  Uiso   1.00
C834   C     0.17824   0.73868   0.93848   0.00000  Uiso   1.00
C835   C     0.20673   0.70020   0.93788   0.00000  Uiso   1.00
C836   C     0.38116   0.69626   0.05135   0.00000  Uiso   1.00
C837   C     0.34095   0.69128   0.07502   0.00000  Uiso   1.00
C838   C     0.16997   0.58000   0.75002   0.00000  Uiso   1.00
C839   C     0.33670   0.64701   0.09102   0.00000  Uiso   1.00
C840   C     0.29630   0.61816   0.94171   0.00000  Uiso   1.00
C841   C     0.33075   0.63475   0.96866   0.00000  Uiso   1.00
C842   C     0.37258   0.63768   0.94696   0.00000  Uiso   1.00
C843   C     0.28865   0.87122   0.04151   0.00000  Uiso   1.00
C844   C     0.28868   0.83062   0.06492   0.00000  Uiso   1.00
C845   C     0.33306   0.81913   0.07809   0.00000  Uiso   1.00
C846   C     0.36065   0.77255   0.95914   0.00000  Uiso   1.00
C847   C     0.32038   0.76290   0.93645   0.00000  Uiso   1.00
C848   C     0.29081   0.80052   0.93562   0.00000  Uiso   1.00
C849   C     0.08006   0.82998   0.25005   0.00000  Uiso   1.00
C850   C     0.11158   0.80544   0.06465   0.00000  Uiso   1.00
C851   C     0.13495   0.84080   0.04458   0.00000  Uiso   1.00
C852   C     0.13850   0.87955   0.07050   0.00000  Uiso   1.00
C853   C     0.41994   0.67002   0.74996   0.00000  Uiso   1.00
C854   C     0.16999   0.91997   0.75000   0.00000  Uiso   1.00
C855   C     0.33001   0.58003   0.24999   0.00000  Uiso   1.00
C856   C     0.41995   0.83002   0.74998   0.00000  Uiso   1.00
C857   C     0.24999   0.99994   0.64416   0.00000  Uiso   1.00
C858   C     0.08006   0.66998   0.25002   0.00000  Uiso   1.00
C859   C     0.33005   0.57999   0.75005   0.00000  Uiso   1.00
C860   C     0.16995   0.92001   0.24995   0.00000  Uiso   1.00
C861   C     0.08003   0.67001   0.74998   0.00000  Uiso   1.00
C862   C     0.41997   0.82999   0.25002   0.00000  Uiso   1.00
C863   C     0.13828   0.88837   0.24993   0.00000  Uiso   1.00
C864   C     0.36171   0.61163   0.75007   0.00000  Uiso   1.00
C865   C     0.11170   0.63835   0.25002   0.00000  Uiso   1.00
C866   C     0.38830   0.86166   0.74998   0.00000  Uiso   1.00
C867   C     0.36166   0.61169   0.24999   0.00000  Uiso   1.00
C868   C     0.00005   0.74998   0.35589   0.00000  Uiso   1.00
C869   C     0.13834   0.88832   0.75001   0.00000  Uiso   1.00
C870   C     0.38830   0.86165   0.25002   0.00000  Uiso   1.00
C871   C     0.11170   0.63835   0.74997   0.00000  Uiso   1.00
C872   C     0.13831   0.61165   0.75003   0.00000  Uiso   1.00
C873   C     0.36169   0.88834   0.24997   0.00000  Uiso   1.00
C874   C     0.11167   0.86167   0.75001   0.00000  Uiso   1.00
C875   C     0.38832   0.63833   0.24998   0.00000  Uiso   1.00
C876   C     0.36170   0.88834   0.75003   0.00000  Uiso   1.00
C877   C     0.13830   0.61166   0.24997   0.00000  Uiso   1.00
C878   C     0.38828   0.63838   0.74994   0.00000  Uiso   1.00
C879   C     0.49995   0.75006   0.64413   0.00000  Uiso   1.00
C880   C     0.11172   0.86162   0.25006   0.00000  Uiso   1.00
C881   C     0.01708   0.78453   0.41839   0.00000  Uiso   1.00
C882   C     0.47574   0.72048   0.58130   0.00000  Uiso   1.00
C883   C     0.21398   0.51355   0.41760   0.00000  Uiso   1.00
C884   C     0.28626   0.98718   0.58180   0.00000  Uiso   1.00
C885   C     0.48330   0.71538   0.41815   0.00000  Uiso   1.00
C886   C     0.02403   0.77989   0.58162   0.00000  Uiso   1.00
C887   C     0.28596   0.98655   0.41771   0.00000  Uiso   1.00
C888   C     0.21360   0.51247   0.58170   0.00000  Uiso   1.00
C889   C     0.24218   0.53837   0.91805   0.00000  Uiso   1.00
C890   C     0.00031   0.75009   0.85593   0.00000  Uiso   1.00
C891   C     0.24601   0.96166   0.08106   0.00000  Uiso   1.00
C892   C     0.46189   0.74547   0.91822   0.00000  Uiso   1.00
C893   C     0.03711   0.74513   0.08221   0.00000  Uiso   1.00
C894   C     0.25990   0.96416   0.91788   0.00000  Uiso   1.00
C895   C     0.25211   0.53817   0.08183   0.00000  Uiso   1.00
C896   C     0.03819   0.75638   0.91884   0.00000  Uiso   1.00
C897   C     0.46105   0.75420   0.08224   0.00000  Uiso   1.00
C898   C     0.00017   0.74995   0.39827   0.00000  Uiso   1.00
C899   C     0.49986   0.75018   0.60186   0.00000  Uiso   1.00
C900   C     0.25000   0.50012   0.39779   0.00000  Uiso   1.00
C901   C     0.49958   0.74989   0.14432   0.00000  Uiso   1.00
C902   C     0.24994   0.99983   0.60177   0.00000  Uiso   1.00
C903   C     0.25059   0.50109   0.89782   0.00000  Uiso   1.00
C904   C     0.24950   0.99975   0.10150   0.00000  Uiso   1.00
C905   C     0.00019   0.75042   0.89848   0.00000  Uiso   1.00
C906   C     0.49919   0.74963   0.10226   0.00000  Uiso   1.00
C907   C     0.48311   0.71506   0.45912   0.00000  Uiso   1.00
C908   C     0.01861   0.78359   0.54129   0.00000  Uiso   1.00
C909   C     0.28580   0.98535   0.45859   0.00000  Uiso   1.00
C910   C     0.21307   0.51191   0.54070   0.00000  Uiso   1.00
C911   C     0.01722   0.78493   0.45936   0.00000  Uiso   1.00
C912   C     0.25012   0.50064   0.85574   0.00000  Uiso   1.00
C913   C     0.48136   0.71668   0.54102   0.00000  Uiso   1.00
C914   C     0.21407   0.51457   0.45849   0.00000  Uiso   1.00
C915   C     0.28677   0.98777   0.54081   0.00000  Uiso   1.00
C916   C     0.25220   0.96262   0.95803   0.00000  Uiso   1.00
C917   C     0.25041   0.53904   0.04081   0.00000  Uiso   1.00
C918   C     0.03847   0.75610   0.95994   0.00000  Uiso   1.00
C919   C     0.46063   0.75011   0.04146   0.00000  Uiso   1.00
C920   C     0.24796   0.53928   0.95864   0.00000  Uiso   1.00
C921   C     0.24754   0.96148   0.04000   0.00000  Uiso   1.00
C922   C     0.46101   0.74714   0.95924   0.00000  Uiso   1.00
C923   C     0.24989   0.99957   0.14404   0.00000  Uiso   1.00
C924   C     0.03777   0.75241   0.04196   0.00000  Uiso   1.00
C925   C     0.00012   0.75003   0.47959   0.00000  Uiso   1.00
C926   C     0.00003   0.75011   0.52054   0.00000  Uiso   1.00
C927   C     0.24993   0.99993   0.47909   0.00000  Uiso   1.00
C928   C     0.24992   0.99986   0.52025   0.00000  Uiso   1.00
C929   C     0.24958   0.50078   0.97899   0.00000  Uiso   1.00
C930   C     0.24908   0.50044   0.02000   0.00000  Uiso   1.00
C931   C     0.49958   0.75175   0.98002   0.00000  Uiso   1.00
C932   C     0.49931   0.75155   0.02106   0.00000  Uiso   1.00
C933   C     0.46716   0.68031   0.48023   0.00000  Uiso   1.00
C934   C     0.16995   0.58002   0.24998   0.00000  Uiso   1.00
C935   C     0.03103   0.82003   0.52131   0.00000  Uiso   1.00
C936   C     0.32091   0.97047   0.47956   0.00000  Uiso   1.00
C937   C     0.17682   0.52382   0.51950   0.00000  Uiso   1.00
C938   C     0.03316   0.81972   0.48070   0.00000  Uiso   1.00
C939   C     0.46916   0.68014   0.52085   0.00000  Uiso   1.00
C940   C     0.17891   0.52931   0.47938   0.00000  Uiso   1.00
C941   C     0.32301   0.97591   0.51972   0.00000  Uiso   1.00
C942   C     0.24716   0.92412   0.97761   0.00000  Uiso   1.00
C943   C     0.25081   0.57743   0.01990   0.00000  Uiso   1.00
C944   C     0.07650   0.76044   0.98157   0.00000  Uiso   1.00
H945   H     0.05904   0.80994   0.38062   0.00000  Uiso   1.00
H946   H     0.49068   0.66889   0.37812   0.00000  Uiso   1.00
H947   H     0.14594   0.68670   0.05244   0.00000  Uiso   1.00
H948   H     0.16917   0.71763   0.09091   0.00000  Uiso   1.00
H949   H     0.15498   0.66368   0.09953   0.00000  Uiso   1.00
H950   H     0.12014   0.70493   0.94790   0.00000  Uiso   1.00
H951   H     0.14770   0.72100   0.99168   0.00000  Uiso   1.00
H952   H     0.16951   0.74709   0.90824   0.00000  Uiso   1.00
H953   H     0.19593   0.76533   0.95145   0.00000  Uiso   1.00
H954   H     0.21798   0.69314   0.96767   0.00000  Uiso   1.00
H955   H     0.23448   0.70644   0.91927   0.00000  Uiso   1.00
H956   H     0.18959   0.67259   0.92604   0.00000  Uiso   1.00
H957   H     0.03863   0.82213   0.62430   0.00000  Uiso   1.00
H958   H     0.40844   0.68629   0.06946   0.00000  Uiso   1.00
H959   H     0.37934   0.67547   0.02564   0.00000  Uiso   1.00
H960   H     0.34149   0.71368   0.09976   0.00000  Uiso   1.00
H961   H     0.31321   0.69853   0.05649   0.00000  Uiso   1.00
H962   H     0.33437   0.62386   0.06699   0.00000  Uiso   1.00
H963   H     0.30782   0.64526   0.10893   0.00000  Uiso   1.00
H964   H     0.36414   0.63917   0.10965   0.00000  Uiso   1.00
H965   H     0.29275   0.64038   0.91715   0.00000  Uiso   1.00
H966   H     0.30682   0.58787   0.92886   0.00000  Uiso   1.00
H967   H     0.32169   0.66623   0.97969   0.00000  Uiso   1.00
H968   H     0.07779   0.78802   0.61270   0.00000  Uiso   1.00
H969   H     0.33457   0.61323   0.99370   0.00000  Uiso   1.00
H970   H     0.38174   0.60641   0.93548   0.00000  Uiso   1.00
H971   H     0.39795   0.64863   0.96666   0.00000  Uiso   1.00
H972   H     0.36987   0.66006   0.92245   0.00000  Uiso   1.00
H973   H     0.30744   0.89527   0.05756   0.00000  Uiso   1.00
H974   H     0.30391   0.86511   0.01299   0.00000  Uiso   1.00
H975   H     0.26848   0.83444   0.09097   0.00000  Uiso   1.00
H976   H     0.27553   0.80476   0.04687   0.00000  Uiso   1.00
H977   H     0.35438   0.81642   0.05277   0.00000  Uiso   1.00
H978   H     0.33232   0.78873   0.09360   0.00000  Uiso   1.00
H979   H     0.31681   0.95019   0.37835   0.00000  Uiso   1.00
H980   H     0.34558   0.84343   0.09820   0.00000  Uiso   1.00
H981   H     0.37821   0.79789   0.94392   0.00000  Uiso   1.00
H982   H     0.35178   0.78368   0.98859   0.00000  Uiso   1.00
H983   H     0.32861   0.75390   0.90624   0.00000  Uiso   1.00
H984   H     0.30382   0.73607   0.95016   0.00000  Uiso   1.00
H985   H     0.27993   0.80797   0.96544   0.00000  Uiso   1.00
H986   H     0.26290   0.79304   0.91742   0.00000  Uiso   1.00
H987   H     0.30693   0.82830   0.92317   0.00000  Uiso   1.00
H988   H     0.12773   0.79904   0.09263   0.00000  Uiso   1.00
H989   H     0.07913   0.81634   0.07161   0.00000  Uiso   1.00
H990   H     0.33204   0.50138   0.37917   0.00000  Uiso   1.00
H991   H     0.16710   0.83000   0.03686   0.00000  Uiso   1.00
H992   H     0.11714   0.84909   0.01803   0.00000  Uiso   1.00
H993   H     0.10671   0.89129   0.07830   0.00000  Uiso   1.00
H994   H     0.15558   0.90472   0.05485   0.00000  Uiso   1.00
H995   H     0.15620   0.87196   0.09740   0.00000  Uiso   1.00
H996   H     0.16794   0.50222   0.62184   0.00000  Uiso   1.00
H997   H     0.18536   0.55269   0.61945   0.00000  Uiso   1.00
H998   H     0.25014   0.58253   0.87624   0.00000  Uiso   1.00
H999   H     0.19954   0.56812   0.88407   0.00000  Uiso   1.00
H1000  H     0.26623   0.91927   0.12084   0.00000  Uiso   1.00
H1001  H     0.00975   0.83099   0.37853   0.00000  Uiso   1.00
H1002  H     0.21319   0.92559   0.11886   0.00000  Uiso   1.00
H1003  H     0.41935   0.76458   0.87779   0.00000  Uiso   1.00
H1004  H     0.42687   0.71178   0.87974   0.00000  Uiso   1.00
H1005  H     0.08034   0.75292   0.12538   0.00000  Uiso   1.00
H1006  H     0.06930   0.70244   0.11399   0.00000  Uiso   1.00
H1007  H     0.25697   0.92011   0.87496   0.00000  Uiso   1.00
H1008  H     0.30608   0.93698   0.88614   0.00000  Uiso   1.00
H1009  H     0.23093   0.57956   0.12218   0.00000  Uiso   1.00
H1010  H     0.28405   0.57395   0.12076   0.00000  Uiso   1.00
H1011  H     0.08138   0.73635   0.87957   0.00000  Uiso   1.00
H1012  H     0.46105   0.67818   0.62359   0.00000  Uiso   1.00
H1013  H     0.07345   0.78910   0.88025   0.00000  Uiso   1.00
H1014  H     0.41808   0.73918   0.12356   0.00000  Uiso   1.00
H1015  H     0.42672   0.79134   0.11806   0.00000  Uiso   1.00
H1016  H     0.39446   0.66944   0.45336   0.00000  Uiso   1.00
H1017  H     0.40036   0.63351   0.49374   0.00000  Uiso   1.00
H1018  H     0.40087   0.61281   0.40647   0.00000  Uiso   1.00
H1019  H     0.41569   0.57587   0.44333   0.00000  Uiso   1.00
H1020  H     0.34497   0.58202   0.47396   0.00000  Uiso   1.00
H1021  H     0.34054   0.56737   0.42360   0.00000  Uiso   1.00
H1022  H     0.32970   0.62068   0.43812   0.00000  Uiso   1.00
H1023  H     0.42197   0.71240   0.61203   0.00000  Uiso   1.00
H1024  H     0.00955   0.90303   0.57317   0.00000  Uiso   1.00
H1025  H     0.48972   0.85206   0.58126   0.00000  Uiso   1.00
H1026  H     0.47502   0.90692   0.50891   0.00000  Uiso   1.00
H1027  H     0.45728   0.85344   0.51266   0.00000  Uiso   1.00
H1028  H     0.41636   0.87104   0.57227   0.00000  Uiso   1.00
H1029  H     0.40021   0.90008   0.53041   0.00000  Uiso   1.00
H1030  H     0.43203   0.92540   0.56725   0.00000  Uiso   1.00
H1031  H     0.32123   0.90077   0.44065   0.00000  Uiso   1.00
H1032  H     0.34360   0.89531   0.48869   0.00000  Uiso   1.00
H1033  H     0.39103   0.89838   0.41078   0.00000  Uiso   1.00
H1034  H     0.18310   0.54983   0.37824   0.00000  Uiso   1.00
H1035  H     0.41656   0.89959   0.45739   0.00000  Uiso   1.00
H1036  H     0.38469   0.83019   0.47410   0.00000  Uiso   1.00
H1037  H     0.41530   0.82735   0.43021   0.00000  Uiso   1.00
H1038  H     0.35855   0.82880   0.42730   0.00000  Uiso   1.00
H1039  H     0.09683   0.99798   0.56802   0.00000  Uiso   1.00
H1040  H     0.13205   0.96672   0.54009   0.00000  Uiso   1.00
H1041  H     0.06704   0.52780   0.50378   0.00000  Uiso   1.00
H1042  H     0.09726   0.98803   0.47929   0.00000  Uiso   1.00
H1043  H     0.06050   0.93266   0.51710   0.00000  Uiso   1.00
H1044  H     0.02443   0.96431   0.48927   0.00000  Uiso   1.00
H1045  H     0.16792   0.99863   0.37877   0.00000  Uiso   1.00
H1046  H     0.02912   0.97250   0.54092   0.00000  Uiso   1.00
H1047  H     0.10596   0.83029   0.45468   0.00000  Uiso   1.00
H1048  H     0.09996   0.86689   0.49471   0.00000  Uiso   1.00
H1049  H     0.09990   0.88606   0.40724   0.00000  Uiso   1.00
H1050  H     0.08470   0.92364   0.44351   0.00000  Uiso   1.00
H1051  H     0.15522   0.91826   0.47505   0.00000  Uiso   1.00
H1052  H     0.15993   0.93206   0.42460   0.00000  Uiso   1.00
H1053  H     0.17087   0.87903   0.43973   0.00000  Uiso   1.00
H1054  H     0.49068   0.59758   0.57293   0.00000  Uiso   1.00
H1055  H     0.01054   0.64863   0.58090   0.00000  Uiso   1.00
H1056  H     0.33198   0.99741   0.62218   0.00000  Uiso   1.00
H1057  H     0.02508   0.59307   0.50876   0.00000  Uiso   1.00
H1058  H     0.04297   0.64654   0.51256   0.00000  Uiso   1.00
H1059  H     0.08381   0.62920   0.57247   0.00000  Uiso   1.00
H1060  H     0.09997   0.59998   0.53065   0.00000  Uiso   1.00
H1061  H     0.06810   0.57483   0.56723   0.00000  Uiso   1.00
H1062  H     0.17843   0.59904   0.44085   0.00000  Uiso   1.00
H1063  H     0.15619   0.60443   0.48886   0.00000  Uiso   1.00
H1064  H     0.10851   0.60132   0.41082   0.00000  Uiso   1.00
H1065  H     0.08316   0.60013   0.45737   0.00000  Uiso   1.00
H1066  H     0.11508   0.66956   0.47448   0.00000  Uiso   1.00
H1067  H     0.31448   0.94697   0.61948   0.00000  Uiso   1.00
H1068  H     0.08427   0.67235   0.43057   0.00000  Uiso   1.00
H1069  H     0.14100   0.67093   0.42772   0.00000  Uiso   1.00
H1070  H     0.40319   0.50189   0.56857   0.00000  Uiso   1.00
H1071  H     0.36763   0.53312   0.54097   0.00000  Uiso   1.00
H1072  H     0.43263   0.97241   0.50408   0.00000  Uiso   1.00
H1073  H     0.40200   0.51209   0.47991   0.00000  Uiso   1.00
H1074  H     0.43870   0.56757   0.51794   0.00000  Uiso   1.00
H1075  H     0.47480   0.53611   0.48996   0.00000  Uiso   1.00
H1076  H     0.47047   0.52793   0.54158   0.00000  Uiso   1.00
H1077  H     0.21398   0.86192   0.91032   0.00000  Uiso   1.00
H1078  H     0.44135   0.68985   0.38006   0.00000  Uiso   1.00
H1079  H     0.19778   0.91406   0.92166   0.00000  Uiso   1.00
H1080  H     0.17904   0.83596   0.97029   0.00000  Uiso   1.00
H1081  H     0.16289   0.88930   0.98115   0.00000  Uiso   1.00
H1082  H     0.12306   0.89158   0.91793   0.00000  Uiso   1.00
H1083  H     0.10451   0.85040   0.94907   0.00000  Uiso   1.00
H1084  H     0.13804   0.83768   0.90860   0.00000  Uiso   1.00
H1085  H     0.19141   0.60765   0.06028   0.00000  Uiso   1.00
H1086  H     0.19509   0.63553   0.01464   0.00000  Uiso   1.00
H1087  H     0.23176   0.66931   0.09140   0.00000  Uiso   1.00
H1088  H     0.22548   0.69677   0.04614   0.00000  Uiso   1.00
N1089  N     0.03323   0.81968   0.39705   0.00000  Uiso   1.00
N1090  N     0.24054   0.92328   0.10221   0.00000  Uiso   1.00
N1091  N     0.42383   0.73909   0.89635   0.00000  Uiso   1.00
N1092  N     0.07458   0.73223   0.10238   0.00000  Uiso   1.00
N1093  N     0.27701   0.92842   0.89784   0.00000  Uiso   1.00
N1094  N     0.25683   0.57623   0.10379   0.00000  Uiso   1.00
N1095  N     0.07650   0.76238   0.89752   0.00000  Uiso   1.00
N1096  N     0.42300   0.76293   0.10322   0.00000  Uiso   1.00
N1097  N     0.44607   0.69376   0.60076   0.00000  Uiso   1.00
N1098  N     0.17664   0.52419   0.39608   0.00000  Uiso   1.00
N1099  N     0.32252   0.97344   0.60330   0.00000  Uiso   1.00
N1100  N     0.46719   0.68018   0.39658   0.00000  Uiso   1.00
N1101  N     0.05365   0.80663   0.60143   0.00000  Uiso   1.00
N1102  N     0.32329   0.97585   0.39634   0.00000  Uiso   1.00
N1103  N     0.17734   0.52618   0.60311   0.00000  Uiso   1.00
N1104  N     0.22816   0.57509   0.89767   0.00000  Uiso   1.00
O1105  O     0.25000   0.50000   0.25000   0.00000  Uiso   1.00
O1106  O     0.25000   0.96538   0.66251   0.00000  Uiso   1.00
O1107  O     0.46538   0.75000   0.33749   0.00000  Uiso   1.00
O1108  O     0.03461   0.75000   0.66251   0.00000  Uiso   1.00
O1109  O     0.00000   0.71538   0.83749   0.00000  Uiso   1.00
O1110  O     0.00000   0.78461   0.16251   0.00000  Uiso   1.00
O1111  O     0.28461   0.50000   0.83749   0.00000  Uiso   1.00
O1112  O     0.21538   0.50000   0.16251   0.00000  Uiso   1.00
O1113  O     0.00000   0.78461   0.83749   0.00000  Uiso   1.00
O1114  O     0.00000   0.71538   0.16251   0.00000  Uiso   1.00
O1115  O     0.21538   0.50000   0.83749   0.00000  Uiso   1.00
O1116  O     0.25000   0.50000   0.75000   0.00000  Uiso   1.00
O1117  O     0.28461   0.50000   0.16251   0.00000  Uiso   1.00
O1118  O     0.20126   0.58332   0.27298   0.00000  Uiso   1.00
O1119  O     0.29873   0.91668   0.72702   0.00000  Uiso   1.00
O1120  O     0.41668   0.70126   0.27298   0.00000  Uiso   1.00
O1121  O     0.08332   0.79873   0.72702   0.00000  Uiso   1.00
O1122  O     0.29873   0.91668   0.27298   0.00000  Uiso   1.00
O1123  O     0.20126   0.58332   0.72702   0.00000  Uiso   1.00
O1124  O     0.08332   0.79873   0.27298   0.00000  Uiso   1.00
O1125  O     0.41668   0.70126   0.72702   0.00000  Uiso   1.00
O1126  O     0.20126   0.91668   0.72702   0.00000  Uiso   1.00
O1127  O     0.00000   0.75000   0.25000   0.00000  Uiso   1.00
O1128  O     0.29873   0.58332   0.27298   0.00000  Uiso   1.00
O1129  O     0.41668   0.79873   0.72702   0.00000  Uiso   1.00
O1130  O     0.08332   0.70126   0.27298   0.00000  Uiso   1.00
O1131  O     0.29873   0.58332   0.72702   0.00000  Uiso   1.00
O1132  O     0.20126   0.91668   0.27298   0.00000  Uiso   1.00
O1133  O     0.08332   0.70126   0.72702   0.00000  Uiso   1.00
O1134  O     0.41668   0.79873   0.27298   0.00000  Uiso   1.00
O1135  O     0.45126   0.83332   0.77298   0.00000  Uiso   1.00
O1136  O     0.04873   0.66668   0.22702   0.00000  Uiso   1.00
O1137  O     0.16668   0.95126   0.77298   0.00000  Uiso   1.00
O1138  O     0.00000   0.75000   0.75000   0.00000  Uiso   1.00
O1139  O     0.33332   0.54873   0.22702   0.00000  Uiso   1.00
O1140  O     0.04873   0.66668   0.77298   0.00000  Uiso   1.00
O1141  O     0.45126   0.83332   0.22702   0.00000  Uiso   1.00
O1142  O     0.33332   0.54873   0.77298   0.00000  Uiso   1.00
O1143  O     0.16668   0.95126   0.22702   0.00000  Uiso   1.00
O1144  O     0.45126   0.66668   0.22702   0.00000  Uiso   1.00
O1145  O     0.04873   0.83332   0.77298   0.00000  Uiso   1.00
O1146  O     0.16668   0.54873   0.22702   0.00000  Uiso   1.00
O1147  O     0.33332   0.95126   0.77298   0.00000  Uiso   1.00
O1148  O     0.04873   0.83332   0.22702   0.00000  Uiso   1.00
O1149  O     0.25000   0.96538   0.33749   0.00000  Uiso   1.00
O1150  O     0.45126   0.66668   0.77298   0.00000  Uiso   1.00
O1151  O     0.33332   0.95126   0.22702   0.00000  Uiso   1.00
O1152  O     0.16668   0.54873   0.77298   0.00000  Uiso   1.00
O1153  O     0.45459   0.64396   0.46135   0.00000  Uiso   1.00
O1154  O     0.03852   0.85780   0.54032   0.00000  Uiso   1.00
O1155  O     0.35497   0.95243   0.46101   0.00000  Uiso   1.00
O1156  O     0.13934   0.53310   0.53785   0.00000  Uiso   1.00
O1157  O     0.04582   0.85600   0.46202   0.00000  Uiso   1.00
O1158  O     0.46171   0.64242   0.53972   0.00000  Uiso   1.00
O1159  O     0.14482   0.54731   0.46078   0.00000  Uiso   1.00
O1160  O     0.25000   0.53461   0.66251   0.00000  Uiso   1.00
O1161  O     0.36053   0.96673   0.53819   0.00000  Uiso   1.00
O1162  O     0.24432   0.88598   0.95808   0.00000  Uiso   1.00
O1163  O     0.25213   0.61579   0.03870   0.00000  Uiso   1.00
O1164  O     0.11444   0.76813   0.96323   0.00000  Uiso   1.00
O1165  O     0.38485   0.73858   0.03981   0.00000  Uiso   1.00
O1166  O     0.25681   0.61575   0.96078   0.00000  Uiso   1.00
O1167  O     0.24666   0.88477   0.03629   0.00000  Uiso   1.00
O1168  O     0.38501   0.73559   0.96118   0.00000  Uiso   1.00
O1169  O     0.11340   0.76822   0.04190   0.00000  Uiso   1.00
O1170  O     0.03461   0.75000   0.33749   0.00000  Uiso   1.00
O1171  O     0.46538   0.75000   0.66251   0.00000  Uiso   1.00
O1172  O     0.25000   0.53461   0.33749   0.00000  Uiso   1.00
Zn1173 Zn    0.20052   0.50000   0.21730   0.00000  Uiso   1.00
Zn1174 Zn    0.04947   0.75000   0.28270   0.00000  Uiso   1.00
Zn1175 Zn    0.25000   0.95052   0.71730   0.00000  Uiso   1.00
Zn1176 Zn    0.25000   0.54947   0.28270   0.00000  Uiso   1.00
Zn1177 Zn    0.04947   0.75000   0.71730   0.00000  Uiso   1.00
Zn1178 Zn    0.45052   0.75000   0.28270   0.00000  Uiso   1.00
Zn1179 Zn    0.25000   0.54947   0.71730   0.00000  Uiso   1.00
Zn1180 Zn    0.25000   0.95052   0.28270   0.00000  Uiso   1.00
Zn1181 Zn    0.29947   0.50000   0.78270   0.00000  Uiso   1.00
Zn1182 Zn    0.00000   0.70052   0.21730   0.00000  Uiso   1.00
Zn1183 Zn    0.00000   0.79947   0.78270   0.00000  Uiso   1.00
Zn1184 Zn    0.29947   0.50000   0.21730   0.00000  Uiso   1.00
Zn1185 Zn    0.20052   0.50000   0.78270   0.00000  Uiso   1.00
Zn1186 Zn    0.00000   0.79947   0.21730   0.00000  Uiso   1.00
Zn1187 Zn    0.00000   0.70052   0.78270   0.00000  Uiso   1.00
Zn1188 Zn    0.45052   0.75000   0.71730   0.00000  Uiso   1.00
C1189  C     0.74999   0.50005   0.35569   0.00000  Uiso   1.00
C1190  C     0.83005   0.91998   0.75002   0.00000  Uiso   1.00
C1191  C     0.92272   0.74417   0.02075   0.00000  Uiso   1.00
C1192  C     0.75219   0.57741   0.97932   0.00000  Uiso   1.00
C1193  C     0.74735   0.92344   0.01825   0.00000  Uiso   1.00
C1194  C     0.92261   0.74392   0.98009   0.00000  Uiso   1.00
C1195  C     0.57577   0.76085   0.02227   0.00000  Uiso   1.00
C1196  C     0.91030   0.64021   0.46346   0.00000  Uiso   1.00
C1197  C     0.89616   0.60398   0.43732   0.00000  Uiso   1.00
C1198  C     0.84993   0.59295   0.44374   0.00000  Uiso   1.00
C1199  C     0.50132   0.87322   0.55823   0.00000  Uiso   1.00
C1200  C     0.96540   0.88206   0.52951   0.00000  Uiso   1.00
C1201  C     0.91998   0.66998   0.24999   0.00000  Uiso   1.00
C1202  C     0.92612   0.89562   0.55136   0.00000  Uiso   1.00
C1203  C     0.84890   0.90857   0.45925   0.00000  Uiso   1.00
C1204  C     0.88815   0.88850   0.44156   0.00000  Uiso   1.00
C1205  C     0.88641   0.84072   0.44346   0.00000  Uiso   1.00
C1206  C     0.61383   0.99669   0.53993   0.00000  Uiso   1.00
C1207  C     0.58143   0.99628   0.50690   0.00000  Uiso   1.00
C1208  C     0.54670   0.96440   0.51414   0.00000  Uiso   1.00
C1209  C     0.59011   0.85971   0.46441   0.00000  Uiso   1.00
C1210  C     0.60436   0.89548   0.43805   0.00000  Uiso   1.00
C1211  C     0.65050   0.90678   0.44488   0.00000  Uiso   1.00
C1212  C     0.58002   0.83002   0.75001   0.00000  Uiso   1.00
C1213  C     0.99891   0.62721   0.55790   0.00000  Uiso   1.00
C1214  C     0.53479   0.61805   0.52939   0.00000  Uiso   1.00
C1215  C     0.57404   0.60454   0.55145   0.00000  Uiso   1.00
C1216  C     0.65082   0.59118   0.45931   0.00000  Uiso   1.00
C1217  C     0.61150   0.61122   0.44165   0.00000  Uiso   1.00
C1218  C     0.61322   0.65901   0.44378   0.00000  Uiso   1.00
C1219  C     0.88596   0.50321   0.54052   0.00000  Uiso   1.00
C1220  C     0.91809   0.50385   0.50743   0.00000  Uiso   1.00
C1221  C     0.95268   0.53591   0.51484   0.00000  Uiso   1.00
C1222  C     0.70739   0.88372   0.93476   0.00000  Uiso   1.00
C1223  C     0.83003   0.92000   0.24998   0.00000  Uiso   1.00
C1224  C     0.67035   0.86669   0.95761   0.00000  Uiso   1.00
C1225  C     0.63167   0.86127   0.93162   0.00000  Uiso   1.00
C1226  C     0.71049   0.63051   0.04334   0.00000  Uiso   1.00
C1227  C     0.71161   0.67231   0.06515   0.00000  Uiso   1.00
C1228  C     0.66764   0.68587   0.07769   0.00000  Uiso   1.00
C1229  C     0.63832   0.73078   0.96199   0.00000  Uiso   1.00
C1230  C     0.67824   0.73868   0.93848   0.00000  Uiso   1.00
C1231  C     0.70673   0.70020   0.93788   0.00000  Uiso   1.00
C1232  C     0.88116   0.69626   0.05135   0.00000  Uiso   1.00
C1233  C     0.84095   0.69128   0.07502   0.00000  Uiso   1.00
C1234  C     0.66997   0.58000   0.75002   0.00000  Uiso   1.00
C1235  C     0.83670   0.64701   0.09102   0.00000  Uiso   1.00
C1236  C     0.79630   0.61816   0.94171   0.00000  Uiso   1.00
C1237  C     0.83075   0.63475   0.96866   0.00000  Uiso   1.00
C1238  C     0.87258   0.63768   0.94696   0.00000  Uiso   1.00
C1239  C     0.78865   0.87122   0.04151   0.00000  Uiso   1.00
C1240  C     0.78868   0.83062   0.06492   0.00000  Uiso   1.00
C1241  C     0.83306   0.81913   0.07809   0.00000  Uiso   1.00
C1242  C     0.86065   0.77255   0.95914   0.00000  Uiso   1.00
C1243  C     0.82038   0.76290   0.93645   0.00000  Uiso   1.00
C1244  C     0.79081   0.80052   0.93562   0.00000  Uiso   1.00
C1245  C     0.58006   0.82998   0.25005   0.00000  Uiso   1.00
C1246  C     0.61158   0.80544   0.06465   0.00000  Uiso   1.00
C1247  C     0.63495   0.84080   0.04458   0.00000  Uiso   1.00
C1248  C     0.63850   0.87955   0.07050   0.00000  Uiso   1.00
C1249  C     0.91994   0.67002   0.74996   0.00000  Uiso   1.00
C1250  C     0.66999   0.91997   0.75000   0.00000  Uiso   1.00
C1251  C     0.83001   0.58003   0.24999   0.00000  Uiso   1.00
C1252  C     0.91995   0.83002   0.74998   0.00000  Uiso   1.00
C1253  C     0.74999   0.99994   0.64416   0.00000  Uiso   1.00
C1254  C     0.58006   0.66998   0.25002   0.00000  Uiso   1.00
C1255  C     0.83005   0.57999   0.75005   0.00000  Uiso   1.00
C1256  C     0.66995   0.92001   0.24995   0.00000  Uiso   1.00
C1257  C     0.58003   0.67001   0.74998   0.00000  Uiso   1.00
C1258  C     0.91997   0.82999   0.25002   0.00000  Uiso   1.00
C1259  C     0.63828   0.88837   0.24993   0.00000  Uiso   1.00
C1260  C     0.86171   0.61163   0.75007   0.00000  Uiso   1.00
C1261  C     0.61170   0.63835   0.25002   0.00000  Uiso   1.00
C1262  C     0.88830   0.86166   0.74998   0.00000  Uiso   1.00
C1263  C     0.86166   0.61169   0.24999   0.00000  Uiso   1.00
C1264  C     0.50005   0.74998   0.35589   0.00000  Uiso   1.00
C1265  C     0.63834   0.88832   0.75001   0.00000  Uiso   1.00
C1266  C     0.88830   0.86165   0.25002   0.00000  Uiso   1.00
C1267  C     0.61170   0.63835   0.74997   0.00000  Uiso   1.00
C1268  C     0.63831   0.61165   0.75003   0.00000  Uiso   1.00
C1269  C     0.86169   0.88834   0.24997   0.00000  Uiso   1.00
C1270  C     0.61167   0.86167   0.75001   0.00000  Uiso   1.00
C1271  C     0.88832   0.63833   0.24998   0.00000  Uiso   1.00
C1272  C     0.86170   0.88834   0.75003   0.00000  Uiso   1.00
C1273  C     0.63830   0.61166   0.24997   0.00000  Uiso   1.00
C1274  C     0.88828   0.63838   0.74994   0.00000  Uiso   1.00
C1275  C     0.99995   0.75006   0.64413   0.00000  Uiso   1.00
C1276  C     0.61172   0.86162   0.25006   0.00000  Uiso   1.00
C1277  C     0.51708   0.78453   0.41839   0.00000  Uiso   1.00
C1278  C     0.97574   0.72048   0.58130   0.00000  Uiso   1.00
C1279  C     0.71398   0.51355   0.41760   0.00000  Uiso   1.00
C1280  C     0.78626   0.98718   0.58180   0.00000  Uiso   1.00
C1281  C     0.98330   0.71538   0.41815   0.00000  Uiso   1.00
C1282  C     0.52403   0.77989   0.58162   0.00000  Uiso   1.00
C1283  C     0.78596   0.98655   0.41771   0.00000  Uiso   1.00
C1284  C     0.71360   0.51247   0.58170   0.00000  Uiso   1.00
C1285  C     0.74218   0.53837   0.91805   0.00000  Uiso   1.00
C1286  C     0.50031   0.75009   0.85593   0.00000  Uiso   1.00
C1287  C     0.74601   0.96166   0.08106   0.00000  Uiso   1.00
C1288  C     0.96189   0.74547   0.91822   0.00000  Uiso   1.00
C1289  C     0.53711   0.74513   0.08221   0.00000  Uiso   1.00
C1290  C     0.75990   0.96416   0.91788   0.00000  Uiso   1.00
C1291  C     0.75211   0.53817   0.08183   0.00000  Uiso   1.00
C1292  C     0.53819   0.75638   0.91884   0.00000  Uiso   1.00
C1293  C     0.96105   0.75420   0.08224   0.00000  Uiso   1.00
C1294  C     0.50017   0.74995   0.39827   0.00000  Uiso   1.00
C1295  C     0.99986   0.75018   0.60186   0.00000  Uiso   1.00
C1296  C     0.75000   0.50012   0.39779   0.00000  Uiso   1.00
C1297  C     0.99958   0.74989   0.14432   0.00000  Uiso   1.00
C1298  C     0.74994   0.99983   0.60177   0.00000  Uiso   1.00
C1299  C     0.75059   0.50109   0.89782   0.00000  Uiso   1.00
C1300  C     0.74950   0.99975   0.10150   0.00000  Uiso   1.00
C1301  C     0.50019   0.75042   0.89848   0.00000  Uiso   1.00
C1302  C     0.99919   0.74963   0.10226   0.00000  Uiso   1.00
C1303  C     0.98311   0.71506   0.45912   0.00000  Uiso   1.00
C1304  C     0.51861   0.78359   0.54129   0.00000  Uiso   1.00
C1305  C     0.78580   0.98535   0.45859   0.00000  Uiso   1.00
C1306  C     0.71307   0.51191   0.54070   0.00000  Uiso   1.00
C1307  C     0.51722   0.78493   0.45936   0.00000  Uiso   1.00
C1308  C     0.75012   0.50064   0.85574   0.00000  Uiso   1.00
C1309  C     0.98136   0.71668   0.54102   0.00000  Uiso   1.00
C1310  C     0.71407   0.51457   0.45849   0.00000  Uiso   1.00
C1311  C     0.78677   0.98777   0.54081   0.00000  Uiso   1.00
C1312  C     0.75220   0.96262   0.95803   0.00000  Uiso   1.00
C1313  C     0.75041   0.53904   0.04081   0.00000  Uiso   1.00
C1314  C     0.53847   0.75610   0.95994   0.00000  Uiso   1.00
C1315  C     0.96063   0.75011   0.04146   0.00000  Uiso   1.00
C1316  C     0.74796   0.53928   0.95864   0.00000  Uiso   1.00
C1317  C     0.74754   0.96148   0.04000   0.00000  Uiso   1.00
C1318  C     0.96101   0.74714   0.95924   0.00000  Uiso   1.00
C1319  C     0.74989   0.99957   0.14404   0.00000  Uiso   1.00
C1320  C     0.53777   0.75241   0.04196   0.00000  Uiso   1.00
C1321  C     0.50012   0.75003   0.47959   0.00000  Uiso   1.00
C1322  C     0.50003   0.75011   0.52054   0.00000  Uiso   1.00
C1323  C     0.74993   0.99993   0.47909   0.00000  Uiso   1.00
C1324  C     0.74992   0.99986   0.52025   0.00000  Uiso   1.00
C1325  C     0.74958   0.50078   0.97899   0.00000  Uiso   1.00
C1326  C     0.74908   0.50044   0.02000   0.00000  Uiso   1.00
C1327  C     0.99958   0.75175   0.98002   0.00000  Uiso   1.00
C1328  C     0.99931   0.75155   0.02106   0.00000  Uiso   1.00
C1329  C     0.96716   0.68031   0.48023   0.00000  Uiso   1.00
C1330  C     0.66995   0.58002   0.24998   0.00000  Uiso   1.00
C1331  C     0.53103   0.82003   0.52131   0.00000  Uiso   1.00
C1332  C     0.82091   0.97047   0.47956   0.00000  Uiso   1.00
C1333  C     0.67682   0.52382   0.51950   0.00000  Uiso   1.00
C1334  C     0.53316   0.81972   0.48070   0.00000  Uiso   1.00
C1335  C     0.96916   0.68014   0.52085   0.00000  Uiso   1.00
C1336  C     0.67891   0.52931   0.47938   0.00000  Uiso   1.00
C1337  C     0.82301   0.97591   0.51972   0.00000  Uiso   1.00
C1338  C     0.74716   0.92412   0.97761   0.00000  Uiso   1.00
C1339  C     0.75081   0.57743   0.01990   0.00000  Uiso   1.00
C1340  C     0.57650   0.76044   0.98157   0.00000  Uiso   1.00
H1341  H     0.55904   0.80994   0.38062   0.00000  Uiso   1.00
H1342  H     0.99068   0.66889   0.37812   0.00000  Uiso   1.00
H1343  H     0.64594   0.68670   0.05244   0.00000  Uiso   1.00
H1344  H     0.66917   0.71763   0.09091   0.00000  Uiso   1.00
H1345  H     0.65498   0.66368   0.09953   0.00000  Uiso   1.00
H1346  H     0.62014   0.70493   0.94790   0.00000  Uiso   1.00
H1347  H     0.64770   0.72100   0.99168   0.00000  Uiso   1.00
H1348  H     0.66951   0.74709   0.90824   0.00000  Uiso   1.00
H1349  H     0.69593   0.76533   0.95145   0.00000  Uiso   1.00
H1350  H     0.71798   0.69314   0.96767   0.00000  Uiso   1.00
H1351  H     0.73448   0.70644   0.91927   0.00000  Uiso   1.00
H1352  H     0.68959   0.67259   0.92604   0.00000  Uiso   1.00
H1353  H     0.53863   0.82213   0.62430   0.00000  Uiso   1.00
H1354  H     0.90844   0.68629   0.06946   0.00000  Uiso   1.00
H1355  H     0.87934   0.67547   0.02564   0.00000  Uiso   1.00
H1356  H     0.84149   0.71368   0.09976   0.00000  Uiso   1.00
H1357  H     0.81321   0.69853   0.05649   0.00000  Uiso   1.00
H1358  H     0.83437   0.62386   0.06699   0.00000  Uiso   1.00
H1359  H     0.80782   0.64526   0.10893   0.00000  Uiso   1.00
H1360  H     0.86414   0.63917   0.10965   0.00000  Uiso   1.00
H1361  H     0.79275   0.64038   0.91715   0.00000  Uiso   1.00
H1362  H     0.80682   0.58787   0.92886   0.00000  Uiso   1.00
H1363  H     0.82169   0.66623   0.97969   0.00000  Uiso   1.00
H1364  H     0.57779   0.78802   0.61270   0.00000  Uiso   1.00
H1365  H     0.83457   0.61323   0.99370   0.00000  Uiso   1.00
H1366  H     0.88174   0.60641   0.93548   0.00000  Uiso   1.00
H1367  H     0.89795   0.64863   0.96666   0.00000  Uiso   1.00
H1368  H     0.86987   0.66006   0.92245   0.00000  Uiso   1.00
H1369  H     0.80744   0.89527   0.05756   0.00000  Uiso   1.00
H1370  H     0.80391   0.86511   0.01299   0.00000  Uiso   1.00
H1371  H     0.76848   0.83444   0.09097   0.00000  Uiso   1.00
H1372  H     0.77553   0.80476   0.04687   0.00000  Uiso   1.00
H1373  H     0.85438   0.81642   0.05277   0.00000  Uiso   1.00
H1374  H     0.83232   0.78873   0.09360   0.00000  Uiso   1.00
H1375  H     0.81681   0.95019   0.37835   0.00000  Uiso   1.00
H1376  H     0.84558   0.84343   0.09820   0.00000  Uiso   1.00
H1377  H     0.87821   0.79789   0.94392   0.00000  Uiso   1.00
H1378  H     0.85178   0.78368   0.98859   0.00000  Uiso   1.00
H1379  H     0.82861   0.75390   0.90624   0.00000  Uiso   1.00
H1380  H     0.80382   0.73607   0.95016   0.00000  Uiso   1.00
H1381  H     0.77993   0.80797   0.96544   0.00000  Uiso   1.00
H1382  H     0.76290   0.79304   0.91742   0.00000  Uiso   1.00
H1383  H     0.80693   0.82830   0.92317   0.00000  Uiso   1.00
H1384  H     0.62773   0.79904   0.09263   0.00000  Uiso   1.00
H1385  H     0.57913   0.81634   0.07161   0.00000  Uiso   1.00
H1386  H     0.83204   0.50138   0.37917   0.00000  Uiso   1.00
H1387  H     0.66710   0.83000   0.03686   0.00000  Uiso   1.00
H1388  H     0.61714   0.84909   0.01803   0.00000  Uiso   1.00
H1389  H     0.60671   0.89129   0.07830   0.00000  Uiso   1.00
H1390  H     0.65558   0.90472   0.05485   0.00000  Uiso   1.00
H1391  H     0.65620   0.87196   0.09740   0.00000  Uiso   1.00
H1392  H     0.66794   0.50222   0.62184   0.00000  Uiso   1.00
H1393  H     0.68536   0.55269   0.61945   0.00000  Uiso   1.00
H1394  H     0.75014   0.58253   0.87624   0.00000  Uiso   1.00
H1395  H     0.69954   0.56812   0.88407   0.00000  Uiso   1.00
H1396  H     0.76623   0.91927   0.12084   0.00000  Uiso   1.00
H1397  H     0.50975   0.83099   0.37853   0.00000  Uiso   1.00
H1398  H     0.71319   0.92559   0.11886   0.00000  Uiso   1.00
H1399  H     0.91935   0.76458   0.87779   0.00000  Uiso   1.00
H1400  H     0.92687   0.71178   0.87974   0.00000  Uiso   1.00
H1401  H     0.58034   0.75292   0.12538   0.00000  Uiso   1.00
H1402  H     0.56930   0.70244   0.11399   0.00000  Uiso   1.00
H1403  H     0.75697   0.92011   0.87496   0.00000  Uiso   1.00
H1404  H     0.80608   0.93698   0.88614   0.00000  Uiso   1.00
H1405  H     0.73093   0.57956   0.12218   0.00000  Uiso   1.00
H1406  H     0.78405   0.57395   0.12076   0.00000  Uiso   1.00
H1407  H     0.58138   0.73635   0.87957   0.00000  Uiso   1.00
H1408  H     0.96105   0.67818   0.62359   0.00000  Uiso   1.00
H1409  H     0.57345   0.78910   0.88025   0.00000  Uiso   1.00
H1410  H     0.91808   0.73918   0.12356   0.00000  Uiso   1.00
H1411  H     0.92672   0.79134   0.11806   0.00000  Uiso   1.00
H1412  H     0.89446   0.66944   0.45336   0.00000  Uiso   1.00
H1413  H     0.90036   0.63351   0.49374   0.00000  Uiso   1.00
H1414  H     0.90087   0.61281   0.40647   0.00000  Uiso   1.00
H1415  H     0.91569   0.57587   0.44333   0.00000  Uiso   1.00
H1416  H     0.84497   0.58202   0.47396   0.00000  Uiso   1.00
H1417  H     0.84054   0.56737   0.42360   0.00000  Uiso   1.00
H1418  H     0.82970   0.62068   0.43812   0.00000  Uiso   1.00
H1419  H     0.92197   0.71240   0.61203   0.00000  Uiso   1.00
H1420  H     0.50955   0.90303   0.57317   0.00000  Uiso   1.00
H1421  H     0.98972   0.85206   0.58126   0.00000  Uiso   1.00
H1422  H     0.97502   0.90692   0.50891   0.00000  Uiso   1.00
H1423  H     0.95728   0.85344   0.51266   0.00000  Uiso   1.00
H1424  H     0.91636   0.87104   0.57227   0.00000  Uiso   1.00
H1425  H     0.90021   0.90008   0.53041   0.00000  Uiso   1.00
H1426  H     0.93203   0.92540   0.56725   0.00000  Uiso   1.00
H1427  H     0.82123   0.90077   0.44065   0.00000  Uiso   1.00
H1428  H     0.84360   0.89531   0.48869   0.00000  Uiso   1.00
H1429  H     0.89103   0.89838   0.41078   0.00000  Uiso   1.00
H1430  H     0.68310   0.54983   0.37824   0.00000  Uiso   1.00
H1431  H     0.91656   0.89959   0.45739   0.00000  Uiso   1.00
H1432  H     0.88469   0.83019   0.47410   0.00000  Uiso   1.00
H1433  H     0.91530   0.82735   0.43021   0.00000  Uiso   1.00
H1434  H     0.85855   0.82880   0.42730   0.00000  Uiso   1.00
H1435  H     0.59683   0.99798   0.56802   0.00000  Uiso   1.00
H1436  H     0.63205   0.96672   0.54009   0.00000  Uiso   1.00
H1437  H     0.56704   0.52780   0.50378   0.00000  Uiso   1.00
H1438  H     0.59726   0.98803   0.47929   0.00000  Uiso   1.00
H1439  H     0.56050   0.93266   0.51710   0.00000  Uiso   1.00
H1440  H     0.52443   0.96431   0.48927   0.00000  Uiso   1.00
H1441  H     0.66792   0.99863   0.37877   0.00000  Uiso   1.00
H1442  H     0.52912   0.97250   0.54092   0.00000  Uiso   1.00
H1443  H     0.60596   0.83029   0.45468   0.00000  Uiso   1.00
H1444  H     0.59996   0.86689   0.49471   0.00000  Uiso   1.00
H1445  H     0.59990   0.88606   0.40724   0.00000  Uiso   1.00
H1446  H     0.58470   0.92364   0.44351   0.00000  Uiso   1.00
H1447  H     0.65522   0.91826   0.47505   0.00000  Uiso   1.00
H1448  H     0.65993   0.93206   0.42460   0.00000  Uiso   1.00
H1449  H     0.67087   0.87903   0.43973   0.00000  Uiso   1.00
H1450  H     0.99068   0.59758   0.57293   0.00000  Uiso   1.00
H1451  H     0.51054   0.64863   0.58090   0.00000  Uiso   1.00
H1452  H     0.83198   0.99741   0.62218   0.00000  Uiso   1.00
H1453  H     0.52508   0.59307   0.50876   0.00000  Uiso   1.00
H1454  H     0.54297   0.64654   0.51256   0.00000  Uiso   1.00
H1455  H     0.58381   0.62920   0.57247   0.00000  Uiso   1.00
H1456  H     0.59997   0.59998   0.53065   0.00000  Uiso   1.00
H1457  H     0.56810   0.57483   0.56723   0.00000  Uiso   1.00
H1458  H     0.67843   0.59904   0.44085   0.00000  Uiso   1.00
H1459  H     0.65619   0.60443   0.48886   0.00000  Uiso   1.00
H1460  H     0.60851   0.60132   0.41082   0.00000  Uiso   1.00
H1461  H     0.58316   0.60013   0.45737   0.00000  Uiso   1.00
H1462  H     0.61508   0.66956   0.47448   0.00000  Uiso   1.00
H1463  H     0.81448   0.94697   0.61948   0.00000  Uiso   1.00
H1464  H     0.58427   0.67235   0.43057   0.00000  Uiso   1.00
H1465  H     0.64100   0.67093   0.42772   0.00000  Uiso   1.00
H1466  H     0.90319   0.50189   0.56857   0.00000  Uiso   1.00
H1467  H     0.86763   0.53312   0.54097   0.00000  Uiso   1.00
H1468  H     0.93263   0.97241   0.50408   0.00000  Uiso   1.00
H1469  H     0.90200   0.51209   0.47991   0.00000  Uiso   1.00
H1470  H     0.93870   0.56757   0.51794   0.00000  Uiso   1.00
H1471  H     0.97480   0.53611   0.48996   0.00000  Uiso   1.00
H1472  H     0.97047   0.52793   0.54158   0.00000  Uiso   1.00
H1473  H     0.71398   0.86192   0.91032   0.00000  Uiso   1.00
H1474  H     0.94135   0.68985   0.38006   0.00000  Uiso   1.00
H1475  H     0.69778   0.91406   0.92166   0.00000  Uiso   1.00
H1476  H     0.67904   0.83596   0.97029   0.00000  Uiso   1.00
H1477  H     0.66289   0.88930   0.98115   0.00000  Uiso   1.00
H1478  H     0.62306   0.89158   0.91793   0.00000  Uiso   1.00
H1479  H     0.60451   0.85040   0.94907   0.00000  Uiso   1.00
H1480  H     0.63804   0.83768   0.90860   0.00000  Uiso   1.00
H1481  H     0.69141   0.60765   0.06028   0.00000  Uiso   1.00
H1482  H     0.69509   0.63553   0.01464   0.00000  Uiso   1.00
H1483  H     0.73176   0.66931   0.09140   0.00000  Uiso   1.00
H1484  H     0.72548   0.69677   0.04614   0.00000  Uiso   1.00
N1485  N     0.53323   0.81968   0.39705   0.00000  Uiso   1.00
N1486  N     0.74054   0.92328   0.10221   0.00000  Uiso   1.00
N1487  N     0.92383   0.73909   0.89635   0.00000  Uiso   1.00
N1488  N     0.57458   0.73223   0.10238   0.00000  Uiso   1.00
N1489  N     0.77701   0.92842   0.89784   0.00000  Uiso   1.00
N1490  N     0.75683   0.57623   0.10379   0.00000  Uiso   1.00
N1491  N     0.57650   0.76238   0.89752   0.00000  Uiso   1.00
N1492  N     0.92300   0.76293   0.10322   0.00000  Uiso   1.00
N1493  N     0.94607   0.69376   0.60076   0.00000  Uiso   1.00
N1494  N     0.67664   0.52419   0.39608   0.00000  Uiso   1.00
N1495  N     0.82252   0.97344   0.60330   0.00000  Uiso   1.00
N1496  N     0.96719   0.68018   0.39658   0.00000  Uiso   1.00
N1497  N     0.55365   0.80663   0.60143   0.00000  Uiso   1.00
N1498  N     0.82329   0.97585   0.39634   0.00000  Uiso   1.00
N1499  N     0.67734   0.52618   0.60311   0.00000  Uiso   1.00
N1500  N     0.72816   0.57509   0.89767   0.00000  Uiso   1.00
O1501  O     0.75000   0.50000   0.25000   0.00000  Uiso   1.00
O1502  O     0.75000   0.96538   0.66251   0.00000  Uiso   1.00
O1503  O     0.96538   0.75000   0.33749   0.00000  Uiso   1.00
O1504  O     0.53461   0.75000   0.66251   0.00000  Uiso   1.00
O1505  O     0.50000   0.71538   0.83749   0.00000  Uiso   1.00
O1506  O     0.50000   0.78461   0.16251   0.00000  Uiso   1.00
O1507  O     0.78461   0.50000   0.83749   0.00000  Uiso   1.00
O1508  O     0.71538   0.50000   0.16251   0.00000  Uiso   1.00
O1509  O     0.50000   0.78461   0.83749   0.00000  Uiso   1.00
O1510  O     0.50000   0.71538   0.16251   0.00000  Uiso   1.00
O1511  O     0.71538   0.50000   0.83749   0.00000  Uiso   1.00
O1512  O     0.75000   0.50000   0.75000   0.00000  Uiso   1.00
O1513  O     0.78461   0.50000   0.16251   0.00000  Uiso   1.00
O1514  O     0.70126   0.58332   0.27298   0.00000  Uiso   1.00
O1515  O     0.79873   0.91668   0.72702   0.00000  Uiso   1.00
O1516  O     0.91668   0.70126   0.27298   0.00000  Uiso   1.00
O1517  O     0.58332   0.79873   0.72702   0.00000  Uiso   1.00
O1518  O     0.79873   0.91668   0.27298   0.00000  Uiso   1.00
O1519  O     0.70126   0.58332   0.72702   0.00000  Uiso   1.00
O1520  O     0.58332   0.79873   0.27298   0.00000  Uiso   1.00
O1521  O     0.91668   0.70126   0.72702   0.00000  Uiso   1.00
O1522  O     0.70126   0.91668   0.72702   0.00000  Uiso   1.00
O1523  O     0.50000   0.75000   0.25000   0.00000  Uiso   1.00
O1524  O     0.79873   0.58332   0.27298   0.00000  Uiso   1.00
O1525  O     0.91668   0.79873   0.72702   0.00000  Uiso   1.00
O1526  O     0.58332   0.70126   0.27298   0.00000  Uiso   1.00
O1527  O     0.79873   0.58332   0.72702   0.00000  Uiso   1.00
O1528  O     0.70126   0.91668   0.27298   0.00000  Uiso   1.00
O1529  O     0.58332   0.70126   0.72702   0.00000  Uiso   1.00
O1530  O     0.91668   0.79873   0.27298   0.00000  Uiso   1.00
O1531  O     0.95126   0.83332   0.77298   0.00000  Uiso   1.00
O1532  O     0.54873   0.66668   0.22702   0.00000  Uiso   1.00
O1533  O     0.66668   0.95126   0.77298   0.00000  Uiso   1.00
O1534  O     0.50000   0.75000   0.75000   0.00000  Uiso   1.00
O1535  O     0.83332   0.54873   0.22702   0.00000  Uiso   1.00
O1536  O     0.54873   0.66668   0.77298   0.00000  Uiso   1.00
O1537  O     0.95126   0.83332   0.22702   0.00000  Uiso   1.00
O1538  O     0.83332   0.54873   0.77298   0.00000  Uiso   1.00
O1539  O     0.66668   0.95126   0.22702   0.00000  Uiso   1.00
O1540  O     0.95126   0.66668   0.22702   0.00000  Uiso   1.00
O1541  O     0.54873   0.83332   0.77298   0.00000  Uiso   1.00
O1542  O     0.66668   0.54873   0.22702   0.00000  Uiso   1.00
O1543  O     0.83332   0.95126   0.77298   0.00000  Uiso   1.00
O1544  O     0.54873   0.83332   0.22702   0.00000  Uiso   1.00
O1545  O     0.75000   0.96538   0.33749   0.00000  Uiso   1.00
O1546  O     0.95126   0.66668   0.77298   0.00000  Uiso   1.00
O1547  O     0.83332   0.95126   0.22702   0.00000  Uiso   1.00
O1548  O     0.66668   0.54873   0.77298   0.00000  Uiso   1.00
O1549  O     0.95459   0.64396   0.46135   0.00000  Uiso   1.00
O1550  O     0.53852   0.85780   0.54032   0.00000  Uiso   1.00
O1551  O     0.85497   0.95243   0.46101   0.00000  Uiso   1.00
O1552  O     0.63934   0.53310   0.53785   0.00000  Uiso   1.00
O1553  O     0.54582   0.85600   0.46202   0.00000  Uiso   1.00
O1554  O     0.96171   0.64242   0.53972   0.00000  Uiso   1.00
O1555  O     0.64482   0.54731   0.46078   0.00000  Uiso   1.00
O1556  O     0.75000   0.53461   0.66251   0.00000  Uiso   1.00
O1557  O     0.86053   0.96673   0.53819   0.00000  Uiso   1.00
O1558  O     0.74432   0.88598   0.95808   0.00000  Uiso   1.00
O1559  O     0.75213   0.61579   0.03870   0.00000  Uiso   1.00
O1560  O     0.61444   0.76813   0.96323   0.00000  Uiso   1.00
O1561  O     0.88485   0.73858   0.03981   0.00000  Uiso   1.00
O1562  O     0.75681   0.61575   0.96078   0.00000  Uiso   1.00
O1563  O     0.74666   0.88477   0.03629   0.00000  Uiso   1.00
O1564  O     0.88501   0.73559   0.96118   0.00000  Uiso   1.00
O1565  O     0.61340   0.76822   0.04190   0.00000  Uiso   1.00
O1566  O     0.53461   0.75000   0.33749   0.00000  Uiso   1.00
O1567  O     0.96538   0.75000   0.66251   0.00000  Uiso   1.00
O1568  O     0.75000   0.53461   0.33749   0.00000  Uiso   1.00
Zn1569 Zn    0.70052   0.50000   0.21730   0.00000  Uiso   1.00
Zn1570 Zn    0.54947   0.75000   0.28270   0.00000  Uiso   1.00
Zn1571 Zn    0.75000   0.95052   0.71730   0.00000  Uiso   1.00
Zn1572 Zn    0.75000   0.54947   0.28270   0.00000  Uiso   1.00
Zn1573 Zn    0.54947   0.75000   0.71730   0.00000  Uiso   1.00
Zn1574 Zn    0.95052   0.75000   0.28270   0.00000  Uiso   1.00
Zn1575 Zn    0.75000   0.54947   0.71730   0.00000  Uiso   1.00
Zn1576 Zn    0.75000   0.95052   0.28270   0.00000  Uiso   1.00
Zn1577 Zn    0.79947   0.50000   0.78270   0.00000  Uiso   1.00
Zn1578 Zn    0.50000   0.70052   0.21730   0.00000  Uiso   1.00
Zn1579 Zn    0.50000   0.79947   0.78270   0.00000  Uiso   1.00
Zn1580 Zn    0.79947   0.50000   0.21730   0.00000  Uiso   1.00
Zn1581 Zn    0.70052   0.50000   0.78270   0.00000  Uiso   1.00
Zn1582 Zn    0.50000   0.79947   0.21730   0.00000  Uiso   1.00
Zn1583 Zn    0.50000   0.70052   0.78270   0.00000  Uiso   1.00
Zn1584 Zn    0.95052   0.75000   0.71730   0.00000  Uiso   1.00
loop_
_geom_bond_atom_site_label_1
_geom_bond_atom_site_label_2
_geom_bond_distance
_geom_bond_site_symmetry_2
_ccdc_geom_bond_type
C1     O380    1.270   .     A
C1     C108    1.451   .     S
C1     O1149   1.269   1_545 S
C2     C84     1.425   .     S
C2     O327    1.275   .     A
C2     O355    1.276   .     A
C3     C127    1.411   .     A
C3     O373    1.384   .     S
C3     C6      1.402   1_554 S
C4     C128    1.413   .     A
C4     O374    1.389   .     S
C4     C151    1.400   1_556 S
C5     C129    1.424   .     A
C5     O375    1.383   .     S
C5     C150    1.401   1_554 S
C6     C130    1.422   .     A
C6     O376    1.384   .     S
C6     C3      1.402   1_556 S
C7     C132    1.413   .     A
C7     O377    1.392   .     S
C7     C152    1.404   1_554 S
C8     H224    1.116   .     S
C8     O361    1.414   .     S
C8     H225    1.112   .     S
C8     C9      1.529   .     S
C9     H226    1.112   .     S
C9     C10     1.527   .     S
C9     H227    1.110   .     S
C10    H230    1.111   .     S
C10    H228    1.111   .     S
C10    H229    1.110   .     S
C11    O362    1.423   .     S
C11    H232    1.110   .     S
C11    C408    1.535   1_455 S
C11    H629    1.107   1_455 S
C12    H235    1.110   .     S
C12    H234    1.109   .     S
C12    C14     1.522   .     S
C12    C407    1.535   .     S
C13    C83     1.424   .     S
C13    O328    1.277   .     A
C13    O352    1.277   .     A
C14    H237    1.103   .     S
C14    H238    1.110   .     S
C14    H236    1.111   .     S
C15    H239    1.114   .     S
C15    O363    1.413   .     S
C15    H240    1.114   .     S
C15    C16     1.530   .     S
C16    C17     1.526   .     S
C16    H241    1.112   .     S
C16    H243    1.111   .     S
C17    H245    1.111   .     S
C17    H244    1.111   .     S
C17    H246    1.111   .     S
C18    H247    1.111   .     S
C18    C19     1.533   .     S
C18    H248    1.118   .     S
C18    O1156   1.417   .     S
C19    C20     1.522   .     S
C19    H250    1.109   .     S
C19    H1041   1.110   .     S
C20    H252    1.110   .     S
C20    H254    1.110   .     S
C20    H251    1.108   .     S
C21    O365    1.414   .     S
C21    H256    1.112   .     S
C21    C22     1.530   .     S
C21    H255    1.116   .     S
C22    H257    1.112   .     S
C22    C23     1.527   .     S
C22    H258    1.110   .     S
C23    H261    1.111   .     S
C23    H260    1.110   .     S
C23    H259    1.111   .     S
C24    C82     1.424   .     S
C24    O353    1.277   .     A
C24    O329    1.277   .     A
C25    H262    1.110   .     S
C25    O366    1.423   .     S
C25    C422    1.535   .     S
C25    H659    1.107   .     S
C26    H266    1.110   .     S
C26    C27     1.522   .     S
C26    H265    1.109   .     S
C26    C421    1.535   1_455 S
C27    H268    1.103   .     S
C27    H269    1.110   .     S
C27    H267    1.111   .     S
C28    H270    1.114   .     S
C28    O367    1.413   .     S
C28    C29     1.529   .     S
C28    H271    1.114   .     S
C29    H273    1.111   .     S
C29    C30     1.526   .     S
C29    H272    1.112   .     S
C30    H276    1.111   .     S
C30    H274    1.111   .     S
C30    H277    1.111   .     S
C31    C32     1.533   .     S
C31    H278    1.111   .     S
C31    H279    1.118   .     S
C31    O1161   1.418   1_545 S
C32    H281    1.109   .     S
C32    C33     1.521   .     S
C32    H1072   1.110   1_545 S
C33    H283    1.110   .     S
C33    H282    1.108   .     S
C33    H284    1.110   .     S
C34    H285    1.111   .     S
C34    O370    1.422   .     S
C34    C36     1.519   .     S
C34    H287    1.112   .     S
C35    O359    1.279   .     A
C35    C81     1.426   .     S
C35    O330    1.278   .     A
C36    H288    1.109   .     S
C36    C37     1.528   .     S
C36    H289    1.110   .     S
C37    H290    1.111   .     S
C37    H292    1.111   .     S
C37    H291    1.109   .     S
C38    H293    1.115   .     S
C38    O371    1.413   .     S
C38    C39     1.529   .     S
C38    H294    1.114   .     S
C39    C40     1.526   .     S
C39    H295    1.112   .     S
C39    H296    1.112   .     S
C40    H157    1.111   .     S
C40    H155    1.109   .     S
C40    H156    1.110   .     S
C41    C42     1.528   .     S
C41    O372    1.413   .     S
C41    H159    1.111   .     S
C41    H158    1.115   .     S
C42    H161    1.110   .     S
C42    H160    1.111   .     S
C42    C43     1.525   .     S
C43    H164    1.111   .     S
C43    H162    1.110   .     S
C43    H163    1.110   .     S
C44    O373    1.412   .     S
C44    H167    1.107   .     S
C44    C45     1.526   .     S
C44    H166    1.114   .     S
C45    C47     1.523   .     S
C45    H169    1.112   .     S
C45    H168    1.111   .     S
C46    O360    1.279   .     A
C46    C80     1.426   .     S
C46    O331    1.278   .     A
C47    H171    1.109   .     S
C47    H172    1.111   .     S
C47    H170    1.110   .     S
C48    H174    1.113   .     S
C48    O374    1.420   .     S
C48    C49     1.527   .     S
C48    H173    1.111   .     S
C49    H177    1.111   .     S
C49    H175    1.111   .     S
C49    C50     1.530   .     S
C50    H178    1.111   .     S
C50    H179    1.108   .     S
C50    H180    1.111   .     S
C51    C52     1.528   .     S
C51    H181    1.116   .     S
C51    O375    1.414   .     S
C51    H182    1.114   .     S
C52    H184    1.112   .     S
C52    C53     1.525   .     S
C52    H183    1.112   .     S
C53    H186    1.109   .     S
C53    H188    1.111   .     S
C53    H185    1.110   .     S
C54    H189    1.115   .     S
C54    O376    1.412   .     S
C54    C55     1.528   .     S
C54    H190    1.112   .     S
C55    H191    1.112   .     S
C55    H192    1.111   .     S
C55    C56     1.525   .     S
C56    H195    1.111   .     S
C56    H194    1.110   .     S
C56    H193    1.110   .     S
C57    O356    1.276   .     A
C57    O332    1.278   .     A
C57    C88     1.424   .     S
C58    O377    1.422   .     S
C58    H196    1.111   .     S
C58    H197    1.115   .     S
C58    C59     1.519   .     S
C59    C60     1.526   .     S
C59    H200    1.108   .     S
C59    H199    1.111   .     S
C60    H202    1.110   .     S
C60    H201    1.111   .     S
C60    H203    1.111   .     S
C61    O358    1.276   .     A
C61    O333    1.278   .     A
C61    C86     1.424   .     S
C62    C77     1.424   .     S
C62    O334    1.277   .     A
C62    O345    1.277   .     A
C63    C75     1.424   .     S
C63    O347    1.277   .     A
C63    O336    1.277   .     A
C64    O337    1.276   .     A
C64    C74     1.425   .     S
C64    O343    1.275   .     A
C65    C110    1.461   .     S
C65    O314    1.272   .     A
C65    O1160   1.272   .     S
C66    O338    1.276   .     A
C66    C73     1.425   .     S
C66    O344    1.275   .     A
C67    C72     1.424   .     S
C67    O350    1.278   .     A
C67    O339    1.276   .     A
C68    C71     1.424   .     S
C68    O351    1.278   .     A
C68    O340    1.276   .     A
C69    C79     1.426   .     S
C69    O348    1.278   .     A
C69    O341    1.279   .     A
C70    O342    1.279   .     A
C70    O349    1.278   .     A
C70    C78     1.426   .     S
C71    C88     1.199   .     T
C72    C86     1.199   .     T
C73    C85     1.200   .     T
C74    C84     1.200   .     T
C75    C83     1.199   .     T
C76    C106    1.461   .     S
C76    O378    1.270   .     A
C76    O711    1.270   1_455 S
C77    C82     1.199   .     T
C78    C81     1.200   .     T
C79    C80     1.200   .     T
C85    C142    1.425   .     S
C87    O379    1.270   .     A
C87    C107    1.457   .     S
C87    O712    1.269   .     S
C89    N297    1.438   .     S
C89    C106    1.406   .     A
C89    C119    1.412   .     A
C90    C107    1.407   .     A
C90    C121    1.406   .     A
C90    N305    1.439   .     S
C91    C122    1.410   .     A
C91    C108    1.401   .     A
C91    N306    1.439   .     S
C92    C123    1.413   .     A
C92    N307    1.438   .     S
C92    C110    1.404   .     A
C93    N308    1.438   .     S
C93    C115    1.412   .     A
C93    C502    1.406   .     S
C94    N309    1.439   .     S
C94    C116    1.406   .     A
C94    C503    1.407   1_455 S
C95    N310    1.439   .     S
C95    C117    1.410   .     A
C95    C900    1.401   .     S
C96    N311    1.438   .     S
C96    C118    1.414   .     A
C96    C902    1.404   1_545 S
C97    C128    1.411   .     A
C97    N312    1.438   .     S
C97    C111    1.403   .     A
C98    O317    1.274   .     A
C98    O321    1.273   .     A
C98    C113    1.467   .     S
C99    C129    1.417   .     A
C99    N298    1.437   .     S
C99    C112    1.406   .     A
C100   C130    1.415   .     A
C100   N299    1.437   .     S
C100   C509    1.405   .     S
C101   C132    1.408   .     A
C101   N300    1.438   .     S
C101   C510    1.398   1_455 S
C102   C124    1.407   .     A
C102   N301    1.439   .     S
C102   C903    1.399   .     S
C103   N302    1.436   .     S
C103   C125    1.415   .     A
C103   C904    1.405   1_545 S
C104   C113    1.407   .     A
C104   N303    1.437   .     S
C104   C126    1.417   .     A
C105   C127    1.412   .     A
C105   C114    1.401   .     A
C105   N304    1.438   .     S
C106   C489    1.406   1_455 S
C107   C490    1.407   .     S
C108   C887    1.401   1_545 S
C109   C114    1.450   .     S
C109   O714    1.271   .     S
C109   O718    1.268   .     S
C110   C888    1.404   .     S
C111   C120    1.451   .     S
C111   C894    1.399   1_545 S
C112   C131    1.467   .     S
C112   C895    1.405   .     S
C113   C496    1.405   1_455 S
C114   C497    1.398   .     S
C115   C141    1.421   .     A
C115   C529    1.423   .     S
C116   C134    1.412   .     A
C116   C143    1.409   .     A
C117   C135    1.421   .     A
C117   C144    1.411   .     A
C118   C145    1.415   .     A
C118   C928    1.421   1_545 S
C119   C146    1.421   .     A
C119   C133    1.423   .     A
C120   O319    1.265   .     A
C120   O323    1.269   .     A
C121   C147    1.408   .     A
C121   C530    1.411   .     S
C122   C148    1.411   .     A
C122   C927    1.421   1_545 S
C123   C149    1.415   .     A
C123   C136    1.421   .     A
C124   C150    1.412   .     A
C124   C929    1.416   .     S
C125   C138    1.423   .     A
C125   C151    1.422   .     A
C126   C152    1.425   .     A
C126   C535    1.425   1_455 S
C127   C140    1.418   .     A
C128   C137    1.417   .     A
C129   C930    1.423   .     S
C130   C139    1.425   .     A
C131   O1112   1.270   .     S
C131   O1117   1.272   .     S
C132   C536    1.417   1_455 S
C133   C134    1.412   .     A
C133   C511    1.423   1_455 S
C134   C517    1.411   1_455 S
C135   C136    1.419   .     A
C135   C914    1.421   .     S
C136   C910    1.421   .     S
C137   C916    1.416   1_545 S
C137   C138    1.414   1_556 S
C138   C921    1.423   1_545 S
C138   C137    1.414   1_554 S
C139   C522    1.425   .     S
C139   C140    1.415   1_556 S
C140   C528    1.417   .     S
C140   C139    1.415   1_554 S
C141   C147    1.402   .     A
C141   O361    1.385   .     S
C142   O354    1.276   .     A
C142   O326    1.275   .     A
C143   O362    1.389   .     S
C143   C146    1.402   .     A
C144   O363    1.383   .     S
C144   C149    1.396   .     A
C145   C148    1.397   .     A
C145   O364    1.382   .     S
C146   O365    1.385   .     S
C147   O366    1.389   .     S
C148   O367    1.383   .     S
C149   O369    1.382   .     S
C150   O370    1.391   .     S
C150   C5      1.401   1_556 S
C151   O371    1.383   .     S
C151   C4      1.400   1_554 S
C152   O372    1.385   .     S
C152   C7      1.404   1_556 S
H153   N297    1.045   .     S
H154   N308    1.046   .     S
H165   N309    1.045   .     S
H176   N309    1.045   .     S
H187   N310    1.045   .     S
H198   N1102   1.046   1_545 S
H204   N311    1.046   .     S
H205   N311    1.045   .     S
H206   N312    1.046   .     S
H207   N312    1.045   .     S
H208   N298    1.046   .     S
H209   N297    1.046   .     S
H210   N298    1.045   .     S
H211   N299    1.046   .     S
H212   N299    1.045   .     S
H213   N300    1.045   .     S
H214   N300    1.045   .     S
H215   N301    1.046   .     S
H216   N301    1.045   .     S
H217   N302    1.046   .     S
H218   N302    1.045   .     S
H219   N303    1.046   .     S
H220   N305    1.045   .     S
H221   N303    1.045   .     S
H222   N304    1.046   .     S
H223   N304    1.045   .     S
H231   N305    1.045   .     S
H233   C407    1.107   .     S
H242   N306    1.045   .     S
H249   C811    1.110   1_545 S
H253   N1098   1.046   .     S
H263   C421    1.107   1_455 S
H264   N307    1.046   .     S
H275   N307    1.045   .     S
H280   C824    1.110   .     S
H286   N308    1.045   .     S
N306   H1045   1.046   1_545 S
N310   H990    1.046   .     S
O313   Zn392   1.937   .     S
O313   Zn384   1.936   .     S
O313   Zn381   1.932   .     S
O313   Zn1180  1.942   1_545 S
O314   Zn383   1.949   .     S
O315   Zn386   1.946   .     S
O315   C472    1.270   .     S
O316   Zn385   1.946   .     S
O316   C483    1.269   1_455 S
O317   Zn395   1.946   .     S
O318   Zn394   1.946   .     S
O318   C505    1.271   1_455 S
O319   Zn389   1.948   .     S
O320   Zn381   1.948   .     S
O320   C923    1.270   1_545 S
O321   Zn391   1.949   .     S
O322   Zn390   1.949   .     S
O322   C505    1.268   1_455 S
O323   Zn393   1.946   .     S
O324   Zn393   1.937   .     S
O324   Zn387   1.942   .     S
O324   Zn389   1.932   .     S
O324   Zn1175  1.936   1_545 S
O325   Zn392   1.946   .     S
O325   C923    1.272   1_545 S
O326   Zn384   1.917   .     S
O327   Zn383   1.917   .     S
O328   Zn386   1.917   .     S
O329   Zn385   1.917   .     S
O330   Zn388   1.918   .     S
O331   Zn387   1.918   .     S
O332   Zn382   1.920   .     S
O333   Zn396   1.920   .     S
O334   Zn383   1.918   .     S
O335   Zn382   1.932   .     S
O335   Zn390   1.936   .     S
O335   Zn394   1.942   .     S
O335   Zn782   1.937   1_455 S
O336   Zn384   1.918   .     S
O337   Zn396   1.919   .     S
O338   Zn382   1.919   .     S
O339   Zn387   1.915   .     S
O340   Zn388   1.915   .     S
O341   Zn385   1.920   .     S
O342   Zn386   1.920   .     S
O343   Zn787   1.917   .     S
O344   Zn390   1.917   .     S
O345   Zn1185  1.917   .     S
O346   Zn395   1.942   .     S
O346   Zn385   1.937   .     S
O346   Zn391   1.936   .     S
O346   Zn792   1.932   1_455 S
O347   Zn392   1.917   .     S
O348   Zn395   1.918   .     S
O349   Zn790   1.918   .     S
O350   Zn389   1.920   .     S
O351   Zn1173  1.920   .     S
O352   Zn786   1.918   .     S
O353   Zn391   1.918   .     S
O354   Zn381   1.919   .     S
O355   Zn1181  1.919   .     S
O356   Zn394   1.915   .     S
O357   Zn388   1.946   .     S
O357   C793    1.269   .     S
O358   Zn791   1.915   .     S
O359   Zn1184  1.920   .     S
O360   Zn393   1.920   .     S
O364   C810    1.417   1_545 S
O368   Zn387   1.946   .     S
O368   C857    1.272   1_545 S
O369   C823    1.418   .     S
O378   Zn382   1.948   .     S
O379   Zn396   1.948   .     S
O380   Zn384   1.949   .     S
Zn381  O1143   1.920   1_545 S
Zn383  O1116   1.936   .     S
Zn386  O731    1.937   .     S
Zn388  O1105   1.942   .     S
Zn389  O1147   1.919   1_545 S
Zn390  O748    1.918   1_455 S
Zn391  O739    1.917   1_455 S
Zn392  O1151   1.920   1_545 S
Zn393  O1137   1.917   1_545 S
Zn394  O745    1.918   1_455 S
Zn395  O754    1.915   1_455 S
Zn396  O742    1.932   .     S
C397   O776    1.270   .     A
C397   C504    1.451   .     S
C397   O1545   1.269   1_545 S
C398   C480    1.425   .     S
C398   O723    1.275   .     A
C398   O751    1.276   .     A
C399   C523    1.411   .     A
C399   O769    1.384   .     S
C399   C402    1.402   1_554 S
C400   C524    1.413   .     A
C400   O770    1.389   .     S
C400   C547    1.400   1_556 S
C401   C525    1.424   .     A
C401   O771    1.383   .     S
C401   C546    1.401   1_554 S
C402   C526    1.422   .     A
C402   O772    1.384   .     S
C402   C399    1.402   1_556 S
C403   C528    1.413   .     A
C403   O773    1.392   .     S
C403   C548    1.404   1_554 S
C404   H620    1.116   .     S
C404   O757    1.414   .     S
C404   H621    1.112   .     S
C404   C405    1.529   .     S
C405   H622    1.112   .     S
C405   C406    1.527   .     S
C405   H623    1.110   .     S
C406   H626    1.111   .     S
C406   H624    1.111   .     S
C406   H625    1.110   .     S
C407   O758    1.423   .     S
C407   H628    1.110   .     S
C408   H631    1.110   .     S
C408   H630    1.109   .     S
C408   C410    1.522   .     S
C408   C11     1.535   1_655 S
C409   C479    1.424   .     S
C409   O724    1.277   .     A
C409   O748    1.277   .     A
C410   H633    1.103   .     S
C410   H634    1.110   .     S
C410   H632    1.111   .     S
C411   H635    1.114   .     S
C411   O759    1.413   .     S
C411   H636    1.114   .     S
C411   C412    1.530   .     S
C412   C413    1.526   .     S
C412   H637    1.112   .     S
C412   H639    1.111   .     S
C413   H641    1.111   .     S
C413   H640    1.111   .     S
C413   H642    1.111   .     S
C414   H643    1.111   .     S
C414   C415    1.533   .     S
C414   H644    1.118   .     S
C414   O1552   1.417   .     S
C415   C416    1.522   .     S
C415   H646    1.109   .     S
C415   H1437   1.110   .     S
C416   H648    1.110   .     S
C416   H650    1.110   .     S
C416   H647    1.108   .     S
C417   O761    1.414   .     S
C417   H652    1.112   .     S
C417   C418    1.530   .     S
C417   H651    1.116   .     S
C418   H653    1.112   .     S
C418   C419    1.527   .     S
C418   H654    1.110   .     S
C419   H657    1.111   .     S
C419   H656    1.110   .     S
C419   H655    1.111   .     S
C420   C478    1.424   .     S
C420   O749    1.277   .     A
C420   O725    1.277   .     A
C421   H658    1.110   .     S
C421   O762    1.423   .     S
C421   C26     1.535   1_655 S
C421   H263    1.107   1_655 S
C422   H662    1.110   .     S
C422   C423    1.522   .     S
C422   H661    1.109   .     S
C423   H664    1.103   .     S
C423   H665    1.110   .     S
C423   H663    1.111   .     S
C424   H666    1.114   .     S
C424   O763    1.413   .     S
C424   C425    1.529   .     S
C424   H667    1.114   .     S
C425   H669    1.111   .     S
C425   C426    1.526   .     S
C425   H668    1.112   .     S
C426   H672    1.111   .     S
C426   H670    1.111   .     S
C426   H673    1.111   .     S
C427   C428    1.533   .     S
C427   H674    1.111   .     S
C427   H675    1.118   .     S
C427   O1557   1.418   1_545 S
C428   H677    1.109   .     S
C428   C429    1.521   .     S
C428   H1468   1.110   1_545 S
C429   H679    1.110   .     S
C429   H678    1.108   .     S
C429   H680    1.110   .     S
C430   H681    1.111   .     S
C430   O766    1.422   .     S
C430   C432    1.519   .     S
C430   H683    1.112   .     S
C431   O755    1.279   .     A
C431   C477    1.426   .     S
C431   O726    1.278   .     A
C432   H684    1.109   .     S
C432   C433    1.528   .     S
C432   H685    1.110   .     S
C433   H686    1.111   .     S
C433   H688    1.111   .     S
C433   H687    1.109   .     S
C434   H689    1.115   .     S
C434   O767    1.413   .     S
C434   C435    1.529   .     S
C434   H690    1.114   .     S
C435   C436    1.526   .     S
C435   H691    1.112   .     S
C435   H692    1.112   .     S
C436   H553    1.111   .     S
C436   H551    1.109   .     S
C436   H552    1.110   .     S
C437   C438    1.528   .     S
C437   O768    1.413   .     S
C437   H555    1.111   .     S
C437   H554    1.115   .     S
C438   H557    1.110   .     S
C438   H556    1.111   .     S
C438   C439    1.525   .     S
C439   H560    1.111   .     S
C439   H558    1.110   .     S
C439   H559    1.110   .     S
C440   O769    1.412   .     S
C440   H563    1.107   .     S
C440   C441    1.526   .     S
C440   H562    1.114   .     S
C441   C443    1.523   .     S
C441   H565    1.112   .     S
C441   H564    1.111   .     S
C442   O756    1.279   .     A
C442   C476    1.426   .     S
C442   O727    1.278   .     A
C443   H567    1.109   .     S
C443   H568    1.111   .     S
C443   H566    1.110   .     S
C444   H570    1.113   .     S
C444   O770    1.420   .     S
C444   C445    1.527   .     S
C444   H569    1.111   .     S
C445   H573    1.111   .     S
C445   H571    1.111   .     S
C445   C446    1.530   .     S
C446   H574    1.111   .     S
C446   H575    1.108   .     S
C446   H576    1.111   .     S
C447   C448    1.528   .     S
C447   H577    1.116   .     S
C447   O771    1.414   .     S
C447   H578    1.114   .     S
C448   H580    1.112   .     S
C448   C449    1.525   .     S
C448   H579    1.112   .     S
C449   H582    1.109   .     S
C449   H584    1.111   .     S
C449   H581    1.110   .     S
C450   H585    1.115   .     S
C450   O772    1.412   .     S
C450   C451    1.528   .     S
C450   H586    1.112   .     S
C451   H587    1.112   .     S
C451   H588    1.111   .     S
C451   C452    1.525   .     S
C452   H591    1.111   .     S
C452   H590    1.110   .     S
C452   H589    1.110   .     S
C453   O752    1.276   .     A
C453   O728    1.278   .     A
C453   C484    1.424   .     S
C454   O773    1.422   .     S
C454   H592    1.111   .     S
C454   H593    1.115   .     S
C454   C455    1.519   .     S
C455   C456    1.526   .     S
C455   H596    1.108   .     S
C455   H595    1.111   .     S
C456   H598    1.110   .     S
C456   H597    1.111   .     S
C456   H599    1.111   .     S
C457   O754    1.276   .     A
C457   O729    1.278   .     A
C457   C482    1.424   .     S
C458   C473    1.424   .     S
C458   O730    1.277   .     A
C458   O741    1.277   .     A
C459   C471    1.424   .     S
C459   O743    1.277   .     A
C459   O732    1.277   .     A
C460   O733    1.276   .     A
C460   C470    1.425   .     S
C460   O739    1.275   .     A
C461   C506    1.461   .     S
C461   O710    1.272   .     A
C461   O1556   1.272   .     S
C462   O734    1.276   .     A
C462   C469    1.425   .     S
C462   O740    1.275   .     A
C463   C468    1.424   .     S
C463   O746    1.278   .     A
C463   O735    1.276   .     A
C464   C467    1.424   .     S
C464   O747    1.278   .     A
C464   O736    1.276   .     A
C465   C475    1.426   .     S
C465   O744    1.278   .     A
C465   O737    1.279   .     A
C466   O738    1.279   .     A
C466   O745    1.278   .     A
C466   C474    1.426   .     S
C467   C484    1.199   .     T
C468   C482    1.199   .     T
C469   C481    1.200   .     T
C470   C480    1.200   .     T
C471   C479    1.199   .     T
C472   C502    1.461   .     S
C472   O774    1.270   .     A
C473   C478    1.199   .     T
C474   C477    1.200   .     T
C475   C476    1.200   .     T
C481   C538    1.425   .     S
C483   O775    1.270   .     A
C483   C503    1.457   .     S
C483   O316    1.269   1_655 S
C485   N693    1.438   .     S
C485   C502    1.406   .     A
C485   C515    1.412   .     A
C486   C503    1.407   .     A
C486   C517    1.406   .     A
C486   N701    1.439   .     S
C487   C518    1.410   .     A
C487   C504    1.401   .     A
C487   N702    1.439   .     S
C488   C519    1.413   .     A
C488   N703    1.438   .     S
C488   C506    1.404   .     A
C489   N704    1.438   .     S
C489   C511    1.412   .     A
C489   C106    1.406   1_655 S
C490   N705    1.439   .     S
C490   C512    1.406   .     A
C491   N706    1.439   .     S
C491   C513    1.410   .     A
C491   C1296   1.401   .     S
C492   N707    1.438   .     S
C492   C514    1.414   .     A
C492   C1298   1.404   1_545 S
C493   C524    1.411   .     A
C493   N708    1.438   .     S
C493   C507    1.403   .     A
C494   O713    1.274   .     A
C494   O717    1.273   .     A
C494   C509    1.467   .     S
C495   C525    1.417   .     A
C495   N694    1.437   .     S
C495   C508    1.406   .     A
C496   C526    1.415   .     A
C496   N695    1.437   .     S
C496   C113    1.405   1_655 S
C497   C528    1.408   .     A
C497   N696    1.438   .     S
C498   C520    1.407   .     A
C498   N697    1.439   .     S
C498   C1299   1.399   .     S
C499   N698    1.436   .     S
C499   C521    1.415   .     A
C499   C1300   1.405   1_545 S
C500   C509    1.407   .     A
C500   N699    1.437   .     S
C500   C522    1.417   .     A
C501   C523    1.412   .     A
C501   C510    1.401   .     A
C501   N700    1.438   .     S
C503   C94     1.407   1_655 S
C504   C1283   1.401   1_545 S
C505   C510    1.450   .     S
C505   O318    1.271   1_655 S
C505   O322    1.268   1_655 S
C506   C1284   1.404   .     S
C507   C516    1.451   .     S
C507   C1290   1.399   1_545 S
C508   C527    1.467   .     S
C508   C1291   1.405   .     S
C510   C101    1.398   1_655 S
C511   C537    1.421   .     A
C511   C133    1.423   1_655 S
C512   C530    1.412   .     A
C512   C539    1.409   .     A
C513   C531    1.421   .     A
C513   C540    1.411   .     A
C514   C541    1.415   .     A
C514   C1324   1.421   1_545 S
C515   C542    1.421   .     A
C515   C529    1.423   .     A
C516   O715    1.265   .     A
C516   O719    1.269   .     A
C517   C543    1.408   .     A
C517   C134    1.411   1_655 S
C518   C544    1.411   .     A
C518   C1323   1.421   1_545 S
C519   C545    1.415   .     A
C519   C532    1.421   .     A
C520   C546    1.412   .     A
C520   C1325   1.416   .     S
C521   C534    1.423   .     A
C521   C547    1.422   .     A
C522   C548    1.425   .     A
C523   C536    1.418   .     A
C524   C533    1.417   .     A
C525   C1326   1.423   .     S
C526   C535    1.425   .     A
C527   O1508   1.270   .     S
C527   O1513   1.272   .     S
C529   C530    1.412   .     A
C531   C532    1.419   .     A
C531   C1310   1.421   .     S
C532   C1306   1.421   .     S
C533   C1312   1.416   1_545 S
C533   C534    1.414   1_556 S
C534   C1317   1.423   1_545 S
C534   C533    1.414   1_554 S
C535   C126    1.425   1_655 S
C535   C536    1.415   1_556 S
C536   C132    1.417   1_655 S
C536   C535    1.415   1_554 S
C537   C543    1.402   .     A
C537   O757    1.385   .     S
C538   O750    1.276   .     A
C538   O722    1.275   .     A
C539   O758    1.389   .     S
C539   C542    1.402   .     A
C540   O759    1.383   .     S
C540   C545    1.396   .     A
C541   C544    1.397   .     A
C541   O760    1.382   .     S
C542   O761    1.385   .     S
C543   O762    1.389   .     S
C544   O763    1.383   .     S
C545   O765    1.382   .     S
C546   O766    1.391   .     S
C546   C401    1.401   1_556 S
C547   O767    1.383   .     S
C547   C400    1.400   1_554 S
C548   O768    1.385   .     S
C548   C403    1.404   1_556 S
H549   N693    1.045   .     S
H550   N704    1.046   .     S
H561   N705    1.045   .     S
H572   N705    1.045   .     S
H583   N706    1.045   .     S
H594   N1498   1.046   1_545 S
H600   N707    1.046   .     S
H601   N707    1.045   .     S
H602   N708    1.046   .     S
H603   N708    1.045   .     S
H604   N694    1.046   .     S
H605   N693    1.046   .     S
H606   N694    1.045   .     S
H607   N695    1.046   .     S
H608   N695    1.045   .     S
H609   N696    1.045   .     S
H610   N696    1.045   .     S
H611   N697    1.046   .     S
H612   N697    1.045   .     S
H613   N698    1.046   .     S
H614   N698    1.045   .     S
H615   N699    1.046   .     S
H616   N701    1.045   .     S
H617   N699    1.045   .     S
H618   N700    1.046   .     S
H619   N700    1.045   .     S
H627   N701    1.045   .     S
H629   C11     1.107   1_655 S
H638   N702    1.045   .     S
H645   C1207   1.110   1_545 S
H649   N1494   1.046   .     S
H660   N703    1.046   .     S
H671   N703    1.045   .     S
H676   C1220   1.110   .     S
H682   N704    1.045   .     S
N702   H1441   1.046   1_545 S
N706   H1386   1.046   .     S
O709   Zn788   1.937   .     S
O709   Zn780   1.936   .     S
O709   Zn777   1.932   .     S
O709   Zn1576  1.942   1_545 S
O710   Zn779   1.949   .     S
O711   Zn782   1.946   .     S
O711   C76     1.270   1_655 S
O712   Zn781   1.946   .     S
O713   Zn791   1.946   .     S
O714   Zn790   1.946   .     S
O715   Zn785   1.948   .     S
O716   Zn777   1.948   .     S
O716   C1319   1.270   1_545 S
O717   Zn787   1.949   .     S
O718   Zn786   1.949   .     S
O719   Zn789   1.946   .     S
O720   Zn789   1.937   .     S
O720   Zn783   1.942   .     S
O720   Zn785   1.932   .     S
O720   Zn1571  1.936   1_545 S
O721   Zn788   1.946   .     S
O721   C1319   1.272   1_545 S
O722   Zn780   1.917   .     S
O723   Zn779   1.917   .     S
O724   Zn782   1.917   .     S
O725   Zn781   1.917   .     S
O726   Zn784   1.918   .     S
O727   Zn783   1.918   .     S
O728   Zn778   1.920   .     S
O729   Zn792   1.920   .     S
O730   Zn779   1.918   .     S
O731   Zn778   1.932   .     S
O731   Zn786   1.936   .     S
O731   Zn790   1.942   .     S
O732   Zn780   1.918   .     S
O733   Zn792   1.919   .     S
O734   Zn778   1.919   .     S
O735   Zn783   1.915   .     S
O736   Zn784   1.915   .     S
O737   Zn781   1.920   .     S
O738   Zn782   1.920   .     S
O739   Zn391   1.917   1_655 S
O740   Zn786   1.917   .     S
O741   Zn1581  1.917   .     S
O742   Zn791   1.942   .     S
O742   Zn781   1.937   .     S
O742   Zn787   1.936   .     S
O743   Zn788   1.917   .     S
O744   Zn791   1.918   .     S
O745   Zn394   1.918   1_655 S
O746   Zn785   1.920   .     S
O747   Zn1569  1.920   .     S
O748   Zn390   1.918   1_655 S
O749   Zn787   1.918   .     S
O750   Zn777   1.919   .     S
O751   Zn1577  1.919   .     S
O752   Zn790   1.915   .     S
O753   Zn784   1.946   .     S
O753   C1189   1.269   .     S
O754   Zn395   1.915   1_655 S
O755   Zn1580  1.920   .     S
O756   Zn789   1.920   .     S
O760   C1206   1.417   1_545 S
O764   Zn783   1.946   .     S
O764   C1253   1.272   1_545 S
O765   C1219   1.418   .     S
O774   Zn778   1.948   .     S
O775   Zn792   1.948   .     S
O776   Zn780   1.949   .     S
Zn777  O1539   1.920   1_545 S
Zn779  O1512   1.936   .     S
Zn782  O335    1.937   1_655 S
Zn784  O1501   1.942   .     S
Zn785  O1543   1.919   1_545 S
Zn788  O1547   1.920   1_545 S
Zn789  O1533   1.917   1_545 S
Zn792  O346    1.932   1_655 S
C793   O1172   1.270   .     A
C793   C900    1.451   .     S
C794   C876    1.425   .     S
C794   O1119   1.275   .     A
C794   O1147   1.276   .     A
C795   C919    1.411   .     A
C795   O1165   1.384   .     S
C795   C798    1.402   1_554 S
C796   C920    1.413   .     A
C796   O1166   1.389   .     S
C796   C943    1.400   1_556 S
C797   C921    1.424   .     A
C797   O1167   1.383   .     S
C797   C942    1.401   1_554 S
C798   C922    1.422   .     A
C798   O1168   1.384   .     S
C798   C795    1.402   1_556 S
C799   C924    1.413   .     A
C799   O1169   1.392   .     S
C799   C944    1.404   1_554 S
C800   H1016   1.116   .     S
C800   O1153   1.414   .     S
C800   H1017   1.112   .     S
C800   C801    1.529   .     S
C801   H1018   1.112   .     S
C801   C802    1.527   .     S
C801   H1019   1.110   .     S
C802   H1022   1.111   .     S
C802   H1020   1.111   .     S
C802   H1021   1.110   .     S
C803   O1154   1.423   .     S
C803   H1024   1.110   .     S
C803   C1200   1.535   1_455 S
C803   H1421   1.107   1_455 S
C804   H1027   1.110   .     S
C804   H1026   1.109   .     S
C804   C806    1.522   .     S
C804   C1199   1.535   .     S
C805   C875    1.424   .     S
C805   O1120   1.277   .     A
C805   O1144   1.277   .     A
C806   H1029   1.103   .     S
C806   H1030   1.110   .     S
C806   H1028   1.111   .     S
C807   H1031   1.114   .     S
C807   O1155   1.413   .     S
C807   H1032   1.114   .     S
C807   C808    1.530   .     S
C808   C809    1.526   .     S
C808   H1033   1.112   .     S
C808   H1035   1.111   .     S
C809   H1037   1.111   .     S
C809   H1036   1.111   .     S
C809   H1038   1.111   .     S
C810   H1039   1.111   .     S
C810   C811    1.533   .     S
C810   H1040   1.118   .     S
C810   O364    1.417   1_565 S
C811   C812    1.522   .     S
C811   H1042   1.109   .     S
C811   H249    1.110   1_565 S
C812   H1044   1.110   .     S
C812   H1046   1.110   .     S
C812   H1043   1.108   .     S
C813   O1157   1.414   .     S
C813   H1048   1.112   .     S
C813   C814    1.530   .     S
C813   H1047   1.116   .     S
C814   H1049   1.112   .     S
C814   C815    1.527   .     S
C814   H1050   1.110   .     S
C815   H1053   1.111   .     S
C815   H1052   1.110   .     S
C815   H1051   1.111   .     S
C816   C874    1.424   .     S
C816   O1145   1.277   .     A
C816   O1121   1.277   .     A
C817   H1054   1.110   .     S
C817   O1158   1.423   .     S
C817   C1214   1.535   .     S
C817   H1451   1.107   .     S
C818   H1058   1.110   .     S
C818   C819    1.522   .     S
C818   H1057   1.109   .     S
C818   C1213   1.535   1_455 S
C819   H1060   1.103   .     S
C819   H1061   1.110   .     S
C819   H1059   1.111   .     S
C820   H1062   1.114   .     S
C820   O1159   1.413   .     S
C820   C821    1.529   .     S
C820   H1063   1.114   .     S
C821   H1065   1.111   .     S
C821   C822    1.526   .     S
C821   H1064   1.112   .     S
C822   H1068   1.111   .     S
C822   H1066   1.111   .     S
C822   H1069   1.111   .     S
C823   C824    1.533   .     S
C823   H1070   1.111   .     S
C823   H1071   1.118   .     S
C824   H1073   1.109   .     S
C824   C825    1.521   .     S
C825   H1075   1.110   .     S
C825   H1074   1.108   .     S
C825   H1076   1.110   .     S
C826   H1077   1.111   .     S
C826   O1162   1.422   .     S
C826   C828    1.519   .     S
C826   H1079   1.112   .     S
C827   O1151   1.279   .     A
C827   C873    1.426   .     S
C827   O1122   1.278   .     A
C828   H1080   1.109   .     S
C828   C829    1.528   .     S
C828   H1081   1.110   .     S
C829   H1082   1.111   .     S
C829   H1084   1.111   .     S
C829   H1083   1.109   .     S
C830   H1085   1.115   .     S
C830   O1163   1.413   .     S
C830   C831    1.529   .     S
C830   H1086   1.114   .     S
C831   C832    1.526   .     S
C831   H1087   1.112   .     S
C831   H1088   1.112   .     S
C832   H949    1.111   .     S
C832   H947    1.109   .     S
C832   H948    1.110   .     S
C833   C834    1.528   .     S
C833   O1164   1.413   .     S
C833   H951    1.111   .     S
C833   H950    1.115   .     S
C834   H953    1.110   .     S
C834   H952    1.111   .     S
C834   C835    1.525   .     S
C835   H956    1.111   .     S
C835   H954    1.110   .     S
C835   H955    1.110   .     S
C836   O1165   1.412   .     S
C836   H959    1.107   .     S
C836   C837    1.526   .     S
C836   H958    1.114   .     S
C837   C839    1.523   .     S
C837   H961    1.112   .     S
C837   H960    1.111   .     S
C838   O1152   1.279   .     A
C838   C872    1.426   .     S
C838   O1123   1.278   .     A
C839   H963    1.109   .     S
C839   H964    1.111   .     S
C839   H962    1.110   .     S
C840   H966    1.113   .     S
C840   O1166   1.420   .     S
C840   C841    1.527   .     S
C840   H965    1.111   .     S
C841   H969    1.111   .     S
C841   H967    1.111   .     S
C841   C842    1.530   .     S
C842   H970    1.111   .     S
C842   H971    1.108   .     S
C842   H972    1.111   .     S
C843   C844    1.528   .     S
C843   H973    1.116   .     S
C843   O1167   1.414   .     S
C843   H974    1.114   .     S
C844   H976    1.112   .     S
C844   C845    1.525   .     S
C844   H975    1.112   .     S
C845   H978    1.109   .     S
C845   H980    1.111   .     S
C845   H977    1.110   .     S
C846   H981    1.115   .     S
C846   O1168   1.412   .     S
C846   C847    1.528   .     S
C846   H982    1.112   .     S
C847   H983    1.112   .     S
C847   H984    1.111   .     S
C847   C848    1.525   .     S
C848   H987    1.111   .     S
C848   H986    1.110   .     S
C848   H985    1.110   .     S
C849   O1148   1.276   .     A
C849   O1124   1.278   .     A
C849   C880    1.424   .     S
C850   O1169   1.422   .     S
C850   H988    1.111   .     S
C850   H989    1.115   .     S
C850   C851    1.519   .     S
C851   C852    1.526   .     S
C851   H992    1.108   .     S
C851   H991    1.111   .     S
C852   H994    1.110   .     S
C852   H993    1.111   .     S
C852   H995    1.111   .     S
C853   O1150   1.276   .     A
C853   O1125   1.278   .     A
C853   C878    1.424   .     S
C854   C869    1.424   .     S
C854   O1126   1.277   .     A
C854   O1137   1.277   .     A
C855   C867    1.424   .     S
C855   O1139   1.277   .     A
C855   O1128   1.277   .     A
C856   O1129   1.276   .     A
C856   C866    1.425   .     S
C856   O1135   1.275   .     A
C857   C902    1.461   .     S
C857   O1106   1.272   .     A
C857   O368    1.272   1_565 S
C858   O1130   1.276   .     A
C858   C865    1.425   .     S
C858   O1136   1.275   .     A
C859   C864    1.424   .     S
C859   O1142   1.278   .     A
C859   O1131   1.276   .     A
C860   C863    1.424   .     S
C860   O1143   1.278   .     A
C860   O1132   1.276   .     A
C861   C871    1.426   .     S
C861   O1140   1.278   .     A
C861   O1133   1.279   .     A
C862   O1134   1.279   .     A
C862   O1141   1.278   .     A
C862   C870    1.426   .     S
C863   C880    1.199   .     T
C864   C878    1.199   .     T
C865   C877    1.200   .     T
C866   C876    1.200   .     T
C867   C875    1.199   .     T
C868   C898    1.461   .     S
C868   O1170   1.270   .     A
C868   O1503   1.270   1_455 S
C869   C874    1.199   .     T
C870   C873    1.200   .     T
C871   C872    1.200   .     T
C877   C934    1.425   .     S
C879   O1171   1.270   .     A
C879   C899    1.457   .     S
C879   O1504   1.269   .     S
C881   N1089   1.438   .     S
C881   C898    1.406   .     A
C881   C911    1.412   .     A
C882   C899    1.407   .     A
C882   C913    1.406   .     A
C882   N1097   1.439   .     S
C883   C914    1.410   .     A
C883   C900    1.401   .     A
C883   N1098   1.439   .     S
C884   C915    1.413   .     A
C884   N1099   1.438   .     S
C884   C902    1.404   .     A
C885   N1100   1.438   .     S
C885   C907    1.412   .     A
C885   C1294   1.406   .     S
C886   N1101   1.439   .     S
C886   C908    1.406   .     A
C886   C1295   1.407   1_455 S
C887   N1102   1.439   .     S
C887   C909    1.410   .     A
C887   C108    1.401   1_565 S
C888   N1103   1.438   .     S
C888   C910    1.414   .     A
C889   C920    1.411   .     A
C889   N1104   1.438   .     S
C889   C903    1.403   .     A
C890   O1109   1.274   .     A
C890   O1113   1.273   .     A
C890   C905    1.467   .     S
C891   C921    1.417   .     A
C891   N1090   1.437   .     S
C891   C904    1.406   .     A
C892   C922    1.415   .     A
C892   N1091   1.437   .     S
C892   C1301   1.405   .     S
C893   C924    1.408   .     A
C893   N1092   1.438   .     S
C893   C1302   1.398   1_455 S
C894   C916    1.407   .     A
C894   N1093   1.439   .     S
C894   C111    1.399   1_565 S
C895   N1094   1.436   .     S
C895   C917    1.415   .     A
C896   C905    1.407   .     A
C896   N1095   1.437   .     S
C896   C918    1.417   .     A
C897   C919    1.412   .     A
C897   C906    1.401   .     A
C897   N1096   1.438   .     S
C898   C1281   1.406   1_455 S
C899   C1282   1.407   .     S
C901   C906    1.450   .     S
C901   O1506   1.271   .     S
C901   O1510   1.268   .     S
C902   C96     1.404   1_565 S
C903   C912    1.451   .     S
C904   C923    1.467   .     S
C904   C103    1.405   1_565 S
C905   C1288   1.405   1_455 S
C906   C1289   1.398   .     S
C907   C933    1.421   .     A
C907   C1321   1.423   .     S
C908   C926    1.412   .     A
C908   C935    1.409   .     A
C909   C927    1.421   .     A
C909   C936    1.411   .     A
C910   C937    1.415   .     A
C911   C938    1.421   .     A
C911   C925    1.423   .     A
C912   O1111   1.265   .     A
C912   O1115   1.269   .     A
C913   C939    1.408   .     A
C913   C1322   1.411   .     S
C914   C940    1.411   .     A
C915   C941    1.415   .     A
C915   C928    1.421   .     A
C916   C942    1.412   .     A
C916   C137    1.416   1_565 S
C917   C930    1.423   .     A
C917   C943    1.422   .     A
C918   C944    1.425   .     A
C918   C1327   1.425   1_455 S
C919   C932    1.418   .     A
C920   C929    1.417   .     A
C921   C138    1.423   1_565 S
C922   C931    1.425   .     A
C923   O320    1.270   1_565 S
C923   O325    1.272   1_565 S
C924   C1328   1.417   1_455 S
C925   C926    1.412   .     A
C925   C1303   1.423   1_455 S
C926   C1309   1.411   1_455 S
C927   C928    1.419   .     A
C927   C122    1.421   1_565 S
C928   C118    1.421   1_565 S
C929   C930    1.414   1_556 S
C930   C929    1.414   1_554 S
C931   C1314   1.425   .     S
C931   C932    1.415   1_556 S
C932   C1320   1.417   .     S
C932   C931    1.415   1_554 S
C933   C939    1.402   .     A
C933   O1153   1.385   .     S
C934   O1146   1.276   .     A
C934   O1118   1.275   .     A
C935   O1154   1.389   .     S
C935   C938    1.402   .     A
C936   O1155   1.383   .     S
C936   C941    1.396   .     A
C937   C940    1.397   .     A
C937   O1156   1.382   .     S
C938   O1157   1.385   .     S
C939   O1158   1.389   .     S
C940   O1159   1.383   .     S
C941   O1161   1.382   .     S
C942   O1162   1.391   .     S
C942   C797    1.401   1_556 S
C943   O1163   1.383   .     S
C943   C796    1.400   1_554 S
C944   O1164   1.385   .     S
C944   C799    1.404   1_556 S
H945   N1089   1.045   .     S
H946   N1100   1.046   .     S
H957   N1101   1.045   .     S
H968   N1101   1.045   .     S
H979   N1102   1.045   .     S
H996   N1103   1.046   .     S
H997   N1103   1.045   .     S
H998   N1104   1.046   .     S
H999   N1104   1.045   .     S
H1000  N1090   1.046   .     S
H1001  N1089   1.046   .     S
H1002  N1090   1.045   .     S
H1003  N1091   1.046   .     S
H1004  N1091   1.045   .     S
H1005  N1092   1.045   .     S
H1006  N1092   1.045   .     S
H1007  N1093   1.046   .     S
H1008  N1093   1.045   .     S
H1009  N1094   1.046   .     S
H1010  N1094   1.045   .     S
H1011  N1095   1.046   .     S
H1012  N1097   1.045   .     S
H1013  N1095   1.045   .     S
H1014  N1096   1.046   .     S
H1015  N1096   1.045   .     S
H1023  N1097   1.045   .     S
H1025  C1199   1.107   .     S
H1034  N1098   1.045   .     S
H1045  N306    1.046   1_565 S
H1055  C1213   1.107   1_455 S
H1056  N1099   1.046   .     S
H1067  N1099   1.045   .     S
H1072  C32     1.110   1_565 S
H1078  N1100   1.045   .     S
N1102  H198    1.046   1_565 S
O1105  Zn1184  1.937   .     S
O1105  Zn1176  1.936   .     S
O1105  Zn1173  1.932   .     S
O1106  Zn1175  1.949   .     S
O1107  Zn1178  1.946   .     S
O1107  C1264   1.270   .     S
O1108  Zn1177  1.946   .     S
O1108  C1275   1.269   1_455 S
O1109  Zn1187  1.946   .     S
O1110  Zn1186  1.946   .     S
O1110  C1297   1.271   1_455 S
O1111  Zn1181  1.948   .     S
O1112  Zn1173  1.948   .     S
O1113  Zn1183  1.949   .     S
O1114  Zn1182  1.949   .     S
O1114  C1297   1.268   1_455 S
O1115  Zn1185  1.946   .     S
O1116  Zn1185  1.937   .     S
O1116  Zn1179  1.942   .     S
O1116  Zn1181  1.932   .     S
O1117  Zn1184  1.946   .     S
O1118  Zn1176  1.917   .     S
O1119  Zn1175  1.917   .     S
O1120  Zn1178  1.917   .     S
O1121  Zn1177  1.917   .     S
O1122  Zn1180  1.918   .     S
O1123  Zn1179  1.918   .     S
O1124  Zn1174  1.920   .     S
O1125  Zn1188  1.920   .     S
O1126  Zn1175  1.918   .     S
O1127  Zn1174  1.932   .     S
O1127  Zn1182  1.936   .     S
O1127  Zn1186  1.942   .     S
O1127  Zn1574  1.937   1_455 S
O1128  Zn1176  1.918   .     S
O1129  Zn1188  1.919   .     S
O1130  Zn1174  1.919   .     S
O1131  Zn1179  1.915   .     S
O1132  Zn1180  1.915   .     S
O1133  Zn1177  1.920   .     S
O1134  Zn1178  1.920   .     S
O1135  Zn1579  1.917   .     S
O1136  Zn1182  1.917   .     S
O1137  Zn393   1.917   1_565 S
O1138  Zn1187  1.942   .     S
O1138  Zn1177  1.937   .     S
O1138  Zn1183  1.936   .     S
O1138  Zn1584  1.932   1_455 S
O1139  Zn1184  1.917   .     S
O1140  Zn1187  1.918   .     S
O1141  Zn1582  1.918   .     S
O1142  Zn1181  1.920   .     S
O1143  Zn381   1.920   1_565 S
O1144  Zn1578  1.918   .     S
O1145  Zn1183  1.918   .     S
O1146  Zn1173  1.919   .     S
O1147  Zn389   1.919   1_565 S
O1148  Zn1186  1.915   .     S
O1149  Zn1180  1.946   .     S
O1149  C1      1.269   1_565 S
O1150  Zn1583  1.915   .     S
O1151  Zn392   1.920   1_565 S
O1152  Zn1185  1.920   .     S
O1160  Zn1179  1.946   .     S
O1161  C31     1.418   1_565 S
O1170  Zn1174  1.948   .     S
O1171  Zn1188  1.948   .     S
O1172  Zn1176  1.949   .     S
Zn1175 O324    1.936   1_565 S
Zn1178 O1523   1.937   .     S
Zn1180 O313    1.942   1_565 S
Zn1182 O1540   1.918   1_455 S
Zn1183 O1531   1.917   1_455 S
Zn1186 O1537   1.918   1_455 S
Zn1187 O1546   1.915   1_455 S
Zn1188 O1534   1.932   .     S
C1189  O1568   1.270   .     A
C1189  C1296   1.451   .     S
C1190  C1272   1.425   .     S
C1190  O1515   1.275   .     A
C1190  O1543   1.276   .     A
C1191  C1315   1.411   .     A
C1191  O1561   1.384   .     S
C1191  C1194   1.402   1_554 S
C1192  C1316   1.413   .     A
C1192  O1562   1.389   .     S
C1192  C1339   1.400   1_556 S
C1193  C1317   1.424   .     A
C1193  O1563   1.383   .     S
C1193  C1338   1.401   1_554 S
C1194  C1318   1.422   .     A
C1194  O1564   1.384   .     S
C1194  C1191   1.402   1_556 S
C1195  C1320   1.413   .     A
C1195  O1565   1.392   .     S
C1195  C1340   1.404   1_554 S
C1196  H1412   1.116   .     S
C1196  O1549   1.414   .     S
C1196  H1413   1.112   .     S
C1196  C1197   1.529   .     S
C1197  H1414   1.112   .     S
C1197  C1198   1.527   .     S
C1197  H1415   1.110   .     S
C1198  H1418   1.111   .     S
C1198  H1416   1.111   .     S
C1198  H1417   1.110   .     S
C1199  O1550   1.423   .     S
C1199  H1420   1.110   .     S
C1200  H1423   1.110   .     S
C1200  H1422   1.109   .     S
C1200  C1202   1.522   .     S
C1200  C803    1.535   1_655 S
C1201  C1271   1.424   .     S
C1201  O1516   1.277   .     A
C1201  O1540   1.277   .     A
C1202  H1425   1.103   .     S
C1202  H1426   1.110   .     S
C1202  H1424   1.111   .     S
C1203  H1427   1.114   .     S
C1203  O1551   1.413   .     S
C1203  H1428   1.114   .     S
C1203  C1204   1.530   .     S
C1204  C1205   1.526   .     S
C1204  H1429   1.112   .     S
C1204  H1431   1.111   .     S
C1205  H1433   1.111   .     S
C1205  H1432   1.111   .     S
C1205  H1434   1.111   .     S
C1206  H1435   1.111   .     S
C1206  C1207   1.533   .     S
C1206  H1436   1.118   .     S
C1206  O760    1.417   1_565 S
C1207  C1208   1.522   .     S
C1207  H1438   1.109   .     S
C1207  H645    1.110   1_565 S
C1208  H1440   1.110   .     S
C1208  H1442   1.110   .     S
C1208  H1439   1.108   .     S
C1209  O1553   1.414   .     S
C1209  H1444   1.112   .     S
C1209  C1210   1.530   .     S
C1209  H1443   1.116   .     S
C1210  H1445   1.112   .     S
C1210  C1211   1.527   .     S
C1210  H1446   1.110   .     S
C1211  H1449   1.111   .     S
C1211  H1448   1.110   .     S
C1211  H1447   1.111   .     S
C1212  C1270   1.424   .     S
C1212  O1541   1.277   .     A
C1212  O1517   1.277   .     A
C1213  H1450   1.110   .     S
C1213  O1554   1.423   .     S
C1213  C818    1.535   1_655 S
C1213  H1055   1.107   1_655 S
C1214  H1454   1.110   .     S
C1214  C1215   1.522   .     S
C1214  H1453   1.109   .     S
C1215  H1456   1.103   .     S
C1215  H1457   1.110   .     S
C1215  H1455   1.111   .     S
C1216  H1458   1.114   .     S
C1216  O1555   1.413   .     S
C1216  C1217   1.529   .     S
C1216  H1459   1.114   .     S
C1217  H1461   1.111   .     S
C1217  C1218   1.526   .     S
C1217  H1460   1.112   .     S
C1218  H1464   1.111   .     S
C1218  H1462   1.111   .     S
C1218  H1465   1.111   .     S
C1219  C1220   1.533   .     S
C1219  H1466   1.111   .     S
C1219  H1467   1.118   .     S
C1220  H1469   1.109   .     S
C1220  C1221   1.521   .     S
C1221  H1471   1.110   .     S
C1221  H1470   1.108   .     S
C1221  H1472   1.110   .     S
C1222  H1473   1.111   .     S
C1222  O1558   1.422   .     S
C1222  C1224   1.519   .     S
C1222  H1475   1.112   .     S
C1223  O1547   1.279   .     A
C1223  C1269   1.426   .     S
C1223  O1518   1.278   .     A
C1224  H1476   1.109   .     S
C1224  C1225   1.528   .     S
C1224  H1477   1.110   .     S
C1225  H1478   1.111   .     S
C1225  H1480   1.111   .     S
C1225  H1479   1.109   .     S
C1226  H1481   1.115   .     S
C1226  O1559   1.413   .     S
C1226  C1227   1.529   .     S
C1226  H1482   1.114   .     S
C1227  C1228   1.526   .     S
C1227  H1483   1.112   .     S
C1227  H1484   1.112   .     S
C1228  H1345   1.111   .     S
C1228  H1343   1.109   .     S
C1228  H1344   1.110   .     S
C1229  C1230   1.528   .     S
C1229  O1560   1.413   .     S
C1229  H1347   1.111   .     S
C1229  H1346   1.115   .     S
C1230  H1349   1.110   .     S
C1230  H1348   1.111   .     S
C1230  C1231   1.525   .     S
C1231  H1352   1.111   .     S
C1231  H1350   1.110   .     S
C1231  H1351   1.110   .     S
C1232  O1561   1.412   .     S
C1232  H1355   1.107   .     S
C1232  C1233   1.526   .     S
C1232  H1354   1.114   .     S
C1233  C1235   1.523   .     S
C1233  H1357   1.112   .     S
C1233  H1356   1.111   .     S
C1234  O1548   1.279   .     A
C1234  C1268   1.426   .     S
C1234  O1519   1.278   .     A
C1235  H1359   1.109   .     S
C1235  H1360   1.111   .     S
C1235  H1358   1.110   .     S
C1236  H1362   1.113   .     S
C1236  O1562   1.420   .     S
C1236  C1237   1.527   .     S
C1236  H1361   1.111   .     S
C1237  H1365   1.111   .     S
C1237  H1363   1.111   .     S
C1237  C1238   1.530   .     S
C1238  H1366   1.111   .     S
C1238  H1367   1.108   .     S
C1238  H1368   1.111   .     S
C1239  C1240   1.528   .     S
C1239  H1369   1.116   .     S
C1239  O1563   1.414   .     S
C1239  H1370   1.114   .     S
C1240  H1372   1.112   .     S
C1240  C1241   1.525   .     S
C1240  H1371   1.112   .     S
C1241  H1374   1.109   .     S
C1241  H1376   1.111   .     S
C1241  H1373   1.110   .     S
C1242  H1377   1.115   .     S
C1242  O1564   1.412   .     S
C1242  C1243   1.528   .     S
C1242  H1378   1.112   .     S
C1243  H1379   1.112   .     S
C1243  H1380   1.111   .     S
C1243  C1244   1.525   .     S
C1244  H1383   1.111   .     S
C1244  H1382   1.110   .     S
C1244  H1381   1.110   .     S
C1245  O1544   1.276   .     A
C1245  O1520   1.278   .     A
C1245  C1276   1.424   .     S
C1246  O1565   1.422   .     S
C1246  H1384   1.111   .     S
C1246  H1385   1.115   .     S
C1246  C1247   1.519   .     S
C1247  C1248   1.526   .     S
C1247  H1388   1.108   .     S
C1247  H1387   1.111   .     S
C1248  H1390   1.110   .     S
C1248  H1389   1.111   .     S
C1248  H1391   1.111   .     S
C1249  O1546   1.276   .     A
C1249  O1521   1.278   .     A
C1249  C1274   1.424   .     S
C1250  C1265   1.424   .     S
C1250  O1522   1.277   .     A
C1250  O1533   1.277   .     A
C1251  C1263   1.424   .     S
C1251  O1535   1.277   .     A
C1251  O1524   1.277   .     A
C1252  O1525   1.276   .     A
C1252  C1262   1.425   .     S
C1252  O1531   1.275   .     A
C1253  C1298   1.461   .     S
C1253  O1502   1.272   .     A
C1253  O764    1.272   1_565 S
C1254  O1526   1.276   .     A
C1254  C1261   1.425   .     S
C1254  O1532   1.275   .     A
C1255  C1260   1.424   .     S
C1255  O1538   1.278   .     A
C1255  O1527   1.276   .     A
C1256  C1259   1.424   .     S
C1256  O1539   1.278   .     A
C1256  O1528   1.276   .     A
C1257  C1267   1.426   .     S
C1257  O1536   1.278   .     A
C1257  O1529   1.279   .     A
C1258  O1530   1.279   .     A
C1258  O1537   1.278   .     A
C1258  C1266   1.426   .     S
C1259  C1276   1.199   .     T
C1260  C1274   1.199   .     T
C1261  C1273   1.200   .     T
C1262  C1272   1.200   .     T
C1263  C1271   1.199   .     T
C1264  C1294   1.461   .     S
C1264  O1566   1.270   .     A
C1265  C1270   1.199   .     T
C1266  C1269   1.200   .     T
C1267  C1268   1.200   .     T
C1273  C1330   1.425   .     S
C1275  O1567   1.270   .     A
C1275  C1295   1.457   .     S
C1275  O1108   1.269   1_655 S
C1277  N1485   1.438   .     S
C1277  C1294   1.406   .     A
C1277  C1307   1.412   .     A
C1278  C1295   1.407   .     A
C1278  C1309   1.406   .     A
C1278  N1493   1.439   .     S
C1279  C1310   1.410   .     A
C1279  C1296   1.401   .     A
C1279  N1494   1.439   .     S
C1280  C1311   1.413   .     A
C1280  N1495   1.438   .     S
C1280  C1298   1.404   .     A
C1281  N1496   1.438   .     S
C1281  C1303   1.412   .     A
C1281  C898    1.406   1_655 S
C1282  N1497   1.439   .     S
C1282  C1304   1.406   .     A
C1283  N1498   1.439   .     S
C1283  C1305   1.410   .     A
C1283  C504    1.401   1_565 S
C1284  N1499   1.438   .     S
C1284  C1306   1.414   .     A
C1285  C1316   1.411   .     A
C1285  N1500   1.438   .     S
C1285  C1299   1.403   .     A
C1286  O1505   1.274   .     A
C1286  O1509   1.273   .     A
C1286  C1301   1.467   .     S
C1287  C1317   1.417   .     A
C1287  N1486   1.437   .     S
C1287  C1300   1.406   .     A
C1288  C1318   1.415   .     A
C1288  N1487   1.437   .     S
C1288  C905    1.405   1_655 S
C1289  C1320   1.408   .     A
C1289  N1488   1.438   .     S
C1290  C1312   1.407   .     A
C1290  N1489   1.439   .     S
C1290  C507    1.399   1_565 S
C1291  N1490   1.436   .     S
C1291  C1313   1.415   .     A
C1292  C1301   1.407   .     A
C1292  N1491   1.437   .     S
C1292  C1314   1.417   .     A
C1293  C1315   1.412   .     A
C1293  C1302   1.401   .     A
C1293  N1492   1.438   .     S
C1295  C886    1.407   1_655 S
C1297  C1302   1.450   .     S
C1297  O1110   1.271   1_655 S
C1297  O1114   1.268   1_655 S
C1298  C492    1.404   1_565 S
C1299  C1308   1.451   .     S
C1300  C1319   1.467   .     S
C1300  C499    1.405   1_565 S
C1302  C893    1.398   1_655 S
C1303  C1329   1.421   .     A
C1303  C925    1.423   1_655 S
C1304  C1322   1.412   .     A
C1304  C1331   1.409   .     A
C1305  C1323   1.421   .     A
C1305  C1332   1.411   .     A
C1306  C1333   1.415   .     A
C1307  C1334   1.421   .     A
C1307  C1321   1.423   .     A
C1308  O1507   1.265   .     A
C1308  O1511   1.269   .     A
C1309  C1335   1.408   .     A
C1309  C926    1.411   1_655 S
C1310  C1336   1.411   .     A
C1311  C1337   1.415   .     A
C1311  C1324   1.421   .     A
C1312  C1338   1.412   .     A
C1312  C533    1.416   1_565 S
C1313  C1326   1.423   .     A
C1313  C1339   1.422   .     A
C1314  C1340   1.425   .     A
C1315  C1328   1.418   .     A
C1316  C1325   1.417   .     A
C1317  C534    1.423   1_565 S
C1318  C1327   1.425   .     A
C1319  O716    1.270   1_565 S
C1319  O721    1.272   1_565 S
C1321  C1322   1.412   .     A
C1323  C1324   1.419   .     A
C1323  C518    1.421   1_565 S
C1324  C514    1.421   1_565 S
C1325  C1326   1.414   1_556 S
C1326  C1325   1.414   1_554 S
C1327  C918    1.425   1_655 S
C1327  C1328   1.415   1_556 S
C1328  C924    1.417   1_655 S
C1328  C1327   1.415   1_554 S
C1329  C1335   1.402   .     A
C1329  O1549   1.385   .     S
C1330  O1542   1.276   .     A
C1330  O1514   1.275   .     A
C1331  O1550   1.389   .     S
C1331  C1334   1.402   .     A
C1332  O1551   1.383   .     S
C1332  C1337   1.396   .     A
C1333  C1336   1.397   .     A
C1333  O1552   1.382   .     S
C1334  O1553   1.385   .     S
C1335  O1554   1.389   .     S
C1336  O1555   1.383   .     S
C1337  O1557   1.382   .     S
C1338  O1558   1.391   .     S
C1338  C1193   1.401   1_556 S
C1339  O1559   1.383   .     S
C1339  C1192   1.400   1_554 S
C1340  O1560   1.385   .     S
C1340  C1195   1.404   1_556 S
H1341  N1485   1.045   .     S
H1342  N1496   1.046   .     S
H1353  N1497   1.045   .     S
H1364  N1497   1.045   .     S
H1375  N1498   1.045   .     S
H1392  N1499   1.046   .     S
H1393  N1499   1.045   .     S
H1394  N1500   1.046   .     S
H1395  N1500   1.045   .     S
H1396  N1486   1.046   .     S
H1397  N1485   1.046   .     S
H1398  N1486   1.045   .     S
H1399  N1487   1.046   .     S
H1400  N1487   1.045   .     S
H1401  N1488   1.045   .     S
H1402  N1488   1.045   .     S
H1403  N1489   1.046   .     S
H1404  N1489   1.045   .     S
H1405  N1490   1.046   .     S
H1406  N1490   1.045   .     S
H1407  N1491   1.046   .     S
H1408  N1493   1.045   .     S
H1409  N1491   1.045   .     S
H1410  N1492   1.046   .     S
H1411  N1492   1.045   .     S
H1419  N1493   1.045   .     S
H1421  C803    1.107   1_655 S
H1430  N1494   1.045   .     S
H1441  N702    1.046   1_565 S
H1452  N1495   1.046   .     S
H1463  N1495   1.045   .     S
H1468  C428    1.110   1_565 S
H1474  N1496   1.045   .     S
N1498  H594    1.046   1_565 S
O1501  Zn1580  1.937   .     S
O1501  Zn1572  1.936   .     S
O1501  Zn1569  1.932   .     S
O1502  Zn1571  1.949   .     S
O1503  Zn1574  1.946   .     S
O1503  C868    1.270   1_655 S
O1504  Zn1573  1.946   .     S
O1505  Zn1583  1.946   .     S
O1506  Zn1582  1.946   .     S
O1507  Zn1577  1.948   .     S
O1508  Zn1569  1.948   .     S
O1509  Zn1579  1.949   .     S
O1510  Zn1578  1.949   .     S
O1511  Zn1581  1.946   .     S
O1512  Zn1581  1.937   .     S
O1512  Zn1575  1.942   .     S
O1512  Zn1577  1.932   .     S
O1513  Zn1580  1.946   .     S
O1514  Zn1572  1.917   .     S
O1515  Zn1571  1.917   .     S
O1516  Zn1574  1.917   .     S
O1517  Zn1573  1.917   .     S
O1518  Zn1576  1.918   .     S
O1519  Zn1575  1.918   .     S
O1520  Zn1570  1.920   .     S
O1521  Zn1584  1.920   .     S
O1522  Zn1571  1.918   .     S
O1523  Zn1570  1.932   .     S
O1523  Zn1578  1.936   .     S
O1523  Zn1582  1.942   .     S
O1524  Zn1572  1.918   .     S
O1525  Zn1584  1.919   .     S
O1526  Zn1570  1.919   .     S
O1527  Zn1575  1.915   .     S
O1528  Zn1576  1.915   .     S
O1529  Zn1573  1.920   .     S
O1530  Zn1574  1.920   .     S
O1531  Zn1183  1.917   1_655 S
O1532  Zn1578  1.917   .     S
O1533  Zn789   1.917   1_565 S
O1534  Zn1583  1.942   .     S
O1534  Zn1573  1.937   .     S
O1534  Zn1579  1.936   .     S
O1535  Zn1580  1.917   .     S
O1536  Zn1583  1.918   .     S
O1537  Zn1186  1.918   1_655 S
O1538  Zn1577  1.920   .     S
O1539  Zn777   1.920   1_565 S
O1540  Zn1182  1.918   1_655 S
O1541  Zn1579  1.918   .     S
O1542  Zn1569  1.919   .     S
O1543  Zn785   1.919   1_565 S
O1544  Zn1582  1.915   .     S
O1545  Zn1576  1.946   .     S
O1545  C397    1.269   1_565 S
O1546  Zn1187  1.915   1_655 S
O1547  Zn788   1.920   1_565 S
O1548  Zn1581  1.920   .     S
O1556  Zn1575  1.946   .     S
O1557  C427    1.418   1_565 S
O1566  Zn1570  1.948   .     S
O1567  Zn1584  1.948   .     S
O1568  Zn1572  1.949   .     S
Zn1571 O720    1.936   1_565 S
Zn1574 O1127   1.937   1_655 S
Zn1576 O709    1.942   1_565 S
Zn1584 O1138   1.932   1_655 S
