data_str_m3_o2_o10_pcu_sym.15
_audit_creation_date              2020-01-03
_audit_creation_method            'Materials Studio'
_symmetry_space_group_name_H-M    'P1'
_symmetry_Int_Tables_number       1
_symmetry_cell_setting            triclinic
loop_
_symmetry_equiv_pos_as_xyz
  x,y,z
_cell_length_a                    25.8683
_cell_length_b                    29.9088
_cell_length_c                    28.3326
_cell_angle_alpha                 90.2629
_cell_angle_beta                  98.1691
_cell_angle_gamma                 89.9284
loop_
_atom_site_label
_atom_site_type_symbol
_atom_site_fract_x
_atom_site_fract_y
_atom_site_fract_z
_atom_site_U_iso_or_equiv
_atom_site_adp_type
_atom_site_occupancy
C1     C     0.16736   0.16407   0.24998   0.00000  Uiso   1.00
C2     C     0.12712   0.22824   0.44213   0.00000  Uiso   1.00
C3     C     0.16679   0.24983   0.02668   0.00000  Uiso   1.00
C4     C     0.16679   0.24983   0.47331   0.00000  Uiso   1.00
C5     C     0.06711   0.24998   0.23788   0.00000  Uiso   1.00
C6     C     0.26619   0.24993   0.26213   0.00000  Uiso   1.00
C7     C     0.01307   0.24291   0.23245   0.00000  Uiso   1.00
C8     C     0.32021   0.25676   0.26767   0.00000  Uiso   1.00
C9     C     0.21426   0.04773   0.27052   0.00000  Uiso   1.00
C10    C     0.21002   0.45265   0.23255   0.00000  Uiso   1.00
C11    C     0.21364   0.09398   0.27091   0.00000  Uiso   1.00
C12    C     0.16760   0.33603   0.25021   0.00000  Uiso   1.00
C13    C     0.20956   0.40639   0.23239   0.00000  Uiso   1.00
C14    C     0.16856   0.11637   0.24978   0.00000  Uiso   1.00
C15    C     0.16903   0.38392   0.25064   0.00000  Uiso   1.00
C16    C     0.12458   0.09293   0.22802   0.00000  Uiso   1.00
C17    C     0.12969   0.40759   0.26948   0.00000  Uiso   1.00
C18    C     0.12557   0.04660   0.22817   0.00000  Uiso   1.00
C19    C     0.13050   0.45390   0.26913   0.00000  Uiso   1.00
C20    C     0.17022   0.02427   0.24953   0.00000  Uiso   1.00
C21    C     0.17038   0.47616   0.25049   0.00000  Uiso   1.00
C22    C     0.14584   0.21384   0.04977   0.00000  Uiso   1.00
C23    C     0.20644   0.27146   0.45262   0.00000  Uiso   1.00
C24    C     0.14601   0.21467   0.09943   0.00000  Uiso   1.00
C25    C     0.20552   0.27128   0.40287   0.00000  Uiso   1.00
C26    C     0.18740   0.28521   0.10503   0.00000  Uiso   1.00
C27    C     0.12797   0.22854   0.39262   0.00000  Uiso   1.00
C28    C     0.18770   0.28589   0.05546   0.00000  Uiso   1.00
H29    H     0.24870   0.03005   0.28701   0.00000  Uiso   1.00
H30    H     0.09737   0.21169   0.36918   0.00000  Uiso   1.00
H31    H     0.20355   0.31487   0.03989   0.00000  Uiso   1.00
H32    H     0.09511   0.21169   0.45564   0.00000  Uiso   1.00
H33    H     0.07106   0.10650   0.17081   0.00000  Uiso   1.00
H34    H     0.04743   0.10596   0.22345   0.00000  Uiso   1.00
H35    H     0.05296   0.39504   0.26890   0.00000  Uiso   1.00
H36    H     0.08899   0.39445   0.32352   0.00000  Uiso   1.00
H37    H     0.24091   0.47031   0.21834   0.00000  Uiso   1.00
H38    H     0.09171   0.02807   0.21165   0.00000  Uiso   1.00
H39    H     0.10015   0.47249   0.28339   0.00000  Uiso   1.00
H40    H     0.13000   0.18482   0.02986   0.00000  Uiso   1.00
H41    H     0.23850   0.28794   0.47460   0.00000  Uiso   1.00
H42    H     0.12966   0.18684   0.11657   0.00000  Uiso   1.00
H43    H     0.23614   0.28807   0.38752   0.00000  Uiso   1.00
H44    H     0.20363   0.31310   0.12654   0.00000  Uiso   1.00
I45    I     0.31770   0.20036   0.17266   0.00000  Uiso   1.00
I46    I     0.01496   0.29903   0.32776   0.00000  Uiso   1.00
I47    I     0.28225   0.12778   0.30244   0.00000  Uiso   1.00
I48    I     0.27249   0.37313   0.20628   0.00000  Uiso   1.00
N49    N     0.16667   0.24999   0.12624   0.00000  Uiso   1.00
N50    N     0.16667   0.25001   0.37377   0.00000  Uiso   1.00
N51    N     0.07882   0.11622   0.20661   0.00000  Uiso   1.00
N52    N     0.08845   0.38460   0.28800   0.00000  Uiso   1.00
O53    O     0.16667   0.18454   0.28974   0.00000  Uiso   1.00
O54    O     0.16666   0.31547   0.21026   0.00000  Uiso   1.00
O55    O     0.16667   0.18453   0.21026   0.00000  Uiso   1.00
O56    O     0.16666   0.31547   0.28974   0.00000  Uiso   1.00
O57    O     0.09058   0.25000   0.28045   0.00000  Uiso   1.00
O58    O     0.24275   0.25000   0.21956   0.00000  Uiso   1.00
O59    O     0.09058   0.25000   0.20097   0.00000  Uiso   1.00
O60    O     0.24275   0.25001   0.29904   0.00000  Uiso   1.00
Zn61   Zn    0.16667   0.25001   0.30307   0.00000  Uiso   1.00
Zn62   Zn    0.16667   0.25000   0.19693   0.00000  Uiso   1.00
C63    C     0.50069   0.16407   0.24998   0.00000  Uiso   1.00
C64    C     0.46046   0.22824   0.44213   0.00000  Uiso   1.00
C65    C     0.50013   0.24983   0.02668   0.00000  Uiso   1.00
C66    C     0.50012   0.24983   0.47331   0.00000  Uiso   1.00
C67    C     0.40044   0.24998   0.23788   0.00000  Uiso   1.00
C68    C     0.59953   0.24993   0.26213   0.00000  Uiso   1.00
C69    C     0.34640   0.24291   0.23245   0.00000  Uiso   1.00
C70    C     0.65354   0.25676   0.26767   0.00000  Uiso   1.00
C71    C     0.54759   0.04773   0.27052   0.00000  Uiso   1.00
C72    C     0.54335   0.45265   0.23255   0.00000  Uiso   1.00
C73    C     0.54698   0.09398   0.27091   0.00000  Uiso   1.00
C74    C     0.50094   0.33603   0.25021   0.00000  Uiso   1.00
C75    C     0.54290   0.40639   0.23239   0.00000  Uiso   1.00
C76    C     0.50190   0.11637   0.24978   0.00000  Uiso   1.00
C77    C     0.50237   0.38392   0.25064   0.00000  Uiso   1.00
C78    C     0.45791   0.09293   0.22802   0.00000  Uiso   1.00
C79    C     0.46303   0.40759   0.26948   0.00000  Uiso   1.00
C80    C     0.45891   0.04660   0.22817   0.00000  Uiso   1.00
C81    C     0.46384   0.45390   0.26913   0.00000  Uiso   1.00
C82    C     0.50355   0.02427   0.24953   0.00000  Uiso   1.00
C83    C     0.50371   0.47616   0.25049   0.00000  Uiso   1.00
C84    C     0.47917   0.21384   0.04977   0.00000  Uiso   1.00
C85    C     0.53977   0.27146   0.45262   0.00000  Uiso   1.00
C86    C     0.47934   0.21467   0.09943   0.00000  Uiso   1.00
C87    C     0.53885   0.27128   0.40287   0.00000  Uiso   1.00
C88    C     0.52073   0.28521   0.10503   0.00000  Uiso   1.00
C89    C     0.46130   0.22854   0.39262   0.00000  Uiso   1.00
C90    C     0.52103   0.28589   0.05546   0.00000  Uiso   1.00
H91    H     0.58204   0.03005   0.28701   0.00000  Uiso   1.00
H92    H     0.43070   0.21169   0.36918   0.00000  Uiso   1.00
H93    H     0.53688   0.31487   0.03989   0.00000  Uiso   1.00
H94    H     0.42844   0.21169   0.45564   0.00000  Uiso   1.00
H95    H     0.40439   0.10650   0.17081   0.00000  Uiso   1.00
H96    H     0.38076   0.10596   0.22345   0.00000  Uiso   1.00
H97    H     0.38630   0.39504   0.26890   0.00000  Uiso   1.00
H98    H     0.42232   0.39445   0.32352   0.00000  Uiso   1.00
H99    H     0.57425   0.47031   0.21834   0.00000  Uiso   1.00
H100   H     0.42504   0.02807   0.21165   0.00000  Uiso   1.00
H101   H     0.43349   0.47249   0.28339   0.00000  Uiso   1.00
H102   H     0.46333   0.18482   0.02986   0.00000  Uiso   1.00
H103   H     0.57184   0.28794   0.47460   0.00000  Uiso   1.00
H104   H     0.46300   0.18684   0.11657   0.00000  Uiso   1.00
H105   H     0.56948   0.28807   0.38752   0.00000  Uiso   1.00
H106   H     0.53696   0.31310   0.12654   0.00000  Uiso   1.00
I107   I     0.65104   0.20036   0.17266   0.00000  Uiso   1.00
I108   I     0.34830   0.29903   0.32776   0.00000  Uiso   1.00
I109   I     0.61558   0.12778   0.30244   0.00000  Uiso   1.00
I110   I     0.60583   0.37313   0.20628   0.00000  Uiso   1.00
N111   N     0.50000   0.24999   0.12624   0.00000  Uiso   1.00
N112   N     0.50000   0.25001   0.37377   0.00000  Uiso   1.00
N113   N     0.41215   0.11622   0.20661   0.00000  Uiso   1.00
N114   N     0.42178   0.38460   0.28800   0.00000  Uiso   1.00
O115   O     0.50000   0.18454   0.28974   0.00000  Uiso   1.00
O116   O     0.50000   0.31547   0.21026   0.00000  Uiso   1.00
O117   O     0.50000   0.18453   0.21026   0.00000  Uiso   1.00
O118   O     0.50000   0.31547   0.28974   0.00000  Uiso   1.00
O119   O     0.42392   0.25000   0.28045   0.00000  Uiso   1.00
O120   O     0.57608   0.25000   0.21956   0.00000  Uiso   1.00
O121   O     0.42392   0.25000   0.20097   0.00000  Uiso   1.00
O122   O     0.57608   0.25001   0.29904   0.00000  Uiso   1.00
Zn123  Zn    0.50000   0.25001   0.30307   0.00000  Uiso   1.00
Zn124  Zn    0.50000   0.25000   0.19693   0.00000  Uiso   1.00
C125   C     0.83402   0.16407   0.24998   0.00000  Uiso   1.00
C126   C     0.79379   0.22824   0.44213   0.00000  Uiso   1.00
C127   C     0.83346   0.24983   0.02668   0.00000  Uiso   1.00
C128   C     0.83346   0.24983   0.47331   0.00000  Uiso   1.00
C129   C     0.73377   0.24998   0.23788   0.00000  Uiso   1.00
C130   C     0.93286   0.24993   0.26213   0.00000  Uiso   1.00
C131   C     0.67973   0.24291   0.23245   0.00000  Uiso   1.00
C132   C     0.98687   0.25676   0.26767   0.00000  Uiso   1.00
C133   C     0.88093   0.04773   0.27052   0.00000  Uiso   1.00
C134   C     0.87668   0.45265   0.23255   0.00000  Uiso   1.00
C135   C     0.88031   0.09398   0.27091   0.00000  Uiso   1.00
C136   C     0.83427   0.33603   0.25021   0.00000  Uiso   1.00
C137   C     0.87623   0.40639   0.23239   0.00000  Uiso   1.00
C138   C     0.83523   0.11637   0.24978   0.00000  Uiso   1.00
C139   C     0.83570   0.38392   0.25064   0.00000  Uiso   1.00
C140   C     0.79125   0.09293   0.22802   0.00000  Uiso   1.00
C141   C     0.79636   0.40759   0.26948   0.00000  Uiso   1.00
C142   C     0.79224   0.04660   0.22817   0.00000  Uiso   1.00
C143   C     0.79717   0.45390   0.26913   0.00000  Uiso   1.00
C144   C     0.83689   0.02427   0.24953   0.00000  Uiso   1.00
C145   C     0.83705   0.47616   0.25049   0.00000  Uiso   1.00
C146   C     0.81250   0.21384   0.04977   0.00000  Uiso   1.00
C147   C     0.87310   0.27146   0.45262   0.00000  Uiso   1.00
C148   C     0.81267   0.21467   0.09943   0.00000  Uiso   1.00
C149   C     0.87218   0.27128   0.40287   0.00000  Uiso   1.00
C150   C     0.85406   0.28521   0.10503   0.00000  Uiso   1.00
C151   C     0.79463   0.22854   0.39262   0.00000  Uiso   1.00
C152   C     0.85436   0.28589   0.05546   0.00000  Uiso   1.00
H153   H     0.91537   0.03005   0.28701   0.00000  Uiso   1.00
H154   H     0.76403   0.21169   0.36918   0.00000  Uiso   1.00
H155   H     0.87022   0.31487   0.03989   0.00000  Uiso   1.00
H156   H     0.76178   0.21169   0.45564   0.00000  Uiso   1.00
H157   H     0.73772   0.10650   0.17081   0.00000  Uiso   1.00
H158   H     0.71409   0.10596   0.22345   0.00000  Uiso   1.00
H159   H     0.71963   0.39504   0.26890   0.00000  Uiso   1.00
H160   H     0.75566   0.39445   0.32352   0.00000  Uiso   1.00
H161   H     0.90758   0.47031   0.21834   0.00000  Uiso   1.00
H162   H     0.75838   0.02807   0.21165   0.00000  Uiso   1.00
H163   H     0.76682   0.47249   0.28339   0.00000  Uiso   1.00
H164   H     0.79667   0.18482   0.02986   0.00000  Uiso   1.00
H165   H     0.90517   0.28794   0.47460   0.00000  Uiso   1.00
H166   H     0.79633   0.18684   0.11657   0.00000  Uiso   1.00
H167   H     0.90281   0.28807   0.38752   0.00000  Uiso   1.00
H168   H     0.87030   0.31310   0.12654   0.00000  Uiso   1.00
I169   I     0.98437   0.20036   0.17266   0.00000  Uiso   1.00
I170   I     0.68163   0.29903   0.32776   0.00000  Uiso   1.00
I171   I     0.94892   0.12778   0.30244   0.00000  Uiso   1.00
I172   I     0.93916   0.37313   0.20628   0.00000  Uiso   1.00
N173   N     0.83333   0.24999   0.12624   0.00000  Uiso   1.00
N174   N     0.83333   0.25001   0.37377   0.00000  Uiso   1.00
N175   N     0.74549   0.11622   0.20661   0.00000  Uiso   1.00
N176   N     0.75512   0.38460   0.28800   0.00000  Uiso   1.00
O177   O     0.83334   0.18454   0.28974   0.00000  Uiso   1.00
O178   O     0.83333   0.31547   0.21026   0.00000  Uiso   1.00
O179   O     0.83334   0.18453   0.21026   0.00000  Uiso   1.00
O180   O     0.83333   0.31547   0.28974   0.00000  Uiso   1.00
O181   O     0.75725   0.25000   0.28045   0.00000  Uiso   1.00
O182   O     0.90942   0.25000   0.21956   0.00000  Uiso   1.00
O183   O     0.75725   0.25000   0.20097   0.00000  Uiso   1.00
O184   O     0.90942   0.25001   0.29904   0.00000  Uiso   1.00
Zn185  Zn    0.83333   0.25001   0.30307   0.00000  Uiso   1.00
Zn186  Zn    0.83333   0.25000   0.19693   0.00000  Uiso   1.00
C187   C     0.16736   0.66407   0.24998   0.00000  Uiso   1.00
C188   C     0.12712   0.72824   0.44213   0.00000  Uiso   1.00
C189   C     0.16679   0.74983   0.02668   0.00000  Uiso   1.00
C190   C     0.16679   0.74983   0.47331   0.00000  Uiso   1.00
C191   C     0.06711   0.74998   0.23788   0.00000  Uiso   1.00
C192   C     0.26619   0.74993   0.26213   0.00000  Uiso   1.00
C193   C     0.01307   0.74291   0.23245   0.00000  Uiso   1.00
C194   C     0.32021   0.75676   0.26767   0.00000  Uiso   1.00
C195   C     0.21426   0.54773   0.27052   0.00000  Uiso   1.00
C196   C     0.21002   0.95265   0.23255   0.00000  Uiso   1.00
C197   C     0.21364   0.59398   0.27091   0.00000  Uiso   1.00
C198   C     0.16760   0.83603   0.25021   0.00000  Uiso   1.00
C199   C     0.20956   0.90639   0.23239   0.00000  Uiso   1.00
C200   C     0.16856   0.61637   0.24978   0.00000  Uiso   1.00
C201   C     0.16903   0.88392   0.25064   0.00000  Uiso   1.00
C202   C     0.12458   0.59293   0.22802   0.00000  Uiso   1.00
C203   C     0.12969   0.90759   0.26948   0.00000  Uiso   1.00
C204   C     0.12557   0.54660   0.22817   0.00000  Uiso   1.00
C205   C     0.13050   0.95390   0.26913   0.00000  Uiso   1.00
C206   C     0.17022   0.52427   0.24953   0.00000  Uiso   1.00
C207   C     0.17038   0.97616   0.25049   0.00000  Uiso   1.00
C208   C     0.14584   0.71384   0.04977   0.00000  Uiso   1.00
C209   C     0.20644   0.77146   0.45262   0.00000  Uiso   1.00
C210   C     0.14601   0.71467   0.09943   0.00000  Uiso   1.00
C211   C     0.20552   0.77128   0.40287   0.00000  Uiso   1.00
C212   C     0.18740   0.78521   0.10503   0.00000  Uiso   1.00
C213   C     0.12797   0.72854   0.39262   0.00000  Uiso   1.00
C214   C     0.18770   0.78589   0.05546   0.00000  Uiso   1.00
H215   H     0.24870   0.53005   0.28701   0.00000  Uiso   1.00
H216   H     0.09737   0.71169   0.36918   0.00000  Uiso   1.00
H217   H     0.20355   0.81487   0.03989   0.00000  Uiso   1.00
H218   H     0.09511   0.71169   0.45564   0.00000  Uiso   1.00
H219   H     0.07106   0.60650   0.17081   0.00000  Uiso   1.00
H220   H     0.04743   0.60596   0.22345   0.00000  Uiso   1.00
H221   H     0.05296   0.89504   0.26890   0.00000  Uiso   1.00
H222   H     0.08899   0.89445   0.32352   0.00000  Uiso   1.00
H223   H     0.24091   0.97031   0.21834   0.00000  Uiso   1.00
H224   H     0.09171   0.52807   0.21165   0.00000  Uiso   1.00
H225   H     0.10015   0.97249   0.28339   0.00000  Uiso   1.00
H226   H     0.13000   0.68482   0.02986   0.00000  Uiso   1.00
H227   H     0.23850   0.78794   0.47460   0.00000  Uiso   1.00
H228   H     0.12966   0.68684   0.11657   0.00000  Uiso   1.00
H229   H     0.23614   0.78807   0.38752   0.00000  Uiso   1.00
H230   H     0.20363   0.81310   0.12654   0.00000  Uiso   1.00
I231   I     0.31770   0.70036   0.17266   0.00000  Uiso   1.00
I232   I     0.01496   0.79903   0.32776   0.00000  Uiso   1.00
I233   I     0.28225   0.62778   0.30244   0.00000  Uiso   1.00
I234   I     0.27249   0.87313   0.20628   0.00000  Uiso   1.00
N235   N     0.16667   0.74999   0.12624   0.00000  Uiso   1.00
N236   N     0.16667   0.75001   0.37377   0.00000  Uiso   1.00
N237   N     0.07882   0.61622   0.20661   0.00000  Uiso   1.00
N238   N     0.08845   0.88460   0.28800   0.00000  Uiso   1.00
O239   O     0.16667   0.68454   0.28974   0.00000  Uiso   1.00
O240   O     0.16666   0.81547   0.21026   0.00000  Uiso   1.00
O241   O     0.16667   0.68453   0.21026   0.00000  Uiso   1.00
O242   O     0.16666   0.81547   0.28974   0.00000  Uiso   1.00
O243   O     0.09058   0.75000   0.28045   0.00000  Uiso   1.00
O244   O     0.24275   0.75000   0.21956   0.00000  Uiso   1.00
O245   O     0.09058   0.75000   0.20097   0.00000  Uiso   1.00
O246   O     0.24275   0.75001   0.29904   0.00000  Uiso   1.00
Zn247  Zn    0.16667   0.75001   0.30307   0.00000  Uiso   1.00
Zn248  Zn    0.16667   0.75000   0.19693   0.00000  Uiso   1.00
C249   C     0.50069   0.66407   0.24998   0.00000  Uiso   1.00
C250   C     0.46046   0.72824   0.44213   0.00000  Uiso   1.00
C251   C     0.50013   0.74983   0.02668   0.00000  Uiso   1.00
C252   C     0.50012   0.74983   0.47331   0.00000  Uiso   1.00
C253   C     0.40044   0.74998   0.23788   0.00000  Uiso   1.00
C254   C     0.59953   0.74993   0.26213   0.00000  Uiso   1.00
C255   C     0.34640   0.74291   0.23245   0.00000  Uiso   1.00
C256   C     0.65354   0.75676   0.26767   0.00000  Uiso   1.00
C257   C     0.54759   0.54773   0.27052   0.00000  Uiso   1.00
C258   C     0.54335   0.95265   0.23255   0.00000  Uiso   1.00
C259   C     0.54698   0.59398   0.27091   0.00000  Uiso   1.00
C260   C     0.50094   0.83603   0.25021   0.00000  Uiso   1.00
C261   C     0.54290   0.90639   0.23239   0.00000  Uiso   1.00
C262   C     0.50190   0.61637   0.24978   0.00000  Uiso   1.00
C263   C     0.50237   0.88392   0.25064   0.00000  Uiso   1.00
C264   C     0.45791   0.59293   0.22802   0.00000  Uiso   1.00
C265   C     0.46303   0.90759   0.26948   0.00000  Uiso   1.00
C266   C     0.45891   0.54660   0.22817   0.00000  Uiso   1.00
C267   C     0.46384   0.95390   0.26913   0.00000  Uiso   1.00
C268   C     0.50355   0.52427   0.24953   0.00000  Uiso   1.00
C269   C     0.50371   0.97616   0.25049   0.00000  Uiso   1.00
C270   C     0.47917   0.71384   0.04977   0.00000  Uiso   1.00
C271   C     0.53977   0.77146   0.45262   0.00000  Uiso   1.00
C272   C     0.47934   0.71467   0.09943   0.00000  Uiso   1.00
C273   C     0.53885   0.77128   0.40287   0.00000  Uiso   1.00
C274   C     0.52073   0.78521   0.10503   0.00000  Uiso   1.00
C275   C     0.46130   0.72854   0.39262   0.00000  Uiso   1.00
C276   C     0.52103   0.78589   0.05546   0.00000  Uiso   1.00
H277   H     0.58204   0.53005   0.28701   0.00000  Uiso   1.00
H278   H     0.43070   0.71169   0.36918   0.00000  Uiso   1.00
H279   H     0.53688   0.81487   0.03989   0.00000  Uiso   1.00
H280   H     0.42844   0.71169   0.45564   0.00000  Uiso   1.00
H281   H     0.40439   0.60650   0.17081   0.00000  Uiso   1.00
H282   H     0.38076   0.60596   0.22345   0.00000  Uiso   1.00
H283   H     0.38630   0.89504   0.26890   0.00000  Uiso   1.00
H284   H     0.42232   0.89445   0.32352   0.00000  Uiso   1.00
H285   H     0.57425   0.97031   0.21834   0.00000  Uiso   1.00
H286   H     0.42504   0.52807   0.21165   0.00000  Uiso   1.00
H287   H     0.43349   0.97249   0.28339   0.00000  Uiso   1.00
H288   H     0.46333   0.68482   0.02986   0.00000  Uiso   1.00
H289   H     0.57184   0.78794   0.47460   0.00000  Uiso   1.00
H290   H     0.46300   0.68684   0.11657   0.00000  Uiso   1.00
H291   H     0.56948   0.78807   0.38752   0.00000  Uiso   1.00
H292   H     0.53696   0.81310   0.12654   0.00000  Uiso   1.00
I293   I     0.65104   0.70036   0.17266   0.00000  Uiso   1.00
I294   I     0.34830   0.79903   0.32776   0.00000  Uiso   1.00
I295   I     0.61558   0.62778   0.30244   0.00000  Uiso   1.00
I296   I     0.60583   0.87313   0.20628   0.00000  Uiso   1.00
N297   N     0.50000   0.74999   0.12624   0.00000  Uiso   1.00
N298   N     0.50000   0.75001   0.37377   0.00000  Uiso   1.00
N299   N     0.41215   0.61622   0.20661   0.00000  Uiso   1.00
N300   N     0.42178   0.88460   0.28800   0.00000  Uiso   1.00
O301   O     0.50000   0.68454   0.28974   0.00000  Uiso   1.00
O302   O     0.50000   0.81547   0.21026   0.00000  Uiso   1.00
O303   O     0.50000   0.68453   0.21026   0.00000  Uiso   1.00
O304   O     0.50000   0.81547   0.28974   0.00000  Uiso   1.00
O305   O     0.42392   0.75000   0.28045   0.00000  Uiso   1.00
O306   O     0.57608   0.75000   0.21956   0.00000  Uiso   1.00
O307   O     0.42392   0.75000   0.20097   0.00000  Uiso   1.00
O308   O     0.57608   0.75001   0.29904   0.00000  Uiso   1.00
Zn309  Zn    0.50000   0.75001   0.30307   0.00000  Uiso   1.00
Zn310  Zn    0.50000   0.75000   0.19693   0.00000  Uiso   1.00
C311   C     0.83402   0.66407   0.24998   0.00000  Uiso   1.00
C312   C     0.79379   0.72824   0.44213   0.00000  Uiso   1.00
C313   C     0.83346   0.74983   0.02668   0.00000  Uiso   1.00
C314   C     0.83346   0.74983   0.47331   0.00000  Uiso   1.00
C315   C     0.73377   0.74998   0.23788   0.00000  Uiso   1.00
C316   C     0.93286   0.74993   0.26213   0.00000  Uiso   1.00
C317   C     0.67973   0.74291   0.23245   0.00000  Uiso   1.00
C318   C     0.98687   0.75676   0.26767   0.00000  Uiso   1.00
C319   C     0.88093   0.54773   0.27052   0.00000  Uiso   1.00
C320   C     0.87668   0.95265   0.23255   0.00000  Uiso   1.00
C321   C     0.88031   0.59398   0.27091   0.00000  Uiso   1.00
C322   C     0.83427   0.83603   0.25021   0.00000  Uiso   1.00
C323   C     0.87623   0.90639   0.23239   0.00000  Uiso   1.00
C324   C     0.83523   0.61637   0.24978   0.00000  Uiso   1.00
C325   C     0.83570   0.88392   0.25064   0.00000  Uiso   1.00
C326   C     0.79125   0.59293   0.22802   0.00000  Uiso   1.00
C327   C     0.79636   0.90759   0.26948   0.00000  Uiso   1.00
C328   C     0.79224   0.54660   0.22817   0.00000  Uiso   1.00
C329   C     0.79717   0.95390   0.26913   0.00000  Uiso   1.00
C330   C     0.83689   0.52427   0.24953   0.00000  Uiso   1.00
C331   C     0.83705   0.97616   0.25049   0.00000  Uiso   1.00
C332   C     0.81250   0.71384   0.04977   0.00000  Uiso   1.00
C333   C     0.87310   0.77146   0.45262   0.00000  Uiso   1.00
C334   C     0.81267   0.71467   0.09943   0.00000  Uiso   1.00
C335   C     0.87218   0.77128   0.40287   0.00000  Uiso   1.00
C336   C     0.85406   0.78521   0.10503   0.00000  Uiso   1.00
C337   C     0.79463   0.72854   0.39262   0.00000  Uiso   1.00
C338   C     0.85436   0.78589   0.05546   0.00000  Uiso   1.00
H339   H     0.91537   0.53005   0.28701   0.00000  Uiso   1.00
H340   H     0.76403   0.71169   0.36918   0.00000  Uiso   1.00
H341   H     0.87022   0.81487   0.03989   0.00000  Uiso   1.00
H342   H     0.76178   0.71169   0.45564   0.00000  Uiso   1.00
H343   H     0.73772   0.60650   0.17081   0.00000  Uiso   1.00
H344   H     0.71409   0.60596   0.22345   0.00000  Uiso   1.00
H345   H     0.71963   0.89504   0.26890   0.00000  Uiso   1.00
H346   H     0.75566   0.89445   0.32352   0.00000  Uiso   1.00
H347   H     0.90758   0.97031   0.21834   0.00000  Uiso   1.00
H348   H     0.75838   0.52807   0.21165   0.00000  Uiso   1.00
H349   H     0.76682   0.97249   0.28339   0.00000  Uiso   1.00
H350   H     0.79667   0.68482   0.02986   0.00000  Uiso   1.00
H351   H     0.90517   0.78794   0.47460   0.00000  Uiso   1.00
H352   H     0.79633   0.68684   0.11657   0.00000  Uiso   1.00
H353   H     0.90281   0.78807   0.38752   0.00000  Uiso   1.00
H354   H     0.87030   0.81310   0.12654   0.00000  Uiso   1.00
I355   I     0.98437   0.70036   0.17266   0.00000  Uiso   1.00
I356   I     0.68163   0.79903   0.32776   0.00000  Uiso   1.00
I357   I     0.94892   0.62778   0.30244   0.00000  Uiso   1.00
I358   I     0.93916   0.87313   0.20628   0.00000  Uiso   1.00
N359   N     0.83333   0.74999   0.12624   0.00000  Uiso   1.00
N360   N     0.83333   0.75001   0.37377   0.00000  Uiso   1.00
N361   N     0.74549   0.61622   0.20661   0.00000  Uiso   1.00
N362   N     0.75512   0.88460   0.28800   0.00000  Uiso   1.00
O363   O     0.83334   0.68454   0.28974   0.00000  Uiso   1.00
O364   O     0.83333   0.81547   0.21026   0.00000  Uiso   1.00
O365   O     0.83334   0.68453   0.21026   0.00000  Uiso   1.00
O366   O     0.83333   0.81547   0.28974   0.00000  Uiso   1.00
O367   O     0.75725   0.75000   0.28045   0.00000  Uiso   1.00
O368   O     0.90942   0.75000   0.21956   0.00000  Uiso   1.00
O369   O     0.75725   0.75000   0.20097   0.00000  Uiso   1.00
O370   O     0.90942   0.75001   0.29904   0.00000  Uiso   1.00
Zn371  Zn    0.83333   0.75001   0.30307   0.00000  Uiso   1.00
Zn372  Zn    0.83333   0.75000   0.19693   0.00000  Uiso   1.00
C373   C     0.16736   0.16407   0.74998   0.00000  Uiso   1.00
C374   C     0.12712   0.22824   0.94213   0.00000  Uiso   1.00
C375   C     0.16679   0.24983   0.52668   0.00000  Uiso   1.00
C376   C     0.16679   0.24983   0.97331   0.00000  Uiso   1.00
C377   C     0.06711   0.24998   0.73788   0.00000  Uiso   1.00
C378   C     0.26619   0.24993   0.76213   0.00000  Uiso   1.00
C379   C     0.01307   0.24291   0.73245   0.00000  Uiso   1.00
C380   C     0.32021   0.25676   0.76767   0.00000  Uiso   1.00
C381   C     0.21426   0.04773   0.77052   0.00000  Uiso   1.00
C382   C     0.21002   0.45265   0.73255   0.00000  Uiso   1.00
C383   C     0.21364   0.09398   0.77091   0.00000  Uiso   1.00
C384   C     0.16760   0.33603   0.75021   0.00000  Uiso   1.00
C385   C     0.20956   0.40639   0.73239   0.00000  Uiso   1.00
C386   C     0.16856   0.11637   0.74978   0.00000  Uiso   1.00
C387   C     0.16903   0.38392   0.75064   0.00000  Uiso   1.00
C388   C     0.12458   0.09293   0.72802   0.00000  Uiso   1.00
C389   C     0.12969   0.40759   0.76948   0.00000  Uiso   1.00
C390   C     0.12557   0.04660   0.72817   0.00000  Uiso   1.00
C391   C     0.13050   0.45390   0.76913   0.00000  Uiso   1.00
C392   C     0.17022   0.02427   0.74953   0.00000  Uiso   1.00
C393   C     0.17038   0.47616   0.75049   0.00000  Uiso   1.00
C394   C     0.14584   0.21384   0.54977   0.00000  Uiso   1.00
C395   C     0.20644   0.27146   0.95262   0.00000  Uiso   1.00
C396   C     0.14601   0.21467   0.59943   0.00000  Uiso   1.00
C397   C     0.20552   0.27128   0.90287   0.00000  Uiso   1.00
C398   C     0.18740   0.28521   0.60503   0.00000  Uiso   1.00
C399   C     0.12797   0.22854   0.89262   0.00000  Uiso   1.00
C400   C     0.18770   0.28589   0.55546   0.00000  Uiso   1.00
H401   H     0.24870   0.03005   0.78701   0.00000  Uiso   1.00
H402   H     0.09737   0.21169   0.86918   0.00000  Uiso   1.00
H403   H     0.20355   0.31487   0.53989   0.00000  Uiso   1.00
H404   H     0.09511   0.21169   0.95564   0.00000  Uiso   1.00
H405   H     0.07106   0.10650   0.67081   0.00000  Uiso   1.00
H406   H     0.04743   0.10596   0.72345   0.00000  Uiso   1.00
H407   H     0.05296   0.39504   0.76890   0.00000  Uiso   1.00
H408   H     0.08899   0.39445   0.82352   0.00000  Uiso   1.00
H409   H     0.24091   0.47031   0.71834   0.00000  Uiso   1.00
H410   H     0.09171   0.02807   0.71165   0.00000  Uiso   1.00
H411   H     0.10015   0.47249   0.78339   0.00000  Uiso   1.00
H412   H     0.13000   0.18482   0.52986   0.00000  Uiso   1.00
H413   H     0.23850   0.28794   0.97460   0.00000  Uiso   1.00
H414   H     0.12966   0.18684   0.61657   0.00000  Uiso   1.00
H415   H     0.23614   0.28807   0.88752   0.00000  Uiso   1.00
H416   H     0.20363   0.31310   0.62654   0.00000  Uiso   1.00
I417   I     0.31770   0.20036   0.67266   0.00000  Uiso   1.00
I418   I     0.01496   0.29903   0.82776   0.00000  Uiso   1.00
I419   I     0.28225   0.12778   0.80244   0.00000  Uiso   1.00
I420   I     0.27249   0.37313   0.70628   0.00000  Uiso   1.00
N421   N     0.16667   0.24999   0.62624   0.00000  Uiso   1.00
N422   N     0.16667   0.25001   0.87377   0.00000  Uiso   1.00
N423   N     0.07882   0.11622   0.70661   0.00000  Uiso   1.00
N424   N     0.08845   0.38460   0.78800   0.00000  Uiso   1.00
O425   O     0.16667   0.18454   0.78974   0.00000  Uiso   1.00
O426   O     0.16666   0.31547   0.71026   0.00000  Uiso   1.00
O427   O     0.16667   0.18453   0.71026   0.00000  Uiso   1.00
O428   O     0.16666   0.31547   0.78974   0.00000  Uiso   1.00
O429   O     0.09058   0.25000   0.78045   0.00000  Uiso   1.00
O430   O     0.24275   0.25000   0.71956   0.00000  Uiso   1.00
O431   O     0.09058   0.25000   0.70097   0.00000  Uiso   1.00
O432   O     0.24275   0.25001   0.79904   0.00000  Uiso   1.00
Zn433  Zn    0.16667   0.25001   0.80307   0.00000  Uiso   1.00
Zn434  Zn    0.16667   0.25000   0.69693   0.00000  Uiso   1.00
C435   C     0.50069   0.16407   0.74998   0.00000  Uiso   1.00
C436   C     0.46046   0.22824   0.94213   0.00000  Uiso   1.00
C437   C     0.50013   0.24983   0.52668   0.00000  Uiso   1.00
C438   C     0.50012   0.24983   0.97331   0.00000  Uiso   1.00
C439   C     0.40044   0.24998   0.73788   0.00000  Uiso   1.00
C440   C     0.59953   0.24993   0.76213   0.00000  Uiso   1.00
C441   C     0.34640   0.24291   0.73245   0.00000  Uiso   1.00
C442   C     0.65354   0.25676   0.76767   0.00000  Uiso   1.00
C443   C     0.54759   0.04773   0.77052   0.00000  Uiso   1.00
C444   C     0.54335   0.45265   0.73255   0.00000  Uiso   1.00
C445   C     0.54698   0.09398   0.77091   0.00000  Uiso   1.00
C446   C     0.50094   0.33603   0.75021   0.00000  Uiso   1.00
C447   C     0.54290   0.40639   0.73239   0.00000  Uiso   1.00
C448   C     0.50190   0.11637   0.74978   0.00000  Uiso   1.00
C449   C     0.50237   0.38392   0.75064   0.00000  Uiso   1.00
C450   C     0.45791   0.09293   0.72802   0.00000  Uiso   1.00
C451   C     0.46303   0.40759   0.76948   0.00000  Uiso   1.00
C452   C     0.45891   0.04660   0.72817   0.00000  Uiso   1.00
C453   C     0.46384   0.45390   0.76913   0.00000  Uiso   1.00
C454   C     0.50355   0.02427   0.74953   0.00000  Uiso   1.00
C455   C     0.50371   0.47616   0.75049   0.00000  Uiso   1.00
C456   C     0.47917   0.21384   0.54977   0.00000  Uiso   1.00
C457   C     0.53977   0.27146   0.95262   0.00000  Uiso   1.00
C458   C     0.47934   0.21467   0.59943   0.00000  Uiso   1.00
C459   C     0.53885   0.27128   0.90287   0.00000  Uiso   1.00
C460   C     0.52073   0.28521   0.60503   0.00000  Uiso   1.00
C461   C     0.46130   0.22854   0.89262   0.00000  Uiso   1.00
C462   C     0.52103   0.28589   0.55546   0.00000  Uiso   1.00
H463   H     0.58204   0.03005   0.78701   0.00000  Uiso   1.00
H464   H     0.43070   0.21169   0.86918   0.00000  Uiso   1.00
H465   H     0.53688   0.31487   0.53989   0.00000  Uiso   1.00
H466   H     0.42844   0.21169   0.95564   0.00000  Uiso   1.00
H467   H     0.40439   0.10650   0.67081   0.00000  Uiso   1.00
H468   H     0.38076   0.10596   0.72345   0.00000  Uiso   1.00
H469   H     0.38630   0.39504   0.76890   0.00000  Uiso   1.00
H470   H     0.42232   0.39445   0.82352   0.00000  Uiso   1.00
H471   H     0.57425   0.47031   0.71834   0.00000  Uiso   1.00
H472   H     0.42504   0.02807   0.71165   0.00000  Uiso   1.00
H473   H     0.43349   0.47249   0.78339   0.00000  Uiso   1.00
H474   H     0.46333   0.18482   0.52986   0.00000  Uiso   1.00
H475   H     0.57184   0.28794   0.97460   0.00000  Uiso   1.00
H476   H     0.46300   0.18684   0.61657   0.00000  Uiso   1.00
H477   H     0.56948   0.28807   0.88752   0.00000  Uiso   1.00
H478   H     0.53696   0.31310   0.62654   0.00000  Uiso   1.00
I479   I     0.65104   0.20036   0.67266   0.00000  Uiso   1.00
I480   I     0.34830   0.29903   0.82776   0.00000  Uiso   1.00
I481   I     0.61558   0.12778   0.80244   0.00000  Uiso   1.00
I482   I     0.60583   0.37313   0.70628   0.00000  Uiso   1.00
N483   N     0.50000   0.24999   0.62624   0.00000  Uiso   1.00
N484   N     0.50000   0.25001   0.87377   0.00000  Uiso   1.00
N485   N     0.41215   0.11622   0.70661   0.00000  Uiso   1.00
N486   N     0.42178   0.38460   0.78800   0.00000  Uiso   1.00
O487   O     0.50000   0.18454   0.78974   0.00000  Uiso   1.00
O488   O     0.50000   0.31547   0.71026   0.00000  Uiso   1.00
O489   O     0.50000   0.18453   0.71026   0.00000  Uiso   1.00
O490   O     0.50000   0.31547   0.78974   0.00000  Uiso   1.00
O491   O     0.42392   0.25000   0.78045   0.00000  Uiso   1.00
O492   O     0.57608   0.25000   0.71956   0.00000  Uiso   1.00
O493   O     0.42392   0.25000   0.70097   0.00000  Uiso   1.00
O494   O     0.57608   0.25001   0.79904   0.00000  Uiso   1.00
Zn495  Zn    0.50000   0.25001   0.80307   0.00000  Uiso   1.00
Zn496  Zn    0.50000   0.25000   0.69693   0.00000  Uiso   1.00
C497   C     0.83402   0.16407   0.74998   0.00000  Uiso   1.00
C498   C     0.79379   0.22824   0.94213   0.00000  Uiso   1.00
C499   C     0.83346   0.24983   0.52668   0.00000  Uiso   1.00
C500   C     0.83346   0.24983   0.97331   0.00000  Uiso   1.00
C501   C     0.73377   0.24998   0.73788   0.00000  Uiso   1.00
C502   C     0.93286   0.24993   0.76213   0.00000  Uiso   1.00
C503   C     0.67973   0.24291   0.73245   0.00000  Uiso   1.00
C504   C     0.98687   0.25676   0.76767   0.00000  Uiso   1.00
C505   C     0.88093   0.04773   0.77052   0.00000  Uiso   1.00
C506   C     0.87668   0.45265   0.73255   0.00000  Uiso   1.00
C507   C     0.88031   0.09398   0.77091   0.00000  Uiso   1.00
C508   C     0.83427   0.33603   0.75021   0.00000  Uiso   1.00
C509   C     0.87623   0.40639   0.73239   0.00000  Uiso   1.00
C510   C     0.83523   0.11637   0.74978   0.00000  Uiso   1.00
C511   C     0.83570   0.38392   0.75064   0.00000  Uiso   1.00
C512   C     0.79125   0.09293   0.72802   0.00000  Uiso   1.00
C513   C     0.79636   0.40759   0.76948   0.00000  Uiso   1.00
C514   C     0.79224   0.04660   0.72817   0.00000  Uiso   1.00
C515   C     0.79717   0.45390   0.76913   0.00000  Uiso   1.00
C516   C     0.83689   0.02427   0.74953   0.00000  Uiso   1.00
C517   C     0.83705   0.47616   0.75049   0.00000  Uiso   1.00
C518   C     0.81250   0.21384   0.54977   0.00000  Uiso   1.00
C519   C     0.87310   0.27146   0.95262   0.00000  Uiso   1.00
C520   C     0.81267   0.21467   0.59943   0.00000  Uiso   1.00
C521   C     0.87218   0.27128   0.90287   0.00000  Uiso   1.00
C522   C     0.85406   0.28521   0.60503   0.00000  Uiso   1.00
C523   C     0.79463   0.22854   0.89262   0.00000  Uiso   1.00
C524   C     0.85436   0.28589   0.55546   0.00000  Uiso   1.00
H525   H     0.91537   0.03005   0.78701   0.00000  Uiso   1.00
H526   H     0.76403   0.21169   0.86918   0.00000  Uiso   1.00
H527   H     0.87022   0.31487   0.53989   0.00000  Uiso   1.00
H528   H     0.76178   0.21169   0.95564   0.00000  Uiso   1.00
H529   H     0.73772   0.10650   0.67081   0.00000  Uiso   1.00
H530   H     0.71409   0.10596   0.72345   0.00000  Uiso   1.00
H531   H     0.71963   0.39504   0.76890   0.00000  Uiso   1.00
H532   H     0.75566   0.39445   0.82352   0.00000  Uiso   1.00
H533   H     0.90758   0.47031   0.71834   0.00000  Uiso   1.00
H534   H     0.75838   0.02807   0.71165   0.00000  Uiso   1.00
H535   H     0.76682   0.47249   0.78339   0.00000  Uiso   1.00
H536   H     0.79667   0.18482   0.52986   0.00000  Uiso   1.00
H537   H     0.90517   0.28794   0.97460   0.00000  Uiso   1.00
H538   H     0.79633   0.18684   0.61657   0.00000  Uiso   1.00
H539   H     0.90281   0.28807   0.88752   0.00000  Uiso   1.00
H540   H     0.87030   0.31310   0.62654   0.00000  Uiso   1.00
I541   I     0.98437   0.20036   0.67266   0.00000  Uiso   1.00
I542   I     0.68163   0.29903   0.82776   0.00000  Uiso   1.00
I543   I     0.94892   0.12778   0.80244   0.00000  Uiso   1.00
I544   I     0.93916   0.37313   0.70628   0.00000  Uiso   1.00
N545   N     0.83333   0.24999   0.62624   0.00000  Uiso   1.00
N546   N     0.83333   0.25001   0.87377   0.00000  Uiso   1.00
N547   N     0.74549   0.11622   0.70661   0.00000  Uiso   1.00
N548   N     0.75512   0.38460   0.78800   0.00000  Uiso   1.00
O549   O     0.83334   0.18454   0.78974   0.00000  Uiso   1.00
O550   O     0.83333   0.31547   0.71026   0.00000  Uiso   1.00
O551   O     0.83334   0.18453   0.71026   0.00000  Uiso   1.00
O552   O     0.83333   0.31547   0.78974   0.00000  Uiso   1.00
O553   O     0.75725   0.25000   0.78045   0.00000  Uiso   1.00
O554   O     0.90942   0.25000   0.71956   0.00000  Uiso   1.00
O555   O     0.75725   0.25000   0.70097   0.00000  Uiso   1.00
O556   O     0.90942   0.25001   0.79904   0.00000  Uiso   1.00
Zn557  Zn    0.83333   0.25001   0.80307   0.00000  Uiso   1.00
Zn558  Zn    0.83333   0.25000   0.69693   0.00000  Uiso   1.00
C559   C     0.16736   0.66407   0.74998   0.00000  Uiso   1.00
C560   C     0.12712   0.72824   0.94213   0.00000  Uiso   1.00
C561   C     0.16679   0.74983   0.52668   0.00000  Uiso   1.00
C562   C     0.16679   0.74983   0.97331   0.00000  Uiso   1.00
C563   C     0.06711   0.74998   0.73788   0.00000  Uiso   1.00
C564   C     0.26619   0.74993   0.76213   0.00000  Uiso   1.00
C565   C     0.01307   0.74291   0.73245   0.00000  Uiso   1.00
C566   C     0.32021   0.75676   0.76767   0.00000  Uiso   1.00
C567   C     0.21426   0.54773   0.77052   0.00000  Uiso   1.00
C568   C     0.21002   0.95265   0.73255   0.00000  Uiso   1.00
C569   C     0.21364   0.59398   0.77091   0.00000  Uiso   1.00
C570   C     0.16760   0.83603   0.75021   0.00000  Uiso   1.00
C571   C     0.20956   0.90639   0.73239   0.00000  Uiso   1.00
C572   C     0.16856   0.61637   0.74978   0.00000  Uiso   1.00
C573   C     0.16903   0.88392   0.75064   0.00000  Uiso   1.00
C574   C     0.12458   0.59293   0.72802   0.00000  Uiso   1.00
C575   C     0.12969   0.90759   0.76948   0.00000  Uiso   1.00
C576   C     0.12557   0.54660   0.72817   0.00000  Uiso   1.00
C577   C     0.13050   0.95390   0.76913   0.00000  Uiso   1.00
C578   C     0.17022   0.52427   0.74953   0.00000  Uiso   1.00
C579   C     0.17038   0.97616   0.75049   0.00000  Uiso   1.00
C580   C     0.14584   0.71384   0.54977   0.00000  Uiso   1.00
C581   C     0.20644   0.77146   0.95262   0.00000  Uiso   1.00
C582   C     0.14601   0.71467   0.59943   0.00000  Uiso   1.00
C583   C     0.20552   0.77128   0.90287   0.00000  Uiso   1.00
C584   C     0.18740   0.78521   0.60503   0.00000  Uiso   1.00
C585   C     0.12797   0.72854   0.89262   0.00000  Uiso   1.00
C586   C     0.18770   0.78589   0.55546   0.00000  Uiso   1.00
H587   H     0.24870   0.53005   0.78701   0.00000  Uiso   1.00
H588   H     0.09737   0.71169   0.86918   0.00000  Uiso   1.00
H589   H     0.20355   0.81487   0.53989   0.00000  Uiso   1.00
H590   H     0.09511   0.71169   0.95564   0.00000  Uiso   1.00
H591   H     0.07106   0.60650   0.67081   0.00000  Uiso   1.00
H592   H     0.04743   0.60596   0.72345   0.00000  Uiso   1.00
H593   H     0.05296   0.89504   0.76890   0.00000  Uiso   1.00
H594   H     0.08899   0.89445   0.82352   0.00000  Uiso   1.00
H595   H     0.24091   0.97031   0.71834   0.00000  Uiso   1.00
H596   H     0.09171   0.52807   0.71165   0.00000  Uiso   1.00
H597   H     0.10015   0.97249   0.78339   0.00000  Uiso   1.00
H598   H     0.13000   0.68482   0.52986   0.00000  Uiso   1.00
H599   H     0.23850   0.78794   0.97460   0.00000  Uiso   1.00
H600   H     0.12966   0.68684   0.61657   0.00000  Uiso   1.00
H601   H     0.23614   0.78807   0.88752   0.00000  Uiso   1.00
H602   H     0.20363   0.81310   0.62654   0.00000  Uiso   1.00
I603   I     0.31770   0.70036   0.67266   0.00000  Uiso   1.00
I604   I     0.01496   0.79903   0.82776   0.00000  Uiso   1.00
I605   I     0.28225   0.62778   0.80244   0.00000  Uiso   1.00
I606   I     0.27249   0.87313   0.70628   0.00000  Uiso   1.00
N607   N     0.16667   0.74999   0.62624   0.00000  Uiso   1.00
N608   N     0.16667   0.75001   0.87377   0.00000  Uiso   1.00
N609   N     0.07882   0.61622   0.70661   0.00000  Uiso   1.00
N610   N     0.08845   0.88460   0.78800   0.00000  Uiso   1.00
O611   O     0.16667   0.68454   0.78974   0.00000  Uiso   1.00
O612   O     0.16666   0.81547   0.71026   0.00000  Uiso   1.00
O613   O     0.16667   0.68453   0.71026   0.00000  Uiso   1.00
O614   O     0.16666   0.81547   0.78974   0.00000  Uiso   1.00
O615   O     0.09058   0.75000   0.78045   0.00000  Uiso   1.00
O616   O     0.24275   0.75000   0.71956   0.00000  Uiso   1.00
O617   O     0.09058   0.75000   0.70097   0.00000  Uiso   1.00
O618   O     0.24275   0.75001   0.79904   0.00000  Uiso   1.00
Zn619  Zn    0.16667   0.75001   0.80307   0.00000  Uiso   1.00
Zn620  Zn    0.16667   0.75000   0.69693   0.00000  Uiso   1.00
C621   C     0.50069   0.66407   0.74998   0.00000  Uiso   1.00
C622   C     0.46046   0.72824   0.94213   0.00000  Uiso   1.00
C623   C     0.50013   0.74983   0.52668   0.00000  Uiso   1.00
C624   C     0.50012   0.74983   0.97331   0.00000  Uiso   1.00
C625   C     0.40044   0.74998   0.73788   0.00000  Uiso   1.00
C626   C     0.59953   0.74993   0.76213   0.00000  Uiso   1.00
C627   C     0.34640   0.74291   0.73245   0.00000  Uiso   1.00
C628   C     0.65354   0.75676   0.76767   0.00000  Uiso   1.00
C629   C     0.54759   0.54773   0.77052   0.00000  Uiso   1.00
C630   C     0.54335   0.95265   0.73255   0.00000  Uiso   1.00
C631   C     0.54698   0.59398   0.77091   0.00000  Uiso   1.00
C632   C     0.50094   0.83603   0.75021   0.00000  Uiso   1.00
C633   C     0.54290   0.90639   0.73239   0.00000  Uiso   1.00
C634   C     0.50190   0.61637   0.74978   0.00000  Uiso   1.00
C635   C     0.50237   0.88392   0.75064   0.00000  Uiso   1.00
C636   C     0.45791   0.59293   0.72802   0.00000  Uiso   1.00
C637   C     0.46303   0.90759   0.76948   0.00000  Uiso   1.00
C638   C     0.45891   0.54660   0.72817   0.00000  Uiso   1.00
C639   C     0.46384   0.95390   0.76913   0.00000  Uiso   1.00
C640   C     0.50355   0.52427   0.74953   0.00000  Uiso   1.00
C641   C     0.50371   0.97616   0.75049   0.00000  Uiso   1.00
C642   C     0.47917   0.71384   0.54977   0.00000  Uiso   1.00
C643   C     0.53977   0.77146   0.95262   0.00000  Uiso   1.00
C644   C     0.47934   0.71467   0.59943   0.00000  Uiso   1.00
C645   C     0.53885   0.77128   0.90287   0.00000  Uiso   1.00
C646   C     0.52073   0.78521   0.60503   0.00000  Uiso   1.00
C647   C     0.46130   0.72854   0.89262   0.00000  Uiso   1.00
C648   C     0.52103   0.78589   0.55546   0.00000  Uiso   1.00
H649   H     0.58204   0.53005   0.78701   0.00000  Uiso   1.00
H650   H     0.43070   0.71169   0.86918   0.00000  Uiso   1.00
H651   H     0.53688   0.81487   0.53989   0.00000  Uiso   1.00
H652   H     0.42844   0.71169   0.95564   0.00000  Uiso   1.00
H653   H     0.40439   0.60650   0.67081   0.00000  Uiso   1.00
H654   H     0.38076   0.60596   0.72345   0.00000  Uiso   1.00
H655   H     0.38630   0.89504   0.76890   0.00000  Uiso   1.00
H656   H     0.42232   0.89445   0.82352   0.00000  Uiso   1.00
H657   H     0.57425   0.97031   0.71834   0.00000  Uiso   1.00
H658   H     0.42504   0.52807   0.71165   0.00000  Uiso   1.00
H659   H     0.43349   0.97249   0.78339   0.00000  Uiso   1.00
H660   H     0.46333   0.68482   0.52986   0.00000  Uiso   1.00
H661   H     0.57184   0.78794   0.97460   0.00000  Uiso   1.00
H662   H     0.46300   0.68684   0.61657   0.00000  Uiso   1.00
H663   H     0.56948   0.78807   0.88752   0.00000  Uiso   1.00
H664   H     0.53696   0.81310   0.62654   0.00000  Uiso   1.00
I665   I     0.65104   0.70036   0.67266   0.00000  Uiso   1.00
I666   I     0.34830   0.79903   0.82776   0.00000  Uiso   1.00
I667   I     0.61558   0.62778   0.80244   0.00000  Uiso   1.00
I668   I     0.60583   0.87313   0.70628   0.00000  Uiso   1.00
N669   N     0.50000   0.74999   0.62624   0.00000  Uiso   1.00
N670   N     0.50000   0.75001   0.87377   0.00000  Uiso   1.00
N671   N     0.41215   0.61622   0.70661   0.00000  Uiso   1.00
N672   N     0.42178   0.88460   0.78800   0.00000  Uiso   1.00
O673   O     0.50000   0.68454   0.78974   0.00000  Uiso   1.00
O674   O     0.50000   0.81547   0.71026   0.00000  Uiso   1.00
O675   O     0.50000   0.68453   0.71026   0.00000  Uiso   1.00
O676   O     0.50000   0.81547   0.78974   0.00000  Uiso   1.00
O677   O     0.42392   0.75000   0.78045   0.00000  Uiso   1.00
O678   O     0.57608   0.75000   0.71956   0.00000  Uiso   1.00
O679   O     0.42392   0.75000   0.70097   0.00000  Uiso   1.00
O680   O     0.57608   0.75001   0.79904   0.00000  Uiso   1.00
Zn681  Zn    0.50000   0.75001   0.80307   0.00000  Uiso   1.00
Zn682  Zn    0.50000   0.75000   0.69693   0.00000  Uiso   1.00
C683   C     0.83402   0.66407   0.74998   0.00000  Uiso   1.00
C684   C     0.79379   0.72824   0.94213   0.00000  Uiso   1.00
C685   C     0.83346   0.74983   0.52668   0.00000  Uiso   1.00
C686   C     0.83346   0.74983   0.97331   0.00000  Uiso   1.00
C687   C     0.73377   0.74998   0.73788   0.00000  Uiso   1.00
C688   C     0.93286   0.74993   0.76213   0.00000  Uiso   1.00
C689   C     0.67973   0.74291   0.73245   0.00000  Uiso   1.00
C690   C     0.98687   0.75676   0.76767   0.00000  Uiso   1.00
C691   C     0.88093   0.54773   0.77052   0.00000  Uiso   1.00
C692   C     0.87668   0.95265   0.73255   0.00000  Uiso   1.00
C693   C     0.88031   0.59398   0.77091   0.00000  Uiso   1.00
C694   C     0.83427   0.83603   0.75021   0.00000  Uiso   1.00
C695   C     0.87623   0.90639   0.73239   0.00000  Uiso   1.00
C696   C     0.83523   0.61637   0.74978   0.00000  Uiso   1.00
C697   C     0.83570   0.88392   0.75064   0.00000  Uiso   1.00
C698   C     0.79125   0.59293   0.72802   0.00000  Uiso   1.00
C699   C     0.79636   0.90759   0.76948   0.00000  Uiso   1.00
C700   C     0.79224   0.54660   0.72817   0.00000  Uiso   1.00
C701   C     0.79717   0.95390   0.76913   0.00000  Uiso   1.00
C702   C     0.83689   0.52427   0.74953   0.00000  Uiso   1.00
C703   C     0.83705   0.97616   0.75049   0.00000  Uiso   1.00
C704   C     0.81250   0.71384   0.54977   0.00000  Uiso   1.00
C705   C     0.87310   0.77146   0.95262   0.00000  Uiso   1.00
C706   C     0.81267   0.71467   0.59943   0.00000  Uiso   1.00
C707   C     0.87218   0.77128   0.90287   0.00000  Uiso   1.00
C708   C     0.85406   0.78521   0.60503   0.00000  Uiso   1.00
C709   C     0.79463   0.72854   0.89262   0.00000  Uiso   1.00
C710   C     0.85436   0.78589   0.55546   0.00000  Uiso   1.00
H711   H     0.91537   0.53005   0.78701   0.00000  Uiso   1.00
H712   H     0.76403   0.71169   0.86918   0.00000  Uiso   1.00
H713   H     0.87022   0.81487   0.53989   0.00000  Uiso   1.00
H714   H     0.76178   0.71169   0.95564   0.00000  Uiso   1.00
H715   H     0.73772   0.60650   0.67081   0.00000  Uiso   1.00
H716   H     0.71409   0.60596   0.72345   0.00000  Uiso   1.00
H717   H     0.71963   0.89504   0.76890   0.00000  Uiso   1.00
H718   H     0.75566   0.89445   0.82352   0.00000  Uiso   1.00
H719   H     0.90758   0.97031   0.71834   0.00000  Uiso   1.00
H720   H     0.75838   0.52807   0.71165   0.00000  Uiso   1.00
H721   H     0.76682   0.97249   0.78339   0.00000  Uiso   1.00
H722   H     0.79667   0.68482   0.52986   0.00000  Uiso   1.00
H723   H     0.90517   0.78794   0.97460   0.00000  Uiso   1.00
H724   H     0.79633   0.68684   0.61657   0.00000  Uiso   1.00
H725   H     0.90281   0.78807   0.88752   0.00000  Uiso   1.00
H726   H     0.87030   0.81310   0.62654   0.00000  Uiso   1.00
I727   I     0.98437   0.70036   0.67266   0.00000  Uiso   1.00
I728   I     0.68163   0.79903   0.82776   0.00000  Uiso   1.00
I729   I     0.94892   0.62778   0.80244   0.00000  Uiso   1.00
I730   I     0.93916   0.87313   0.70628   0.00000  Uiso   1.00
N731   N     0.83333   0.74999   0.62624   0.00000  Uiso   1.00
N732   N     0.83333   0.75001   0.87377   0.00000  Uiso   1.00
N733   N     0.74549   0.61622   0.70661   0.00000  Uiso   1.00
N734   N     0.75512   0.88460   0.78800   0.00000  Uiso   1.00
O735   O     0.83334   0.68454   0.78974   0.00000  Uiso   1.00
O736   O     0.83333   0.81547   0.71026   0.00000  Uiso   1.00
O737   O     0.83334   0.68453   0.71026   0.00000  Uiso   1.00
O738   O     0.83333   0.81547   0.78974   0.00000  Uiso   1.00
O739   O     0.75725   0.75000   0.78045   0.00000  Uiso   1.00
O740   O     0.90942   0.75000   0.71956   0.00000  Uiso   1.00
O741   O     0.75725   0.75000   0.70097   0.00000  Uiso   1.00
O742   O     0.90942   0.75001   0.79904   0.00000  Uiso   1.00
Zn743  Zn    0.83333   0.75001   0.80307   0.00000  Uiso   1.00
Zn744  Zn    0.83333   0.75000   0.69693   0.00000  Uiso   1.00
loop_
_geom_bond_atom_site_label_1
_geom_bond_atom_site_label_2
_geom_bond_distance
_geom_bond_site_symmetry_2
_ccdc_geom_bond_type
C1     C14     1.427   .     S
C1     O55     1.281   .     A
C1     O53     1.282   .     A
C2     C4      1.410   .     A
C2     C27     1.406   .     A
C2     H32     1.082   .     S
C3     C28     1.410   .     A
C3     C22     1.410   .     A
C3     C376    1.512   1_554 S
C4     C23     1.411   .     A
C4     C375    1.512   .     S
C5     O57     1.271   .     A
C5     O59     1.282   .     A
C5     C7      1.401   .     S
C6     O58     1.271   .     A
C6     O60     1.281   .     A
C6     C8      1.399   .     S
C7     C132    1.347   1_455 S
C7     I169    2.160   1_455 S
C8     C69     1.347   .     S
C8     I108    2.158   .     S
C9     H29     1.084   .     S
C9     C20     1.396   .     A
C9     C11     1.383   .     A
C10    H37     1.084   .     S
C10    C21     1.395   .     A
C10    C13     1.384   .     A
C11    I47     2.125   .     S
C11    C14     1.404   .     A
C12    C15     1.433   .     S
C12    O56     1.283   .     A
C12    O54     1.283   .     A
C13    I48     2.126   .     S
C13    C15     1.406   .     A
C14    C16     1.402   .     A
C15    C17     1.404   .     A
C16    N51     1.433   .     S
C16    C18     1.386   .     A
C17    N52     1.432   .     S
C17    C19     1.385   .     A
C18    C20     1.396   .     A
C18    H38     1.084   .     S
C19    H39     1.084   .     S
C19    C21     1.395   .     A
C20    C207    1.439   1_545 S
C21    C206    1.439   .     S
C22    H40     1.082   .     S
C22    C24     1.407   .     A
C23    H41     1.082   .     S
C23    C25     1.406   .     A
C24    H42     1.082   .     S
C24    N49     1.363   .     A
C25    H43     1.082   .     S
C25    N50     1.362   .     A
C26    H44     1.080   .     S
C26    N49     1.363   .     A
C26    C28     1.406   .     A
C27    H30     1.082   .     S
C27    N50     1.363   .     A
C28    H31     1.082   .     S
H33    N51     1.046   .     S
H34    N51     1.046   .     S
H35    N52     1.045   .     S
H36    N52     1.046   .     S
I45    C69     2.160   .     S
I46    C132    2.158   1_455 S
N49    Zn62    2.003   .     S
N50    Zn61    2.003   .     S
O53    Zn61    1.993   .     S
O54    Zn62    1.993   .     S
O55    Zn62    1.996   .     S
O56    Zn61    1.996   .     S
O57    Zn61    1.981   .     S
O58    Zn62    1.981   .     S
O59    Zn62    1.988   .     S
O60    Zn61    1.988   .     S
C63    C76     1.427   .     S
C63    O117    1.281   .     A
C63    O115    1.282   .     A
C64    C66     1.410   .     A
C64    C89     1.406   .     A
C64    H94     1.082   .     S
C65    C90     1.410   .     A
C65    C84     1.410   .     A
C65    C438    1.512   1_554 S
C66    C85     1.411   .     A
C66    C437    1.512   .     S
C67    O119    1.271   .     A
C67    O121    1.282   .     A
C67    C69     1.401   .     S
C68    O120    1.271   .     A
C68    O122    1.281   .     A
C68    C70     1.399   .     S
C70    C131    1.347   .     S
C70    I170    2.158   .     S
C71    H91     1.084   .     S
C71    C82     1.396   .     A
C71    C73     1.383   .     A
C72    H99     1.084   .     S
C72    C83     1.395   .     A
C72    C75     1.384   .     A
C73    I109    2.125   .     S
C73    C76     1.404   .     A
C74    C77     1.433   .     S
C74    O118    1.283   .     A
C74    O116    1.283   .     A
C75    I110    2.126   .     S
C75    C77     1.406   .     A
C76    C78     1.402   .     A
C77    C79     1.404   .     A
C78    N113    1.433   .     S
C78    C80     1.386   .     A
C79    N114    1.432   .     S
C79    C81     1.385   .     A
C80    C82     1.396   .     A
C80    H100    1.084   .     S
C81    H101    1.084   .     S
C81    C83     1.395   .     A
C82    C269    1.439   1_545 S
C83    C268    1.439   .     S
C84    H102    1.082   .     S
C84    C86     1.407   .     A
C85    H103    1.082   .     S
C85    C87     1.406   .     A
C86    H104    1.082   .     S
C86    N111    1.363   .     A
C87    H105    1.082   .     S
C87    N112    1.362   .     A
C88    H106    1.080   .     S
C88    N111    1.363   .     A
C88    C90     1.406   .     A
C89    H92     1.082   .     S
C89    N112    1.363   .     A
C90    H93     1.082   .     S
H95    N113    1.046   .     S
H96    N113    1.046   .     S
H97    N114    1.045   .     S
H98    N114    1.046   .     S
I107   C131    2.160   .     S
N111   Zn124   2.003   .     S
N112   Zn123   2.003   .     S
O115   Zn123   1.993   .     S
O116   Zn124   1.993   .     S
O117   Zn124   1.996   .     S
O118   Zn123   1.996   .     S
O119   Zn123   1.981   .     S
O120   Zn124   1.981   .     S
O121   Zn124   1.988   .     S
O122   Zn123   1.988   .     S
C125   C138    1.427   .     S
C125   O179    1.281   .     A
C125   O177    1.282   .     A
C126   C128    1.410   .     A
C126   C151    1.406   .     A
C126   H156    1.082   .     S
C127   C152    1.410   .     A
C127   C146    1.410   .     A
C127   C500    1.512   1_554 S
C128   C147    1.411   .     A
C128   C499    1.512   .     S
C129   O181    1.271   .     A
C129   O183    1.282   .     A
C129   C131    1.401   .     S
C130   O182    1.271   .     A
C130   O184    1.281   .     A
C130   C132    1.399   .     S
C132   C7      1.347   1_655 S
C132   I46     2.158   1_655 S
C133   H153    1.084   .     S
C133   C144    1.396   .     A
C133   C135    1.383   .     A
C134   H161    1.084   .     S
C134   C145    1.395   .     A
C134   C137    1.384   .     A
C135   I171    2.125   .     S
C135   C138    1.404   .     A
C136   C139    1.433   .     S
C136   O180    1.283   .     A
C136   O178    1.283   .     A
C137   I172    2.126   .     S
C137   C139    1.406   .     A
C138   C140    1.402   .     A
C139   C141    1.404   .     A
C140   N175    1.433   .     S
C140   C142    1.386   .     A
C141   N176    1.432   .     S
C141   C143    1.385   .     A
C142   C144    1.396   .     A
C142   H162    1.084   .     S
C143   H163    1.084   .     S
C143   C145    1.395   .     A
C144   C331    1.439   1_545 S
C145   C330    1.439   .     S
C146   H164    1.082   .     S
C146   C148    1.407   .     A
C147   H165    1.082   .     S
C147   C149    1.406   .     A
C148   H166    1.082   .     S
C148   N173    1.363   .     A
C149   H167    1.082   .     S
C149   N174    1.362   .     A
C150   H168    1.080   .     S
C150   N173    1.363   .     A
C150   C152    1.406   .     A
C151   H154    1.082   .     S
C151   N174    1.363   .     A
C152   H155    1.082   .     S
H157   N175    1.046   .     S
H158   N175    1.046   .     S
H159   N176    1.045   .     S
H160   N176    1.046   .     S
I169   C7      2.160   1_655 S
N173   Zn186   2.003   .     S
N174   Zn185   2.003   .     S
O177   Zn185   1.993   .     S
O178   Zn186   1.993   .     S
O179   Zn186   1.996   .     S
O180   Zn185   1.996   .     S
O181   Zn185   1.981   .     S
O182   Zn186   1.981   .     S
O183   Zn186   1.988   .     S
O184   Zn185   1.988   .     S
C187   C200    1.427   .     S
C187   O241    1.281   .     A
C187   O239    1.282   .     A
C188   C190    1.410   .     A
C188   C213    1.406   .     A
C188   H218    1.082   .     S
C189   C214    1.410   .     A
C189   C208    1.410   .     A
C189   C562    1.512   1_554 S
C190   C209    1.411   .     A
C190   C561    1.512   .     S
C191   O243    1.271   .     A
C191   O245    1.282   .     A
C191   C193    1.401   .     S
C192   O244    1.271   .     A
C192   O246    1.281   .     A
C192   C194    1.399   .     S
C193   C318    1.347   1_455 S
C193   I355    2.160   1_455 S
C194   C255    1.347   .     S
C194   I294    2.158   .     S
C195   H215    1.084   .     S
C195   C206    1.396   .     A
C195   C197    1.383   .     A
C196   H223    1.084   .     S
C196   C207    1.395   .     A
C196   C199    1.384   .     A
C197   I233    2.125   .     S
C197   C200    1.404   .     A
C198   C201    1.433   .     S
C198   O242    1.283   .     A
C198   O240    1.283   .     A
C199   I234    2.126   .     S
C199   C201    1.406   .     A
C200   C202    1.402   .     A
C201   C203    1.404   .     A
C202   N237    1.433   .     S
C202   C204    1.386   .     A
C203   N238    1.432   .     S
C203   C205    1.385   .     A
C204   C206    1.396   .     A
C204   H224    1.084   .     S
C205   H225    1.084   .     S
C205   C207    1.395   .     A
C207   C20     1.439   1_565 S
C208   H226    1.082   .     S
C208   C210    1.407   .     A
C209   H227    1.082   .     S
C209   C211    1.406   .     A
C210   H228    1.082   .     S
C210   N235    1.363   .     A
C211   H229    1.082   .     S
C211   N236    1.362   .     A
C212   H230    1.080   .     S
C212   N235    1.363   .     A
C212   C214    1.406   .     A
C213   H216    1.082   .     S
C213   N236    1.363   .     A
C214   H217    1.082   .     S
H219   N237    1.046   .     S
H220   N237    1.046   .     S
H221   N238    1.045   .     S
H222   N238    1.046   .     S
I231   C255    2.160   .     S
I232   C318    2.158   1_455 S
N235   Zn248   2.003   .     S
N236   Zn247   2.003   .     S
O239   Zn247   1.993   .     S
O240   Zn248   1.993   .     S
O241   Zn248   1.996   .     S
O242   Zn247   1.996   .     S
O243   Zn247   1.981   .     S
O244   Zn248   1.981   .     S
O245   Zn248   1.988   .     S
O246   Zn247   1.988   .     S
C249   C262    1.427   .     S
C249   O303    1.281   .     A
C249   O301    1.282   .     A
C250   C252    1.410   .     A
C250   C275    1.406   .     A
C250   H280    1.082   .     S
C251   C276    1.410   .     A
C251   C270    1.410   .     A
C251   C624    1.512   1_554 S
C252   C271    1.411   .     A
C252   C623    1.512   .     S
C253   O305    1.271   .     A
C253   O307    1.282   .     A
C253   C255    1.401   .     S
C254   O306    1.271   .     A
C254   O308    1.281   .     A
C254   C256    1.399   .     S
C256   C317    1.347   .     S
C256   I356    2.158   .     S
C257   H277    1.084   .     S
C257   C268    1.396   .     A
C257   C259    1.383   .     A
C258   H285    1.084   .     S
C258   C269    1.395   .     A
C258   C261    1.384   .     A
C259   I295    2.125   .     S
C259   C262    1.404   .     A
C260   C263    1.433   .     S
C260   O304    1.283   .     A
C260   O302    1.283   .     A
C261   I296    2.126   .     S
C261   C263    1.406   .     A
C262   C264    1.402   .     A
C263   C265    1.404   .     A
C264   N299    1.433   .     S
C264   C266    1.386   .     A
C265   N300    1.432   .     S
C265   C267    1.385   .     A
C266   C268    1.396   .     A
C266   H286    1.084   .     S
C267   H287    1.084   .     S
C267   C269    1.395   .     A
C269   C82     1.439   1_565 S
C270   H288    1.082   .     S
C270   C272    1.407   .     A
C271   H289    1.082   .     S
C271   C273    1.406   .     A
C272   H290    1.082   .     S
C272   N297    1.363   .     A
C273   H291    1.082   .     S
C273   N298    1.362   .     A
C274   H292    1.080   .     S
C274   N297    1.363   .     A
C274   C276    1.406   .     A
C275   H278    1.082   .     S
C275   N298    1.363   .     A
C276   H279    1.082   .     S
H281   N299    1.046   .     S
H282   N299    1.046   .     S
H283   N300    1.045   .     S
H284   N300    1.046   .     S
I293   C317    2.160   .     S
N297   Zn310   2.003   .     S
N298   Zn309   2.003   .     S
O301   Zn309   1.993   .     S
O302   Zn310   1.993   .     S
O303   Zn310   1.996   .     S
O304   Zn309   1.996   .     S
O305   Zn309   1.981   .     S
O306   Zn310   1.981   .     S
O307   Zn310   1.988   .     S
O308   Zn309   1.988   .     S
C311   C324    1.427   .     S
C311   O365    1.281   .     A
C311   O363    1.282   .     A
C312   C314    1.410   .     A
C312   C337    1.406   .     A
C312   H342    1.082   .     S
C313   C338    1.410   .     A
C313   C332    1.410   .     A
C313   C686    1.512   1_554 S
C314   C333    1.411   .     A
C314   C685    1.512   .     S
C315   O367    1.271   .     A
C315   O369    1.282   .     A
C315   C317    1.401   .     S
C316   O368    1.271   .     A
C316   O370    1.281   .     A
C316   C318    1.399   .     S
C318   C193    1.347   1_655 S
C318   I232    2.158   1_655 S
C319   H339    1.084   .     S
C319   C330    1.396   .     A
C319   C321    1.383   .     A
C320   H347    1.084   .     S
C320   C331    1.395   .     A
C320   C323    1.384   .     A
C321   I357    2.125   .     S
C321   C324    1.404   .     A
C322   C325    1.433   .     S
C322   O366    1.283   .     A
C322   O364    1.283   .     A
C323   I358    2.126   .     S
C323   C325    1.406   .     A
C324   C326    1.402   .     A
C325   C327    1.404   .     A
C326   N361    1.433   .     S
C326   C328    1.386   .     A
C327   N362    1.432   .     S
C327   C329    1.385   .     A
C328   C330    1.396   .     A
C328   H348    1.084   .     S
C329   H349    1.084   .     S
C329   C331    1.395   .     A
C331   C144    1.439   1_565 S
C332   H350    1.082   .     S
C332   C334    1.407   .     A
C333   H351    1.082   .     S
C333   C335    1.406   .     A
C334   H352    1.082   .     S
C334   N359    1.363   .     A
C335   H353    1.082   .     S
C335   N360    1.362   .     A
C336   H354    1.080   .     S
C336   N359    1.363   .     A
C336   C338    1.406   .     A
C337   H340    1.082   .     S
C337   N360    1.363   .     A
C338   H341    1.082   .     S
H343   N361    1.046   .     S
H344   N361    1.046   .     S
H345   N362    1.045   .     S
H346   N362    1.046   .     S
I355   C193    2.160   1_655 S
N359   Zn372   2.003   .     S
N360   Zn371   2.003   .     S
O363   Zn371   1.993   .     S
O364   Zn372   1.993   .     S
O365   Zn372   1.996   .     S
O366   Zn371   1.996   .     S
O367   Zn371   1.981   .     S
O368   Zn372   1.981   .     S
O369   Zn372   1.988   .     S
O370   Zn371   1.988   .     S
C373   C386    1.427   .     S
C373   O427    1.281   .     A
C373   O425    1.282   .     A
C374   C376    1.410   .     A
C374   C399    1.406   .     A
C374   H404    1.082   .     S
C375   C400    1.410   .     A
C375   C394    1.410   .     A
C376   C395    1.411   .     A
C376   C3      1.512   1_556 S
C377   O429    1.271   .     A
C377   O431    1.282   .     A
C377   C379    1.401   .     S
C378   O430    1.271   .     A
C378   O432    1.281   .     A
C378   C380    1.399   .     S
C379   C504    1.347   1_455 S
C379   I541    2.160   1_455 S
C380   C441    1.347   .     S
C380   I480    2.158   .     S
C381   H401    1.084   .     S
C381   C392    1.396   .     A
C381   C383    1.383   .     A
C382   H409    1.084   .     S
C382   C393    1.395   .     A
C382   C385    1.384   .     A
C383   I419    2.125   .     S
C383   C386    1.404   .     A
C384   C387    1.433   .     S
C384   O428    1.283   .     A
C384   O426    1.283   .     A
C385   I420    2.126   .     S
C385   C387    1.406   .     A
C386   C388    1.402   .     A
C387   C389    1.404   .     A
C388   N423    1.433   .     S
C388   C390    1.386   .     A
C389   N424    1.432   .     S
C389   C391    1.385   .     A
C390   C392    1.396   .     A
C390   H410    1.084   .     S
C391   H411    1.084   .     S
C391   C393    1.395   .     A
C392   C579    1.439   1_545 S
C393   C578    1.439   .     S
C394   H412    1.082   .     S
C394   C396    1.407   .     A
C395   H413    1.082   .     S
C395   C397    1.406   .     A
C396   H414    1.082   .     S
C396   N421    1.363   .     A
C397   H415    1.082   .     S
C397   N422    1.362   .     A
C398   H416    1.080   .     S
C398   N421    1.363   .     A
C398   C400    1.406   .     A
C399   H402    1.082   .     S
C399   N422    1.363   .     A
C400   H403    1.082   .     S
H405   N423    1.046   .     S
H406   N423    1.046   .     S
H407   N424    1.045   .     S
H408   N424    1.046   .     S
I417   C441    2.160   .     S
I418   C504    2.158   1_455 S
N421   Zn434   2.003   .     S
N422   Zn433   2.003   .     S
O425   Zn433   1.993   .     S
O426   Zn434   1.993   .     S
O427   Zn434   1.996   .     S
O428   Zn433   1.996   .     S
O429   Zn433   1.981   .     S
O430   Zn434   1.981   .     S
O431   Zn434   1.988   .     S
O432   Zn433   1.988   .     S
C435   C448    1.427   .     S
C435   O489    1.281   .     A
C435   O487    1.282   .     A
C436   C438    1.410   .     A
C436   C461    1.406   .     A
C436   H466    1.082   .     S
C437   C462    1.410   .     A
C437   C456    1.410   .     A
C438   C457    1.411   .     A
C438   C65     1.512   1_556 S
C439   O491    1.271   .     A
C439   O493    1.282   .     A
C439   C441    1.401   .     S
C440   O492    1.271   .     A
C440   O494    1.281   .     A
C440   C442    1.399   .     S
C442   C503    1.347   .     S
C442   I542    2.158   .     S
C443   H463    1.084   .     S
C443   C454    1.396   .     A
C443   C445    1.383   .     A
C444   H471    1.084   .     S
C444   C455    1.395   .     A
C444   C447    1.384   .     A
C445   I481    2.125   .     S
C445   C448    1.404   .     A
C446   C449    1.433   .     S
C446   O490    1.283   .     A
C446   O488    1.283   .     A
C447   I482    2.126   .     S
C447   C449    1.406   .     A
C448   C450    1.402   .     A
C449   C451    1.404   .     A
C450   N485    1.433   .     S
C450   C452    1.386   .     A
C451   N486    1.432   .     S
C451   C453    1.385   .     A
C452   C454    1.396   .     A
C452   H472    1.084   .     S
C453   H473    1.084   .     S
C453   C455    1.395   .     A
C454   C641    1.439   1_545 S
C455   C640    1.439   .     S
C456   H474    1.082   .     S
C456   C458    1.407   .     A
C457   H475    1.082   .     S
C457   C459    1.406   .     A
C458   H476    1.082   .     S
C458   N483    1.363   .     A
C459   H477    1.082   .     S
C459   N484    1.362   .     A
C460   H478    1.080   .     S
C460   N483    1.363   .     A
C460   C462    1.406   .     A
C461   H464    1.082   .     S
C461   N484    1.363   .     A
C462   H465    1.082   .     S
H467   N485    1.046   .     S
H468   N485    1.046   .     S
H469   N486    1.045   .     S
H470   N486    1.046   .     S
I479   C503    2.160   .     S
N483   Zn496   2.003   .     S
N484   Zn495   2.003   .     S
O487   Zn495   1.993   .     S
O488   Zn496   1.993   .     S
O489   Zn496   1.996   .     S
O490   Zn495   1.996   .     S
O491   Zn495   1.981   .     S
O492   Zn496   1.981   .     S
O493   Zn496   1.988   .     S
O494   Zn495   1.988   .     S
C497   C510    1.427   .     S
C497   O551    1.281   .     A
C497   O549    1.282   .     A
C498   C500    1.410   .     A
C498   C523    1.406   .     A
C498   H528    1.082   .     S
C499   C524    1.410   .     A
C499   C518    1.410   .     A
C500   C519    1.411   .     A
C500   C127    1.512   1_556 S
C501   O553    1.271   .     A
C501   O555    1.282   .     A
C501   C503    1.401   .     S
C502   O554    1.271   .     A
C502   O556    1.281   .     A
C502   C504    1.399   .     S
C504   C379    1.347   1_655 S
C504   I418    2.158   1_655 S
C505   H525    1.084   .     S
C505   C516    1.396   .     A
C505   C507    1.383   .     A
C506   H533    1.084   .     S
C506   C517    1.395   .     A
C506   C509    1.384   .     A
C507   I543    2.125   .     S
C507   C510    1.404   .     A
C508   C511    1.433   .     S
C508   O552    1.283   .     A
C508   O550    1.283   .     A
C509   I544    2.126   .     S
C509   C511    1.406   .     A
C510   C512    1.402   .     A
C511   C513    1.404   .     A
C512   N547    1.433   .     S
C512   C514    1.386   .     A
C513   N548    1.432   .     S
C513   C515    1.385   .     A
C514   C516    1.396   .     A
C514   H534    1.084   .     S
C515   H535    1.084   .     S
C515   C517    1.395   .     A
C516   C703    1.439   1_545 S
C517   C702    1.439   .     S
C518   H536    1.082   .     S
C518   C520    1.407   .     A
C519   H537    1.082   .     S
C519   C521    1.406   .     A
C520   H538    1.082   .     S
C520   N545    1.363   .     A
C521   H539    1.082   .     S
C521   N546    1.362   .     A
C522   H540    1.080   .     S
C522   N545    1.363   .     A
C522   C524    1.406   .     A
C523   H526    1.082   .     S
C523   N546    1.363   .     A
C524   H527    1.082   .     S
H529   N547    1.046   .     S
H530   N547    1.046   .     S
H531   N548    1.045   .     S
H532   N548    1.046   .     S
I541   C379    2.160   1_655 S
N545   Zn558   2.003   .     S
N546   Zn557   2.003   .     S
O549   Zn557   1.993   .     S
O550   Zn558   1.993   .     S
O551   Zn558   1.996   .     S
O552   Zn557   1.996   .     S
O553   Zn557   1.981   .     S
O554   Zn558   1.981   .     S
O555   Zn558   1.988   .     S
O556   Zn557   1.988   .     S
C559   C572    1.427   .     S
C559   O613    1.281   .     A
C559   O611    1.282   .     A
C560   C562    1.410   .     A
C560   C585    1.406   .     A
C560   H590    1.082   .     S
C561   C586    1.410   .     A
C561   C580    1.410   .     A
C562   C581    1.411   .     A
C562   C189    1.512   1_556 S
C563   O615    1.271   .     A
C563   O617    1.282   .     A
C563   C565    1.401   .     S
C564   O616    1.271   .     A
C564   O618    1.281   .     A
C564   C566    1.399   .     S
C565   C690    1.347   1_455 S
C565   I727    2.160   1_455 S
C566   C627    1.347   .     S
C566   I666    2.158   .     S
C567   H587    1.084   .     S
C567   C578    1.396   .     A
C567   C569    1.383   .     A
C568   H595    1.084   .     S
C568   C579    1.395   .     A
C568   C571    1.384   .     A
C569   I605    2.125   .     S
C569   C572    1.404   .     A
C570   C573    1.433   .     S
C570   O614    1.283   .     A
C570   O612    1.283   .     A
C571   I606    2.126   .     S
C571   C573    1.406   .     A
C572   C574    1.402   .     A
C573   C575    1.404   .     A
C574   N609    1.433   .     S
C574   C576    1.386   .     A
C575   N610    1.432   .     S
C575   C577    1.385   .     A
C576   C578    1.396   .     A
C576   H596    1.084   .     S
C577   H597    1.084   .     S
C577   C579    1.395   .     A
C579   C392    1.439   1_565 S
C580   H598    1.082   .     S
C580   C582    1.407   .     A
C581   H599    1.082   .     S
C581   C583    1.406   .     A
C582   H600    1.082   .     S
C582   N607    1.363   .     A
C583   H601    1.082   .     S
C583   N608    1.362   .     A
C584   H602    1.080   .     S
C584   N607    1.363   .     A
C584   C586    1.406   .     A
C585   H588    1.082   .     S
C585   N608    1.363   .     A
C586   H589    1.082   .     S
H591   N609    1.046   .     S
H592   N609    1.046   .     S
H593   N610    1.045   .     S
H594   N610    1.046   .     S
I603   C627    2.160   .     S
I604   C690    2.158   1_455 S
N607   Zn620   2.003   .     S
N608   Zn619   2.003   .     S
O611   Zn619   1.993   .     S
O612   Zn620   1.993   .     S
O613   Zn620   1.996   .     S
O614   Zn619   1.996   .     S
O615   Zn619   1.981   .     S
O616   Zn620   1.981   .     S
O617   Zn620   1.988   .     S
O618   Zn619   1.988   .     S
C621   C634    1.427   .     S
C621   O675    1.281   .     A
C621   O673    1.282   .     A
C622   C624    1.410   .     A
C622   C647    1.406   .     A
C622   H652    1.082   .     S
C623   C648    1.410   .     A
C623   C642    1.410   .     A
C624   C643    1.411   .     A
C624   C251    1.512   1_556 S
C625   O677    1.271   .     A
C625   O679    1.282   .     A
C625   C627    1.401   .     S
C626   O678    1.271   .     A
C626   O680    1.281   .     A
C626   C628    1.399   .     S
C628   C689    1.347   .     S
C628   I728    2.158   .     S
C629   H649    1.084   .     S
C629   C640    1.396   .     A
C629   C631    1.383   .     A
C630   H657    1.084   .     S
C630   C641    1.395   .     A
C630   C633    1.384   .     A
C631   I667    2.125   .     S
C631   C634    1.404   .     A
C632   C635    1.433   .     S
C632   O676    1.283   .     A
C632   O674    1.283   .     A
C633   I668    2.126   .     S
C633   C635    1.406   .     A
C634   C636    1.402   .     A
C635   C637    1.404   .     A
C636   N671    1.433   .     S
C636   C638    1.386   .     A
C637   N672    1.432   .     S
C637   C639    1.385   .     A
C638   C640    1.396   .     A
C638   H658    1.084   .     S
C639   H659    1.084   .     S
C639   C641    1.395   .     A
C641   C454    1.439   1_565 S
C642   H660    1.082   .     S
C642   C644    1.407   .     A
C643   H661    1.082   .     S
C643   C645    1.406   .     A
C644   H662    1.082   .     S
C644   N669    1.363   .     A
C645   H663    1.082   .     S
C645   N670    1.362   .     A
C646   H664    1.080   .     S
C646   N669    1.363   .     A
C646   C648    1.406   .     A
C647   H650    1.082   .     S
C647   N670    1.363   .     A
C648   H651    1.082   .     S
H653   N671    1.046   .     S
H654   N671    1.046   .     S
H655   N672    1.045   .     S
H656   N672    1.046   .     S
I665   C689    2.160   .     S
N669   Zn682   2.003   .     S
N670   Zn681   2.003   .     S
O673   Zn681   1.993   .     S
O674   Zn682   1.993   .     S
O675   Zn682   1.996   .     S
O676   Zn681   1.996   .     S
O677   Zn681   1.981   .     S
O678   Zn682   1.981   .     S
O679   Zn682   1.988   .     S
O680   Zn681   1.988   .     S
C683   C696    1.427   .     S
C683   O737    1.281   .     A
C683   O735    1.282   .     A
C684   C686    1.410   .     A
C684   C709    1.406   .     A
C684   H714    1.082   .     S
C685   C710    1.410   .     A
C685   C704    1.410   .     A
C686   C705    1.411   .     A
C686   C313    1.512   1_556 S
C687   O739    1.271   .     A
C687   O741    1.282   .     A
C687   C689    1.401   .     S
C688   O740    1.271   .     A
C688   O742    1.281   .     A
C688   C690    1.399   .     S
C690   C565    1.347   1_655 S
C690   I604    2.158   1_655 S
C691   H711    1.084   .     S
C691   C702    1.396   .     A
C691   C693    1.383   .     A
C692   H719    1.084   .     S
C692   C703    1.395   .     A
C692   C695    1.384   .     A
C693   I729    2.125   .     S
C693   C696    1.404   .     A
C694   C697    1.433   .     S
C694   O738    1.283   .     A
C694   O736    1.283   .     A
C695   I730    2.126   .     S
C695   C697    1.406   .     A
C696   C698    1.402   .     A
C697   C699    1.404   .     A
C698   N733    1.433   .     S
C698   C700    1.386   .     A
C699   N734    1.432   .     S
C699   C701    1.385   .     A
C700   C702    1.396   .     A
C700   H720    1.084   .     S
C701   H721    1.084   .     S
C701   C703    1.395   .     A
C703   C516    1.439   1_565 S
C704   H722    1.082   .     S
C704   C706    1.407   .     A
C705   H723    1.082   .     S
C705   C707    1.406   .     A
C706   H724    1.082   .     S
C706   N731    1.363   .     A
C707   H725    1.082   .     S
C707   N732    1.362   .     A
C708   H726    1.080   .     S
C708   N731    1.363   .     A
C708   C710    1.406   .     A
C709   H712    1.082   .     S
C709   N732    1.363   .     A
C710   H713    1.082   .     S
H715   N733    1.046   .     S
H716   N733    1.046   .     S
H717   N734    1.045   .     S
H718   N734    1.046   .     S
I727   C565    2.160   1_655 S
N731   Zn744   2.003   .     S
N732   Zn743   2.003   .     S
O735   Zn743   1.993   .     S
O736   Zn744   1.993   .     S
O737   Zn744   1.996   .     S
O738   Zn743   1.996   .     S
O739   Zn743   1.981   .     S
O740   Zn744   1.981   .     S
O741   Zn744   1.988   .     S
O742   Zn743   1.988   .     S
