data_str_m2_o1_o17_pcu_sym.200
_audit_creation_date              2020-01-03
_audit_creation_method            'Materials Studio'
_symmetry_space_group_name_H-M    'P1'
_symmetry_Int_Tables_number       1
_symmetry_cell_setting            triclinic
loop_
_symmetry_equiv_pos_as_xyz
  x,y,z
_cell_length_a                    32.9285
_cell_length_b                    28.4550
_cell_length_c                    30.0852
_cell_angle_alpha                 90.3183
_cell_angle_beta                  89.9112
_cell_angle_gamma                 89.7581
loop_
_atom_site_label
_atom_site_type_symbol
_atom_site_fract_x
_atom_site_fract_y
_atom_site_fract_z
_atom_site_U_iso_or_equiv
_atom_site_adp_type
_atom_site_occupancy
C1     C     0.08702   0.16627   0.24973   0.00000  Uiso   1.00
C2     C     0.24579   0.16583   0.24597   0.00000  Uiso   1.00
C3     C     0.12708   0.23886   0.02498   0.00000  Uiso   1.00
C4     C     0.20847   0.09640   0.47548   0.00000  Uiso   1.00
C5     C     0.02142   0.11920   0.24277   0.00000  Uiso   1.00
C6     C     0.31176   0.20348   0.22912   0.00000  Uiso   1.00
C7     C     0.31166   0.11856   0.24064   0.00000  Uiso   1.00
C8     C     0.01882   0.20625   0.24319   0.00000  Uiso   1.00
C9     C     0.29014   0.16239   0.23859   0.00000  Uiso   1.00
C10    C     0.04191   0.16395   0.24644   0.00000  Uiso   1.00
C11    C     0.18072   0.02454   0.21405   0.00000  Uiso   1.00
C12    C     0.15262   0.30878   0.28589   0.00000  Uiso   1.00
C13    C     0.15235   0.02506   0.28579   0.00000  Uiso   1.00
C14    C     0.18069   0.30825   0.21405   0.00000  Uiso   1.00
C15    C     0.16680   0.16660   0.16437   0.00000  Uiso   1.00
C16    C     0.16626   0.16679   0.33569   0.00000  Uiso   1.00
C17    C     0.18609   0.13129   0.40679   0.00000  Uiso   1.00
C18    C     0.14827   0.20316   0.09348   0.00000  Uiso   1.00
C19    C     0.16597   0.16703   0.38404   0.00000  Uiso   1.00
C20    C     0.16742   0.16673   0.11616   0.00000  Uiso   1.00
C21    C     0.14585   0.20298   0.40727   0.00000  Uiso   1.00
C22    C     0.18754   0.13092   0.09297   0.00000  Uiso   1.00
C23    C     0.14572   0.20381   0.45394   0.00000  Uiso   1.00
C24    C     0.18885   0.13098   0.04634   0.00000  Uiso   1.00
C25    C     0.16698   0.16766   0.47680   0.00000  Uiso   1.00
C26    C     0.16796   0.16731   0.02345   0.00000  Uiso   1.00
C27    C     0.18709   0.13155   0.45301   0.00000  Uiso   1.00
C28    C     0.14791   0.20335   0.04730   0.00000  Uiso   1.00
C29    C     0.12521   0.23951   0.47853   0.00000  Uiso   1.00
C30    C     0.21014   0.09583   0.02197   0.00000  Uiso   1.00
Cu31   Cu    0.16667   0.21355   0.25000   0.00000  Uiso   1.00
Cu32   Cu    0.16667   0.11978   0.25000   0.00000  Uiso   1.00
H33    H     0.20173   0.10374   0.38837   0.00000  Uiso   1.00
H34    H     0.13275   0.23079   0.11192   0.00000  Uiso   1.00
H35    H     0.13014   0.22966   0.38841   0.00000  Uiso   1.00
H36    H     0.20243   0.10370   0.11192   0.00000  Uiso   1.00
H37    H     0.11128   0.26577   0.04406   0.00000  Uiso   1.00
H38    H     0.22448   0.06956   0.45654   0.00000  Uiso   1.00
H39    H     0.19239   0.04287   0.18540   0.00000  Uiso   1.00
H40    H     0.14131   0.29039   0.31465   0.00000  Uiso   1.00
H41    H     0.14053   0.04380   0.31437   0.00000  Uiso   1.00
H42    H     0.19219   0.28946   0.18541   0.00000  Uiso   1.00
N43    N     0.16667   0.28402   0.25000   0.00000  Uiso   1.00
N44    N     0.16667   0.04931   0.25000   0.00000  Uiso   1.00
O45    O     0.10655   0.20625   0.25000   0.00000  Uiso   1.00
O46    O     0.22679   0.12709   0.25001   0.00000  Uiso   1.00
O47    O     0.22679   0.20625   0.25001   0.00000  Uiso   1.00
O48    O     0.10655   0.12709   0.25000   0.00000  Uiso   1.00
O49    O     0.16666   0.20627   0.18513   0.00000  Uiso   1.00
O50    O     0.16668   0.12707   0.31487   0.00000  Uiso   1.00
O51    O     0.16668   0.20627   0.31487   0.00000  Uiso   1.00
O52    O     0.16666   0.12707   0.18513   0.00000  Uiso   1.00
C53    C     0.09924   0.27750   0.45744   0.00000  Uiso   1.00
C54    C     0.05718   0.25826   0.44495   0.00000  Uiso   1.00
C55    C     0.02543   0.29746   0.44207   0.00000  Uiso   1.00
H56    H     0.01911   0.31200   0.47574   0.00000  Uiso   1.00
H57    H     0.03613   0.32637   0.42048   0.00000  Uiso   1.00
H58    H     0.33009   0.28319   0.42820   0.00000  Uiso   1.00
H59    H     0.05905   0.23950   0.41253   0.00000  Uiso   1.00
H60    H     0.04670   0.23272   0.47033   0.00000  Uiso   1.00
H61    H     0.09539   0.30723   0.48130   0.00000  Uiso   1.00
H62    H     0.11456   0.29300   0.42812   0.00000  Uiso   1.00
C63    C     0.23597   0.05834   0.04405   0.00000  Uiso   1.00
C64    C     0.27605   0.07924   0.06097   0.00000  Uiso   1.00
C65    C     0.30138   0.04263   0.08541   0.00000  Uiso   1.00
H66    H     0.28499   0.03044   0.11549   0.00000  Uiso   1.00
H67    H     0.30798   0.01221   0.06322   0.00000  Uiso   1.00
H68    H     0.33062   0.05844   0.09587   0.00000  Uiso   1.00
H69    H     0.29386   0.09253   0.03226   0.00000  Uiso   1.00
H70    H     0.27022   0.10926   0.08389   0.00000  Uiso   1.00
H71    H     0.21880   0.04128   0.07132   0.00000  Uiso   1.00
H72    H     0.24332   0.02972   0.01996   0.00000  Uiso   1.00
C73    C     0.04432   0.07178   0.23926   0.00000  Uiso   1.00
C74    C     0.05845   0.06324   0.19102   0.00000  Uiso   1.00
C75    C     0.07245   0.01279   0.18322   0.00000  Uiso   1.00
H76    H     0.09452   0.00207   0.20907   0.00000  Uiso   1.00
H77    H     0.04587   0.32231   0.18380   0.00000  Uiso   1.00
H78    H     0.08721   0.00973   0.15011   0.00000  Uiso   1.00
H79    H     0.03294   0.07061   0.16791   0.00000  Uiso   1.00
H80    H     0.08358   0.08733   0.18228   0.00000  Uiso   1.00
H81    H     0.06845   0.06736   0.26426   0.00000  Uiso   1.00
H82    H     0.02690   0.04123   0.25060   0.00000  Uiso   1.00
C83    C     0.29444   0.24070   0.19780   0.00000  Uiso   1.00
C84    C     0.27858   0.21830   0.15447   0.00000  Uiso   1.00
C85    C     0.26858   0.25528   0.11960   0.00000  Uiso   1.00
H86    H     0.24673   0.28154   0.13303   0.00000  Uiso   1.00
H87    H     0.29676   0.27339   0.10910   0.00000  Uiso   1.00
H88    H     0.25486   0.23804   0.09004   0.00000  Uiso   1.00
H89    H     0.30194   0.19400   0.14051   0.00000  Uiso   1.00
H90    H     0.25077   0.19768   0.16115   0.00000  Uiso   1.00
H91    H     0.27025   0.26171   0.21420   0.00000  Uiso   1.00
H92    H     0.31851   0.26578   0.18787   0.00000  Uiso   1.00
C93    C     0.28976   0.07076   0.24093   0.00000  Uiso   1.00
C94    C     0.28343   0.05481   0.28941   0.00000  Uiso   1.00
C95    C     0.26693   0.00510   0.29273   0.00000  Uiso   1.00
H96    H     0.23713   0.00276   0.27636   0.00000  Uiso   1.00
H97    H     0.28789   0.31306   0.27688   0.00000  Uiso   1.00
H98    H     0.26326   0.32880   0.32822   0.00000  Uiso   1.00
H99    H     0.31268   0.05628   0.30768   0.00000  Uiso   1.00
H100   H     0.26217   0.07905   0.30685   0.00000  Uiso   1.00
H101   H     0.26171   0.06981   0.22100   0.00000  Uiso   1.00
H102   H     0.30560   0.04370   0.22080   0.00000  Uiso   1.00
C103   C     0.03440   0.25419   0.25822   0.00000  Uiso   1.00
C104   C     0.04329   0.25530   0.30839   0.00000  Uiso   1.00
C105   C     0.05255   0.30517   0.32418   0.00000  Uiso   1.00
H106   H     0.07113   0.32401   0.29937   0.00000  Uiso   1.00
H107   H     0.02388   0.32500   0.32961   0.00000  Uiso   1.00
H108   H     0.06989   0.30401   0.35567   0.00000  Uiso   1.00
H109   H     0.01654   0.24209   0.32709   0.00000  Uiso   1.00
H110   H     0.06948   0.23234   0.31658   0.00000  Uiso   1.00
H111   H     0.06087   0.26529   0.23837   0.00000  Uiso   1.00
H112   H     0.01157   0.28197   0.25237   0.00000  Uiso   1.00
C113   C     0.42035   0.16627   0.24973   0.00000  Uiso   1.00
C114   C     0.57913   0.16583   0.24597   0.00000  Uiso   1.00
C115   C     0.46041   0.23886   0.02498   0.00000  Uiso   1.00
C116   C     0.54180   0.09640   0.47548   0.00000  Uiso   1.00
C117   C     0.35475   0.11920   0.24277   0.00000  Uiso   1.00
C118   C     0.64509   0.20348   0.22912   0.00000  Uiso   1.00
C119   C     0.64499   0.11856   0.24064   0.00000  Uiso   1.00
C120   C     0.35215   0.20625   0.24319   0.00000  Uiso   1.00
C121   C     0.62347   0.16239   0.23859   0.00000  Uiso   1.00
C122   C     0.37525   0.16395   0.24644   0.00000  Uiso   1.00
C123   C     0.51405   0.02454   0.21405   0.00000  Uiso   1.00
C124   C     0.48595   0.30878   0.28589   0.00000  Uiso   1.00
C125   C     0.48568   0.02506   0.28579   0.00000  Uiso   1.00
C126   C     0.51402   0.30825   0.21405   0.00000  Uiso   1.00
C127   C     0.50013   0.16660   0.16437   0.00000  Uiso   1.00
C128   C     0.49959   0.16679   0.33569   0.00000  Uiso   1.00
C129   C     0.51943   0.13129   0.40679   0.00000  Uiso   1.00
C130   C     0.48161   0.20316   0.09348   0.00000  Uiso   1.00
C131   C     0.49930   0.16703   0.38404   0.00000  Uiso   1.00
C132   C     0.50075   0.16673   0.11616   0.00000  Uiso   1.00
C133   C     0.47918   0.20298   0.40727   0.00000  Uiso   1.00
C134   C     0.52087   0.13092   0.09297   0.00000  Uiso   1.00
C135   C     0.47905   0.20381   0.45394   0.00000  Uiso   1.00
C136   C     0.52218   0.13098   0.04634   0.00000  Uiso   1.00
C137   C     0.50032   0.16766   0.47680   0.00000  Uiso   1.00
C138   C     0.50129   0.16731   0.02345   0.00000  Uiso   1.00
C139   C     0.52042   0.13155   0.45301   0.00000  Uiso   1.00
C140   C     0.48125   0.20335   0.04730   0.00000  Uiso   1.00
C141   C     0.45854   0.23951   0.47853   0.00000  Uiso   1.00
C142   C     0.54348   0.09583   0.02197   0.00000  Uiso   1.00
Cu143  Cu    0.50000   0.21355   0.25000   0.00000  Uiso   1.00
Cu144  Cu    0.50000   0.11978   0.25000   0.00000  Uiso   1.00
H145   H     0.53507   0.10374   0.38837   0.00000  Uiso   1.00
H146   H     0.46608   0.23079   0.11192   0.00000  Uiso   1.00
H147   H     0.46347   0.22966   0.38841   0.00000  Uiso   1.00
H148   H     0.53576   0.10370   0.11192   0.00000  Uiso   1.00
H149   H     0.44462   0.26577   0.04406   0.00000  Uiso   1.00
H150   H     0.55781   0.06956   0.45654   0.00000  Uiso   1.00
H151   H     0.52572   0.04287   0.18540   0.00000  Uiso   1.00
H152   H     0.47464   0.29039   0.31465   0.00000  Uiso   1.00
H153   H     0.47386   0.04380   0.31437   0.00000  Uiso   1.00
H154   H     0.52552   0.28946   0.18541   0.00000  Uiso   1.00
N155   N     0.50000   0.28402   0.25000   0.00000  Uiso   1.00
N156   N     0.50000   0.04931   0.25000   0.00000  Uiso   1.00
O157   O     0.43988   0.20625   0.25000   0.00000  Uiso   1.00
O158   O     0.56012   0.12709   0.25001   0.00000  Uiso   1.00
O159   O     0.56012   0.20625   0.25001   0.00000  Uiso   1.00
O160   O     0.43988   0.12709   0.25000   0.00000  Uiso   1.00
O161   O     0.49999   0.20627   0.18513   0.00000  Uiso   1.00
O162   O     0.50001   0.12707   0.31487   0.00000  Uiso   1.00
O163   O     0.50001   0.20627   0.31487   0.00000  Uiso   1.00
O164   O     0.49999   0.12707   0.18513   0.00000  Uiso   1.00
C165   C     0.43258   0.27750   0.45744   0.00000  Uiso   1.00
C166   C     0.39051   0.25826   0.44495   0.00000  Uiso   1.00
C167   C     0.35877   0.29746   0.44207   0.00000  Uiso   1.00
H168   H     0.35244   0.31200   0.47574   0.00000  Uiso   1.00
H169   H     0.36946   0.32637   0.42048   0.00000  Uiso   1.00
H170   H     0.66342   0.28319   0.42820   0.00000  Uiso   1.00
H171   H     0.39239   0.23950   0.41253   0.00000  Uiso   1.00
H172   H     0.38004   0.23272   0.47033   0.00000  Uiso   1.00
H173   H     0.42872   0.30723   0.48130   0.00000  Uiso   1.00
H174   H     0.44790   0.29300   0.42812   0.00000  Uiso   1.00
C175   C     0.56930   0.05834   0.04405   0.00000  Uiso   1.00
C176   C     0.60938   0.07924   0.06097   0.00000  Uiso   1.00
C177   C     0.63471   0.04263   0.08541   0.00000  Uiso   1.00
H178   H     0.61832   0.03044   0.11549   0.00000  Uiso   1.00
H179   H     0.64131   0.01221   0.06322   0.00000  Uiso   1.00
H180   H     0.66395   0.05844   0.09587   0.00000  Uiso   1.00
H181   H     0.62719   0.09253   0.03226   0.00000  Uiso   1.00
H182   H     0.60355   0.10926   0.08389   0.00000  Uiso   1.00
H183   H     0.55214   0.04128   0.07132   0.00000  Uiso   1.00
H184   H     0.57665   0.02972   0.01996   0.00000  Uiso   1.00
C185   C     0.37765   0.07178   0.23926   0.00000  Uiso   1.00
C186   C     0.39179   0.06324   0.19102   0.00000  Uiso   1.00
C187   C     0.40578   0.01279   0.18322   0.00000  Uiso   1.00
H188   H     0.42785   0.00207   0.20907   0.00000  Uiso   1.00
H189   H     0.37920   0.32231   0.18380   0.00000  Uiso   1.00
H190   H     0.42054   0.00973   0.15011   0.00000  Uiso   1.00
H191   H     0.36628   0.07061   0.16791   0.00000  Uiso   1.00
H192   H     0.41691   0.08733   0.18228   0.00000  Uiso   1.00
H193   H     0.40178   0.06736   0.26426   0.00000  Uiso   1.00
H194   H     0.36024   0.04123   0.25060   0.00000  Uiso   1.00
C195   C     0.62778   0.24070   0.19780   0.00000  Uiso   1.00
C196   C     0.61191   0.21830   0.15447   0.00000  Uiso   1.00
C197   C     0.60191   0.25528   0.11960   0.00000  Uiso   1.00
H198   H     0.58006   0.28154   0.13303   0.00000  Uiso   1.00
H199   H     0.63010   0.27339   0.10910   0.00000  Uiso   1.00
H200   H     0.58819   0.23804   0.09004   0.00000  Uiso   1.00
H201   H     0.63527   0.19400   0.14051   0.00000  Uiso   1.00
H202   H     0.58410   0.19768   0.16115   0.00000  Uiso   1.00
H203   H     0.60358   0.26171   0.21420   0.00000  Uiso   1.00
H204   H     0.65184   0.26578   0.18787   0.00000  Uiso   1.00
C205   C     0.62310   0.07076   0.24093   0.00000  Uiso   1.00
C206   C     0.61677   0.05481   0.28941   0.00000  Uiso   1.00
C207   C     0.60026   0.00510   0.29273   0.00000  Uiso   1.00
H208   H     0.57047   0.00276   0.27636   0.00000  Uiso   1.00
H209   H     0.62123   0.31306   0.27688   0.00000  Uiso   1.00
H210   H     0.59659   0.32880   0.32822   0.00000  Uiso   1.00
H211   H     0.64601   0.05628   0.30768   0.00000  Uiso   1.00
H212   H     0.59550   0.07905   0.30685   0.00000  Uiso   1.00
H213   H     0.59504   0.06981   0.22100   0.00000  Uiso   1.00
H214   H     0.63894   0.04370   0.22080   0.00000  Uiso   1.00
C215   C     0.36773   0.25419   0.25822   0.00000  Uiso   1.00
C216   C     0.37662   0.25530   0.30839   0.00000  Uiso   1.00
C217   C     0.38588   0.30517   0.32418   0.00000  Uiso   1.00
H218   H     0.40446   0.32401   0.29937   0.00000  Uiso   1.00
H219   H     0.35721   0.32500   0.32961   0.00000  Uiso   1.00
H220   H     0.40322   0.30401   0.35567   0.00000  Uiso   1.00
H221   H     0.34988   0.24209   0.32709   0.00000  Uiso   1.00
H222   H     0.40281   0.23234   0.31658   0.00000  Uiso   1.00
H223   H     0.39420   0.26529   0.23837   0.00000  Uiso   1.00
H224   H     0.34490   0.28197   0.25237   0.00000  Uiso   1.00
C225   C     0.75368   0.16627   0.24973   0.00000  Uiso   1.00
C226   C     0.91246   0.16583   0.24597   0.00000  Uiso   1.00
C227   C     0.79374   0.23886   0.02498   0.00000  Uiso   1.00
C228   C     0.87513   0.09640   0.47548   0.00000  Uiso   1.00
C229   C     0.68809   0.11920   0.24277   0.00000  Uiso   1.00
C230   C     0.97843   0.20348   0.22912   0.00000  Uiso   1.00
C231   C     0.97833   0.11856   0.24064   0.00000  Uiso   1.00
C232   C     0.68549   0.20625   0.24319   0.00000  Uiso   1.00
C233   C     0.95680   0.16239   0.23859   0.00000  Uiso   1.00
C234   C     0.70858   0.16395   0.24644   0.00000  Uiso   1.00
C235   C     0.84739   0.02454   0.21405   0.00000  Uiso   1.00
C236   C     0.81928   0.30878   0.28589   0.00000  Uiso   1.00
C237   C     0.81902   0.02506   0.28579   0.00000  Uiso   1.00
C238   C     0.84736   0.30825   0.21405   0.00000  Uiso   1.00
C239   C     0.83346   0.16660   0.16437   0.00000  Uiso   1.00
C240   C     0.83292   0.16679   0.33569   0.00000  Uiso   1.00
C241   C     0.85276   0.13129   0.40679   0.00000  Uiso   1.00
C242   C     0.81494   0.20316   0.09348   0.00000  Uiso   1.00
C243   C     0.83264   0.16703   0.38404   0.00000  Uiso   1.00
C244   C     0.83409   0.16673   0.11616   0.00000  Uiso   1.00
C245   C     0.81251   0.20298   0.40727   0.00000  Uiso   1.00
C246   C     0.85420   0.13092   0.09297   0.00000  Uiso   1.00
C247   C     0.81238   0.20381   0.45394   0.00000  Uiso   1.00
C248   C     0.85551   0.13098   0.04634   0.00000  Uiso   1.00
C249   C     0.83365   0.16766   0.47680   0.00000  Uiso   1.00
C250   C     0.83463   0.16731   0.02345   0.00000  Uiso   1.00
C251   C     0.85375   0.13155   0.45301   0.00000  Uiso   1.00
C252   C     0.81458   0.20335   0.04730   0.00000  Uiso   1.00
C253   C     0.79187   0.23951   0.47853   0.00000  Uiso   1.00
C254   C     0.87681   0.09583   0.02197   0.00000  Uiso   1.00
Cu255  Cu    0.83333   0.21355   0.25000   0.00000  Uiso   1.00
Cu256  Cu    0.83333   0.11978   0.25000   0.00000  Uiso   1.00
H257   H     0.86840   0.10374   0.38837   0.00000  Uiso   1.00
H258   H     0.79942   0.23079   0.11192   0.00000  Uiso   1.00
H259   H     0.79681   0.22966   0.38841   0.00000  Uiso   1.00
H260   H     0.86909   0.10370   0.11192   0.00000  Uiso   1.00
H261   H     0.77795   0.26577   0.04406   0.00000  Uiso   1.00
H262   H     0.89115   0.06956   0.45654   0.00000  Uiso   1.00
H263   H     0.85905   0.04287   0.18540   0.00000  Uiso   1.00
H264   H     0.80798   0.29039   0.31465   0.00000  Uiso   1.00
H265   H     0.80720   0.04380   0.31437   0.00000  Uiso   1.00
H266   H     0.85885   0.28946   0.18541   0.00000  Uiso   1.00
N267   N     0.83333   0.28402   0.25000   0.00000  Uiso   1.00
N268   N     0.83333   0.04931   0.25000   0.00000  Uiso   1.00
O269   O     0.77321   0.20625   0.25000   0.00000  Uiso   1.00
O270   O     0.89345   0.12709   0.25001   0.00000  Uiso   1.00
O271   O     0.89345   0.20625   0.25001   0.00000  Uiso   1.00
O272   O     0.77321   0.12709   0.25000   0.00000  Uiso   1.00
O273   O     0.83332   0.20627   0.18513   0.00000  Uiso   1.00
O274   O     0.83334   0.12707   0.31487   0.00000  Uiso   1.00
O275   O     0.83334   0.20627   0.31487   0.00000  Uiso   1.00
O276   O     0.83332   0.12707   0.18513   0.00000  Uiso   1.00
C277   C     0.76591   0.27750   0.45744   0.00000  Uiso   1.00
C278   C     0.72384   0.25826   0.44495   0.00000  Uiso   1.00
C279   C     0.69210   0.29746   0.44207   0.00000  Uiso   1.00
H280   H     0.68577   0.31200   0.47574   0.00000  Uiso   1.00
H281   H     0.70279   0.32637   0.42048   0.00000  Uiso   1.00
H282   H     0.99676   0.28319   0.42820   0.00000  Uiso   1.00
H283   H     0.72572   0.23950   0.41253   0.00000  Uiso   1.00
H284   H     0.71337   0.23272   0.47033   0.00000  Uiso   1.00
H285   H     0.76206   0.30723   0.48130   0.00000  Uiso   1.00
H286   H     0.78123   0.29300   0.42812   0.00000  Uiso   1.00
C287   C     0.90263   0.05834   0.04405   0.00000  Uiso   1.00
C288   C     0.94272   0.07924   0.06097   0.00000  Uiso   1.00
C289   C     0.96805   0.04263   0.08541   0.00000  Uiso   1.00
H290   H     0.95166   0.03044   0.11549   0.00000  Uiso   1.00
H291   H     0.97465   0.01221   0.06322   0.00000  Uiso   1.00
H292   H     0.99729   0.05844   0.09587   0.00000  Uiso   1.00
H293   H     0.96052   0.09253   0.03226   0.00000  Uiso   1.00
H294   H     0.93689   0.10926   0.08389   0.00000  Uiso   1.00
H295   H     0.88547   0.04128   0.07132   0.00000  Uiso   1.00
H296   H     0.90999   0.02972   0.01996   0.00000  Uiso   1.00
C297   C     0.71098   0.07178   0.23926   0.00000  Uiso   1.00
C298   C     0.72512   0.06324   0.19102   0.00000  Uiso   1.00
C299   C     0.73912   0.01279   0.18322   0.00000  Uiso   1.00
H300   H     0.76119   0.00207   0.20907   0.00000  Uiso   1.00
H301   H     0.71253   0.32231   0.18380   0.00000  Uiso   1.00
H302   H     0.75387   0.00973   0.15011   0.00000  Uiso   1.00
H303   H     0.69961   0.07061   0.16791   0.00000  Uiso   1.00
H304   H     0.75025   0.08733   0.18228   0.00000  Uiso   1.00
H305   H     0.73511   0.06736   0.26426   0.00000  Uiso   1.00
H306   H     0.69357   0.04123   0.25060   0.00000  Uiso   1.00
C307   C     0.96111   0.24070   0.19780   0.00000  Uiso   1.00
C308   C     0.94525   0.21830   0.15447   0.00000  Uiso   1.00
C309   C     0.93525   0.25528   0.11960   0.00000  Uiso   1.00
H310   H     0.91339   0.28154   0.13303   0.00000  Uiso   1.00
H311   H     0.96343   0.27339   0.10910   0.00000  Uiso   1.00
H312   H     0.92152   0.23804   0.09004   0.00000  Uiso   1.00
H313   H     0.96860   0.19400   0.14051   0.00000  Uiso   1.00
H314   H     0.91743   0.19768   0.16115   0.00000  Uiso   1.00
H315   H     0.93691   0.26171   0.21420   0.00000  Uiso   1.00
H316   H     0.98517   0.26578   0.18787   0.00000  Uiso   1.00
C317   C     0.95643   0.07076   0.24093   0.00000  Uiso   1.00
C318   C     0.95010   0.05481   0.28941   0.00000  Uiso   1.00
C319   C     0.93360   0.00510   0.29273   0.00000  Uiso   1.00
H320   H     0.90380   0.00276   0.27636   0.00000  Uiso   1.00
H321   H     0.95456   0.31306   0.27688   0.00000  Uiso   1.00
H322   H     0.92992   0.32880   0.32822   0.00000  Uiso   1.00
H323   H     0.97935   0.05628   0.30768   0.00000  Uiso   1.00
H324   H     0.92884   0.07905   0.30685   0.00000  Uiso   1.00
H325   H     0.92837   0.06981   0.22100   0.00000  Uiso   1.00
H326   H     0.97227   0.04370   0.22080   0.00000  Uiso   1.00
C327   C     0.70107   0.25419   0.25822   0.00000  Uiso   1.00
C328   C     0.70996   0.25530   0.30839   0.00000  Uiso   1.00
C329   C     0.71922   0.30517   0.32418   0.00000  Uiso   1.00
H330   H     0.73780   0.32401   0.29937   0.00000  Uiso   1.00
H331   H     0.69054   0.32500   0.32961   0.00000  Uiso   1.00
H332   H     0.73655   0.30401   0.35567   0.00000  Uiso   1.00
H333   H     0.68321   0.24209   0.32709   0.00000  Uiso   1.00
H334   H     0.73614   0.23234   0.31658   0.00000  Uiso   1.00
H335   H     0.72753   0.26529   0.23837   0.00000  Uiso   1.00
H336   H     0.67824   0.28197   0.25237   0.00000  Uiso   1.00
C337   C     0.08702   0.49960   0.24973   0.00000  Uiso   1.00
C338   C     0.24579   0.49916   0.24597   0.00000  Uiso   1.00
C339   C     0.12708   0.57219   0.02498   0.00000  Uiso   1.00
C340   C     0.20847   0.42973   0.47548   0.00000  Uiso   1.00
C341   C     0.02142   0.45253   0.24277   0.00000  Uiso   1.00
C342   C     0.31176   0.53682   0.22912   0.00000  Uiso   1.00
C343   C     0.31166   0.45189   0.24064   0.00000  Uiso   1.00
C344   C     0.01882   0.53958   0.24319   0.00000  Uiso   1.00
C345   C     0.29014   0.49573   0.23859   0.00000  Uiso   1.00
C346   C     0.04191   0.49728   0.24644   0.00000  Uiso   1.00
C347   C     0.18072   0.35788   0.21405   0.00000  Uiso   1.00
C348   C     0.15262   0.64211   0.28589   0.00000  Uiso   1.00
C349   C     0.15235   0.35840   0.28579   0.00000  Uiso   1.00
C350   C     0.18069   0.64158   0.21405   0.00000  Uiso   1.00
C351   C     0.16680   0.49993   0.16437   0.00000  Uiso   1.00
C352   C     0.16626   0.50013   0.33569   0.00000  Uiso   1.00
C353   C     0.18609   0.46462   0.40679   0.00000  Uiso   1.00
C354   C     0.14827   0.53649   0.09348   0.00000  Uiso   1.00
C355   C     0.16597   0.50036   0.38404   0.00000  Uiso   1.00
C356   C     0.16742   0.50006   0.11616   0.00000  Uiso   1.00
C357   C     0.14585   0.53631   0.40727   0.00000  Uiso   1.00
C358   C     0.18754   0.46426   0.09297   0.00000  Uiso   1.00
C359   C     0.14572   0.53714   0.45394   0.00000  Uiso   1.00
C360   C     0.18885   0.46431   0.04634   0.00000  Uiso   1.00
C361   C     0.16698   0.50100   0.47680   0.00000  Uiso   1.00
C362   C     0.16796   0.50064   0.02345   0.00000  Uiso   1.00
C363   C     0.18709   0.46489   0.45301   0.00000  Uiso   1.00
C364   C     0.14791   0.53669   0.04730   0.00000  Uiso   1.00
C365   C     0.12521   0.57285   0.47853   0.00000  Uiso   1.00
C366   C     0.21014   0.42916   0.02197   0.00000  Uiso   1.00
Cu367  Cu    0.16667   0.54689   0.25000   0.00000  Uiso   1.00
Cu368  Cu    0.16667   0.45311   0.25000   0.00000  Uiso   1.00
H369   H     0.20173   0.43707   0.38837   0.00000  Uiso   1.00
H370   H     0.13275   0.56412   0.11192   0.00000  Uiso   1.00
H371   H     0.13014   0.56300   0.38841   0.00000  Uiso   1.00
H372   H     0.20243   0.43703   0.11192   0.00000  Uiso   1.00
H373   H     0.11128   0.59911   0.04406   0.00000  Uiso   1.00
H374   H     0.22448   0.40289   0.45654   0.00000  Uiso   1.00
H375   H     0.19239   0.37620   0.18540   0.00000  Uiso   1.00
H376   H     0.14131   0.62372   0.31465   0.00000  Uiso   1.00
H377   H     0.14053   0.37714   0.31437   0.00000  Uiso   1.00
H378   H     0.19219   0.62280   0.18541   0.00000  Uiso   1.00
N379   N     0.16667   0.61736   0.25000   0.00000  Uiso   1.00
N380   N     0.16667   0.38264   0.25000   0.00000  Uiso   1.00
O381   O     0.10655   0.53958   0.25000   0.00000  Uiso   1.00
O382   O     0.22679   0.46042   0.25001   0.00000  Uiso   1.00
O383   O     0.22679   0.53958   0.25001   0.00000  Uiso   1.00
O384   O     0.10655   0.46042   0.25000   0.00000  Uiso   1.00
O385   O     0.16666   0.53960   0.18513   0.00000  Uiso   1.00
O386   O     0.16668   0.46040   0.31487   0.00000  Uiso   1.00
O387   O     0.16668   0.53960   0.31487   0.00000  Uiso   1.00
O388   O     0.16666   0.46040   0.18513   0.00000  Uiso   1.00
C389   C     0.09924   0.61083   0.45744   0.00000  Uiso   1.00
C390   C     0.05718   0.59159   0.44495   0.00000  Uiso   1.00
C391   C     0.02543   0.63080   0.44207   0.00000  Uiso   1.00
H392   H     0.01911   0.64533   0.47574   0.00000  Uiso   1.00
H393   H     0.03613   0.65971   0.42048   0.00000  Uiso   1.00
H394   H     0.33009   0.61652   0.42820   0.00000  Uiso   1.00
H395   H     0.05905   0.57283   0.41253   0.00000  Uiso   1.00
H396   H     0.04670   0.56605   0.47033   0.00000  Uiso   1.00
H397   H     0.09539   0.64056   0.48130   0.00000  Uiso   1.00
H398   H     0.11456   0.62633   0.42812   0.00000  Uiso   1.00
C399   C     0.23597   0.39167   0.04405   0.00000  Uiso   1.00
C400   C     0.27605   0.41258   0.06097   0.00000  Uiso   1.00
C401   C     0.30138   0.37597   0.08541   0.00000  Uiso   1.00
H402   H     0.28499   0.36378   0.11549   0.00000  Uiso   1.00
H403   H     0.30798   0.34554   0.06322   0.00000  Uiso   1.00
H404   H     0.33062   0.39178   0.09587   0.00000  Uiso   1.00
H405   H     0.29386   0.42586   0.03226   0.00000  Uiso   1.00
H406   H     0.27022   0.44260   0.08389   0.00000  Uiso   1.00
H407   H     0.21880   0.37461   0.07132   0.00000  Uiso   1.00
H408   H     0.24332   0.36305   0.01996   0.00000  Uiso   1.00
C409   C     0.04432   0.40511   0.23926   0.00000  Uiso   1.00
C410   C     0.05845   0.39657   0.19102   0.00000  Uiso   1.00
C411   C     0.07245   0.34612   0.18322   0.00000  Uiso   1.00
H412   H     0.09452   0.33541   0.20907   0.00000  Uiso   1.00
H413   H     0.04587   0.65565   0.18380   0.00000  Uiso   1.00
H414   H     0.08721   0.34306   0.15011   0.00000  Uiso   1.00
H415   H     0.03294   0.40395   0.16791   0.00000  Uiso   1.00
H416   H     0.08358   0.42066   0.18228   0.00000  Uiso   1.00
H417   H     0.06845   0.40069   0.26426   0.00000  Uiso   1.00
H418   H     0.02690   0.37457   0.25060   0.00000  Uiso   1.00
C419   C     0.29444   0.57403   0.19780   0.00000  Uiso   1.00
C420   C     0.27858   0.55164   0.15447   0.00000  Uiso   1.00
C421   C     0.26858   0.58861   0.11960   0.00000  Uiso   1.00
H422   H     0.24673   0.61488   0.13303   0.00000  Uiso   1.00
H423   H     0.29676   0.60673   0.10910   0.00000  Uiso   1.00
H424   H     0.25486   0.57138   0.09004   0.00000  Uiso   1.00
H425   H     0.30194   0.52734   0.14051   0.00000  Uiso   1.00
H426   H     0.25077   0.53101   0.16115   0.00000  Uiso   1.00
H427   H     0.27025   0.59504   0.21420   0.00000  Uiso   1.00
H428   H     0.31851   0.59911   0.18787   0.00000  Uiso   1.00
C429   C     0.28976   0.40409   0.24093   0.00000  Uiso   1.00
C430   C     0.28343   0.38815   0.28941   0.00000  Uiso   1.00
C431   C     0.26693   0.33843   0.29273   0.00000  Uiso   1.00
H432   H     0.23713   0.33609   0.27636   0.00000  Uiso   1.00
H433   H     0.28789   0.64640   0.27688   0.00000  Uiso   1.00
H434   H     0.26326   0.66214   0.32822   0.00000  Uiso   1.00
H435   H     0.31268   0.38961   0.30768   0.00000  Uiso   1.00
H436   H     0.26217   0.41239   0.30685   0.00000  Uiso   1.00
H437   H     0.26171   0.40315   0.22100   0.00000  Uiso   1.00
H438   H     0.30560   0.37703   0.22080   0.00000  Uiso   1.00
C439   C     0.03440   0.58752   0.25822   0.00000  Uiso   1.00
C440   C     0.04329   0.58863   0.30839   0.00000  Uiso   1.00
C441   C     0.05255   0.63851   0.32418   0.00000  Uiso   1.00
H442   H     0.07113   0.65735   0.29937   0.00000  Uiso   1.00
H443   H     0.02388   0.65834   0.32961   0.00000  Uiso   1.00
H444   H     0.06989   0.63734   0.35567   0.00000  Uiso   1.00
H445   H     0.01654   0.57543   0.32709   0.00000  Uiso   1.00
H446   H     0.06948   0.56567   0.31658   0.00000  Uiso   1.00
H447   H     0.06087   0.59863   0.23837   0.00000  Uiso   1.00
H448   H     0.01157   0.61530   0.25237   0.00000  Uiso   1.00
C449   C     0.42035   0.49960   0.24973   0.00000  Uiso   1.00
C450   C     0.57913   0.49916   0.24597   0.00000  Uiso   1.00
C451   C     0.46041   0.57219   0.02498   0.00000  Uiso   1.00
C452   C     0.54180   0.42973   0.47548   0.00000  Uiso   1.00
C453   C     0.35475   0.45253   0.24277   0.00000  Uiso   1.00
C454   C     0.64509   0.53682   0.22912   0.00000  Uiso   1.00
C455   C     0.64499   0.45189   0.24064   0.00000  Uiso   1.00
C456   C     0.35215   0.53958   0.24319   0.00000  Uiso   1.00
C457   C     0.62347   0.49573   0.23859   0.00000  Uiso   1.00
C458   C     0.37525   0.49728   0.24644   0.00000  Uiso   1.00
C459   C     0.51405   0.35788   0.21405   0.00000  Uiso   1.00
C460   C     0.48595   0.64211   0.28589   0.00000  Uiso   1.00
C461   C     0.48568   0.35840   0.28579   0.00000  Uiso   1.00
C462   C     0.51402   0.64158   0.21405   0.00000  Uiso   1.00
C463   C     0.50013   0.49993   0.16437   0.00000  Uiso   1.00
C464   C     0.49959   0.50013   0.33569   0.00000  Uiso   1.00
C465   C     0.51943   0.46462   0.40679   0.00000  Uiso   1.00
C466   C     0.48161   0.53649   0.09348   0.00000  Uiso   1.00
C467   C     0.49930   0.50036   0.38404   0.00000  Uiso   1.00
C468   C     0.50075   0.50006   0.11616   0.00000  Uiso   1.00
C469   C     0.47918   0.53631   0.40727   0.00000  Uiso   1.00
C470   C     0.52087   0.46426   0.09297   0.00000  Uiso   1.00
C471   C     0.47905   0.53714   0.45394   0.00000  Uiso   1.00
C472   C     0.52218   0.46431   0.04634   0.00000  Uiso   1.00
C473   C     0.50032   0.50100   0.47680   0.00000  Uiso   1.00
C474   C     0.50129   0.50064   0.02345   0.00000  Uiso   1.00
C475   C     0.52042   0.46489   0.45301   0.00000  Uiso   1.00
C476   C     0.48125   0.53669   0.04730   0.00000  Uiso   1.00
C477   C     0.45854   0.57285   0.47853   0.00000  Uiso   1.00
C478   C     0.54348   0.42916   0.02197   0.00000  Uiso   1.00
Cu479  Cu    0.50000   0.54689   0.25000   0.00000  Uiso   1.00
Cu480  Cu    0.50000   0.45311   0.25000   0.00000  Uiso   1.00
H481   H     0.53507   0.43707   0.38837   0.00000  Uiso   1.00
H482   H     0.46608   0.56412   0.11192   0.00000  Uiso   1.00
H483   H     0.46347   0.56300   0.38841   0.00000  Uiso   1.00
H484   H     0.53576   0.43703   0.11192   0.00000  Uiso   1.00
H485   H     0.44462   0.59911   0.04406   0.00000  Uiso   1.00
H486   H     0.55781   0.40289   0.45654   0.00000  Uiso   1.00
H487   H     0.52572   0.37620   0.18540   0.00000  Uiso   1.00
H488   H     0.47464   0.62372   0.31465   0.00000  Uiso   1.00
H489   H     0.47386   0.37714   0.31437   0.00000  Uiso   1.00
H490   H     0.52552   0.62280   0.18541   0.00000  Uiso   1.00
N491   N     0.50000   0.61736   0.25000   0.00000  Uiso   1.00
N492   N     0.50000   0.38264   0.25000   0.00000  Uiso   1.00
O493   O     0.43988   0.53958   0.25000   0.00000  Uiso   1.00
O494   O     0.56012   0.46042   0.25001   0.00000  Uiso   1.00
O495   O     0.56012   0.53958   0.25001   0.00000  Uiso   1.00
O496   O     0.43988   0.46042   0.25000   0.00000  Uiso   1.00
O497   O     0.49999   0.53960   0.18513   0.00000  Uiso   1.00
O498   O     0.50001   0.46040   0.31487   0.00000  Uiso   1.00
O499   O     0.50001   0.53960   0.31487   0.00000  Uiso   1.00
O500   O     0.49999   0.46040   0.18513   0.00000  Uiso   1.00
C501   C     0.43258   0.61083   0.45744   0.00000  Uiso   1.00
C502   C     0.39051   0.59159   0.44495   0.00000  Uiso   1.00
C503   C     0.35877   0.63080   0.44207   0.00000  Uiso   1.00
H504   H     0.35244   0.64533   0.47574   0.00000  Uiso   1.00
H505   H     0.36946   0.65971   0.42048   0.00000  Uiso   1.00
H506   H     0.66342   0.61652   0.42820   0.00000  Uiso   1.00
H507   H     0.39239   0.57283   0.41253   0.00000  Uiso   1.00
H508   H     0.38004   0.56605   0.47033   0.00000  Uiso   1.00
H509   H     0.42872   0.64056   0.48130   0.00000  Uiso   1.00
H510   H     0.44790   0.62633   0.42812   0.00000  Uiso   1.00
C511   C     0.56930   0.39167   0.04405   0.00000  Uiso   1.00
C512   C     0.60938   0.41258   0.06097   0.00000  Uiso   1.00
C513   C     0.63471   0.37597   0.08541   0.00000  Uiso   1.00
H514   H     0.61832   0.36378   0.11549   0.00000  Uiso   1.00
H515   H     0.64131   0.34554   0.06322   0.00000  Uiso   1.00
H516   H     0.66395   0.39178   0.09587   0.00000  Uiso   1.00
H517   H     0.62719   0.42586   0.03226   0.00000  Uiso   1.00
H518   H     0.60355   0.44260   0.08389   0.00000  Uiso   1.00
H519   H     0.55214   0.37461   0.07132   0.00000  Uiso   1.00
H520   H     0.57665   0.36305   0.01996   0.00000  Uiso   1.00
C521   C     0.37765   0.40511   0.23926   0.00000  Uiso   1.00
C522   C     0.39179   0.39657   0.19102   0.00000  Uiso   1.00
C523   C     0.40578   0.34612   0.18322   0.00000  Uiso   1.00
H524   H     0.42785   0.33541   0.20907   0.00000  Uiso   1.00
H525   H     0.37920   0.65565   0.18380   0.00000  Uiso   1.00
H526   H     0.42054   0.34306   0.15011   0.00000  Uiso   1.00
H527   H     0.36628   0.40395   0.16791   0.00000  Uiso   1.00
H528   H     0.41691   0.42066   0.18228   0.00000  Uiso   1.00
H529   H     0.40178   0.40069   0.26426   0.00000  Uiso   1.00
H530   H     0.36024   0.37457   0.25060   0.00000  Uiso   1.00
C531   C     0.62778   0.57403   0.19780   0.00000  Uiso   1.00
C532   C     0.61191   0.55164   0.15447   0.00000  Uiso   1.00
C533   C     0.60191   0.58861   0.11960   0.00000  Uiso   1.00
H534   H     0.58006   0.61488   0.13303   0.00000  Uiso   1.00
H535   H     0.63010   0.60673   0.10910   0.00000  Uiso   1.00
H536   H     0.58819   0.57138   0.09004   0.00000  Uiso   1.00
H537   H     0.63527   0.52734   0.14051   0.00000  Uiso   1.00
H538   H     0.58410   0.53101   0.16115   0.00000  Uiso   1.00
H539   H     0.60358   0.59504   0.21420   0.00000  Uiso   1.00
H540   H     0.65184   0.59911   0.18787   0.00000  Uiso   1.00
C541   C     0.62310   0.40409   0.24093   0.00000  Uiso   1.00
C542   C     0.61677   0.38815   0.28941   0.00000  Uiso   1.00
C543   C     0.60026   0.33843   0.29273   0.00000  Uiso   1.00
H544   H     0.57047   0.33609   0.27636   0.00000  Uiso   1.00
H545   H     0.62123   0.64640   0.27688   0.00000  Uiso   1.00
H546   H     0.59659   0.66214   0.32822   0.00000  Uiso   1.00
H547   H     0.64601   0.38961   0.30768   0.00000  Uiso   1.00
H548   H     0.59550   0.41239   0.30685   0.00000  Uiso   1.00
H549   H     0.59504   0.40315   0.22100   0.00000  Uiso   1.00
H550   H     0.63894   0.37703   0.22080   0.00000  Uiso   1.00
C551   C     0.36773   0.58752   0.25822   0.00000  Uiso   1.00
C552   C     0.37662   0.58863   0.30839   0.00000  Uiso   1.00
C553   C     0.38588   0.63851   0.32418   0.00000  Uiso   1.00
H554   H     0.40446   0.65735   0.29937   0.00000  Uiso   1.00
H555   H     0.35721   0.65834   0.32961   0.00000  Uiso   1.00
H556   H     0.40322   0.63734   0.35567   0.00000  Uiso   1.00
H557   H     0.34988   0.57543   0.32709   0.00000  Uiso   1.00
H558   H     0.40281   0.56567   0.31658   0.00000  Uiso   1.00
H559   H     0.39420   0.59863   0.23837   0.00000  Uiso   1.00
H560   H     0.34490   0.61530   0.25237   0.00000  Uiso   1.00
C561   C     0.75368   0.49960   0.24973   0.00000  Uiso   1.00
C562   C     0.91246   0.49916   0.24597   0.00000  Uiso   1.00
C563   C     0.79374   0.57219   0.02498   0.00000  Uiso   1.00
C564   C     0.87513   0.42973   0.47548   0.00000  Uiso   1.00
C565   C     0.68809   0.45253   0.24277   0.00000  Uiso   1.00
C566   C     0.97843   0.53682   0.22912   0.00000  Uiso   1.00
C567   C     0.97833   0.45189   0.24064   0.00000  Uiso   1.00
C568   C     0.68549   0.53958   0.24319   0.00000  Uiso   1.00
C569   C     0.95680   0.49573   0.23859   0.00000  Uiso   1.00
C570   C     0.70858   0.49728   0.24644   0.00000  Uiso   1.00
C571   C     0.84739   0.35788   0.21405   0.00000  Uiso   1.00
C572   C     0.81928   0.64211   0.28589   0.00000  Uiso   1.00
C573   C     0.81902   0.35840   0.28579   0.00000  Uiso   1.00
C574   C     0.84736   0.64158   0.21405   0.00000  Uiso   1.00
C575   C     0.83346   0.49993   0.16437   0.00000  Uiso   1.00
C576   C     0.83292   0.50013   0.33569   0.00000  Uiso   1.00
C577   C     0.85276   0.46462   0.40679   0.00000  Uiso   1.00
C578   C     0.81494   0.53649   0.09348   0.00000  Uiso   1.00
C579   C     0.83264   0.50036   0.38404   0.00000  Uiso   1.00
C580   C     0.83409   0.50006   0.11616   0.00000  Uiso   1.00
C581   C     0.81251   0.53631   0.40727   0.00000  Uiso   1.00
C582   C     0.85420   0.46426   0.09297   0.00000  Uiso   1.00
C583   C     0.81238   0.53714   0.45394   0.00000  Uiso   1.00
C584   C     0.85551   0.46431   0.04634   0.00000  Uiso   1.00
C585   C     0.83365   0.50100   0.47680   0.00000  Uiso   1.00
C586   C     0.83463   0.50064   0.02345   0.00000  Uiso   1.00
C587   C     0.85375   0.46489   0.45301   0.00000  Uiso   1.00
C588   C     0.81458   0.53669   0.04730   0.00000  Uiso   1.00
C589   C     0.79187   0.57285   0.47853   0.00000  Uiso   1.00
C590   C     0.87681   0.42916   0.02197   0.00000  Uiso   1.00
Cu591  Cu    0.83333   0.54689   0.25000   0.00000  Uiso   1.00
Cu592  Cu    0.83333   0.45311   0.25000   0.00000  Uiso   1.00
H593   H     0.86840   0.43707   0.38837   0.00000  Uiso   1.00
H594   H     0.79942   0.56412   0.11192   0.00000  Uiso   1.00
H595   H     0.79681   0.56300   0.38841   0.00000  Uiso   1.00
H596   H     0.86909   0.43703   0.11192   0.00000  Uiso   1.00
H597   H     0.77795   0.59911   0.04406   0.00000  Uiso   1.00
H598   H     0.89115   0.40289   0.45654   0.00000  Uiso   1.00
H599   H     0.85905   0.37620   0.18540   0.00000  Uiso   1.00
H600   H     0.80798   0.62372   0.31465   0.00000  Uiso   1.00
H601   H     0.80720   0.37714   0.31437   0.00000  Uiso   1.00
H602   H     0.85885   0.62280   0.18541   0.00000  Uiso   1.00
N603   N     0.83333   0.61736   0.25000   0.00000  Uiso   1.00
N604   N     0.83333   0.38264   0.25000   0.00000  Uiso   1.00
O605   O     0.77321   0.53958   0.25000   0.00000  Uiso   1.00
O606   O     0.89345   0.46042   0.25001   0.00000  Uiso   1.00
O607   O     0.89345   0.53958   0.25001   0.00000  Uiso   1.00
O608   O     0.77321   0.46042   0.25000   0.00000  Uiso   1.00
O609   O     0.83332   0.53960   0.18513   0.00000  Uiso   1.00
O610   O     0.83334   0.46040   0.31487   0.00000  Uiso   1.00
O611   O     0.83334   0.53960   0.31487   0.00000  Uiso   1.00
O612   O     0.83332   0.46040   0.18513   0.00000  Uiso   1.00
C613   C     0.76591   0.61083   0.45744   0.00000  Uiso   1.00
C614   C     0.72384   0.59159   0.44495   0.00000  Uiso   1.00
C615   C     0.69210   0.63080   0.44207   0.00000  Uiso   1.00
H616   H     0.68577   0.64533   0.47574   0.00000  Uiso   1.00
H617   H     0.70279   0.65971   0.42048   0.00000  Uiso   1.00
H618   H     0.99676   0.61652   0.42820   0.00000  Uiso   1.00
H619   H     0.72572   0.57283   0.41253   0.00000  Uiso   1.00
H620   H     0.71337   0.56605   0.47033   0.00000  Uiso   1.00
H621   H     0.76206   0.64056   0.48130   0.00000  Uiso   1.00
H622   H     0.78123   0.62633   0.42812   0.00000  Uiso   1.00
C623   C     0.90263   0.39167   0.04405   0.00000  Uiso   1.00
C624   C     0.94272   0.41258   0.06097   0.00000  Uiso   1.00
C625   C     0.96805   0.37597   0.08541   0.00000  Uiso   1.00
H626   H     0.95166   0.36378   0.11549   0.00000  Uiso   1.00
H627   H     0.97465   0.34554   0.06322   0.00000  Uiso   1.00
H628   H     0.99729   0.39178   0.09587   0.00000  Uiso   1.00
H629   H     0.96052   0.42586   0.03226   0.00000  Uiso   1.00
H630   H     0.93689   0.44260   0.08389   0.00000  Uiso   1.00
H631   H     0.88547   0.37461   0.07132   0.00000  Uiso   1.00
H632   H     0.90999   0.36305   0.01996   0.00000  Uiso   1.00
C633   C     0.71098   0.40511   0.23926   0.00000  Uiso   1.00
C634   C     0.72512   0.39657   0.19102   0.00000  Uiso   1.00
C635   C     0.73912   0.34612   0.18322   0.00000  Uiso   1.00
H636   H     0.76119   0.33541   0.20907   0.00000  Uiso   1.00
H637   H     0.71253   0.65565   0.18380   0.00000  Uiso   1.00
H638   H     0.75387   0.34306   0.15011   0.00000  Uiso   1.00
H639   H     0.69961   0.40395   0.16791   0.00000  Uiso   1.00
H640   H     0.75025   0.42066   0.18228   0.00000  Uiso   1.00
H641   H     0.73511   0.40069   0.26426   0.00000  Uiso   1.00
H642   H     0.69357   0.37457   0.25060   0.00000  Uiso   1.00
C643   C     0.96111   0.57403   0.19780   0.00000  Uiso   1.00
C644   C     0.94525   0.55164   0.15447   0.00000  Uiso   1.00
C645   C     0.93525   0.58861   0.11960   0.00000  Uiso   1.00
H646   H     0.91339   0.61488   0.13303   0.00000  Uiso   1.00
H647   H     0.96343   0.60673   0.10910   0.00000  Uiso   1.00
H648   H     0.92152   0.57138   0.09004   0.00000  Uiso   1.00
H649   H     0.96860   0.52734   0.14051   0.00000  Uiso   1.00
H650   H     0.91743   0.53101   0.16115   0.00000  Uiso   1.00
H651   H     0.93691   0.59504   0.21420   0.00000  Uiso   1.00
H652   H     0.98517   0.59911   0.18787   0.00000  Uiso   1.00
C653   C     0.95643   0.40409   0.24093   0.00000  Uiso   1.00
C654   C     0.95010   0.38815   0.28941   0.00000  Uiso   1.00
C655   C     0.93360   0.33843   0.29273   0.00000  Uiso   1.00
H656   H     0.90380   0.33609   0.27636   0.00000  Uiso   1.00
H657   H     0.95456   0.64640   0.27688   0.00000  Uiso   1.00
H658   H     0.92992   0.66214   0.32822   0.00000  Uiso   1.00
H659   H     0.97935   0.38961   0.30768   0.00000  Uiso   1.00
H660   H     0.92884   0.41239   0.30685   0.00000  Uiso   1.00
H661   H     0.92837   0.40315   0.22100   0.00000  Uiso   1.00
H662   H     0.97227   0.37703   0.22080   0.00000  Uiso   1.00
C663   C     0.70107   0.58752   0.25822   0.00000  Uiso   1.00
C664   C     0.70996   0.58863   0.30839   0.00000  Uiso   1.00
C665   C     0.71922   0.63851   0.32418   0.00000  Uiso   1.00
H666   H     0.73780   0.65735   0.29937   0.00000  Uiso   1.00
H667   H     0.69054   0.65834   0.32961   0.00000  Uiso   1.00
H668   H     0.73655   0.63734   0.35567   0.00000  Uiso   1.00
H669   H     0.68321   0.57543   0.32709   0.00000  Uiso   1.00
H670   H     0.73614   0.56567   0.31658   0.00000  Uiso   1.00
H671   H     0.72753   0.59863   0.23837   0.00000  Uiso   1.00
H672   H     0.67824   0.61530   0.25237   0.00000  Uiso   1.00
C673   C     0.08702   0.83293   0.24973   0.00000  Uiso   1.00
C674   C     0.24579   0.83250   0.24597   0.00000  Uiso   1.00
C675   C     0.12708   0.90553   0.02498   0.00000  Uiso   1.00
C676   C     0.20847   0.76306   0.47548   0.00000  Uiso   1.00
C677   C     0.02142   0.78587   0.24277   0.00000  Uiso   1.00
C678   C     0.31176   0.87015   0.22912   0.00000  Uiso   1.00
C679   C     0.31166   0.78522   0.24064   0.00000  Uiso   1.00
C680   C     0.01882   0.87291   0.24319   0.00000  Uiso   1.00
C681   C     0.29014   0.82906   0.23859   0.00000  Uiso   1.00
C682   C     0.04191   0.83061   0.24644   0.00000  Uiso   1.00
C683   C     0.18072   0.69121   0.21405   0.00000  Uiso   1.00
C684   C     0.15262   0.97545   0.28589   0.00000  Uiso   1.00
C685   C     0.15235   0.69173   0.28579   0.00000  Uiso   1.00
C686   C     0.18069   0.97492   0.21405   0.00000  Uiso   1.00
C687   C     0.16680   0.83326   0.16437   0.00000  Uiso   1.00
C688   C     0.16626   0.83346   0.33569   0.00000  Uiso   1.00
C689   C     0.18609   0.79796   0.40679   0.00000  Uiso   1.00
C690   C     0.14827   0.86982   0.09348   0.00000  Uiso   1.00
C691   C     0.16597   0.83370   0.38404   0.00000  Uiso   1.00
C692   C     0.16742   0.83339   0.11616   0.00000  Uiso   1.00
C693   C     0.14585   0.86965   0.40727   0.00000  Uiso   1.00
C694   C     0.18754   0.79759   0.09297   0.00000  Uiso   1.00
C695   C     0.14572   0.87047   0.45394   0.00000  Uiso   1.00
C696   C     0.18885   0.79765   0.04634   0.00000  Uiso   1.00
C697   C     0.16698   0.83433   0.47680   0.00000  Uiso   1.00
C698   C     0.16796   0.83397   0.02345   0.00000  Uiso   1.00
C699   C     0.18709   0.79822   0.45301   0.00000  Uiso   1.00
C700   C     0.14791   0.87002   0.04730   0.00000  Uiso   1.00
C701   C     0.12521   0.90618   0.47853   0.00000  Uiso   1.00
C702   C     0.21014   0.76250   0.02197   0.00000  Uiso   1.00
Cu703  Cu    0.16667   0.88022   0.25000   0.00000  Uiso   1.00
Cu704  Cu    0.16667   0.78645   0.25000   0.00000  Uiso   1.00
H705   H     0.20173   0.77040   0.38837   0.00000  Uiso   1.00
H706   H     0.13275   0.89746   0.11192   0.00000  Uiso   1.00
H707   H     0.13014   0.89633   0.38841   0.00000  Uiso   1.00
H708   H     0.20243   0.77037   0.11192   0.00000  Uiso   1.00
H709   H     0.11128   0.93244   0.04406   0.00000  Uiso   1.00
H710   H     0.22448   0.73622   0.45654   0.00000  Uiso   1.00
H711   H     0.19239   0.70954   0.18540   0.00000  Uiso   1.00
H712   H     0.14131   0.95705   0.31465   0.00000  Uiso   1.00
H713   H     0.14053   0.71047   0.31437   0.00000  Uiso   1.00
H714   H     0.19219   0.95613   0.18541   0.00000  Uiso   1.00
N715   N     0.16667   0.95069   0.25000   0.00000  Uiso   1.00
N716   N     0.16667   0.71598   0.25000   0.00000  Uiso   1.00
O717   O     0.10655   0.87291   0.25000   0.00000  Uiso   1.00
O718   O     0.22679   0.79375   0.25001   0.00000  Uiso   1.00
O719   O     0.22679   0.87291   0.25001   0.00000  Uiso   1.00
O720   O     0.10655   0.79375   0.25000   0.00000  Uiso   1.00
O721   O     0.16666   0.87293   0.18513   0.00000  Uiso   1.00
O722   O     0.16668   0.79373   0.31487   0.00000  Uiso   1.00
O723   O     0.16668   0.87293   0.31487   0.00000  Uiso   1.00
O724   O     0.16666   0.79373   0.18513   0.00000  Uiso   1.00
C725   C     0.09924   0.94416   0.45744   0.00000  Uiso   1.00
C726   C     0.05718   0.92493   0.44495   0.00000  Uiso   1.00
C727   C     0.02543   0.96413   0.44207   0.00000  Uiso   1.00
H728   H     0.01911   0.97866   0.47574   0.00000  Uiso   1.00
H729   H     0.03613   0.99304   0.42048   0.00000  Uiso   1.00
H730   H     0.33009   0.94985   0.42820   0.00000  Uiso   1.00
H731   H     0.05905   0.90616   0.41253   0.00000  Uiso   1.00
H732   H     0.04670   0.89938   0.47033   0.00000  Uiso   1.00
H733   H     0.09539   0.97390   0.48130   0.00000  Uiso   1.00
H734   H     0.11456   0.95967   0.42812   0.00000  Uiso   1.00
C735   C     0.23597   0.72501   0.04405   0.00000  Uiso   1.00
C736   C     0.27605   0.74591   0.06097   0.00000  Uiso   1.00
C737   C     0.30138   0.70930   0.08541   0.00000  Uiso   1.00
H738   H     0.28499   0.69711   0.11549   0.00000  Uiso   1.00
H739   H     0.30798   0.67888   0.06322   0.00000  Uiso   1.00
H740   H     0.33062   0.72511   0.09587   0.00000  Uiso   1.00
H741   H     0.29386   0.75920   0.03226   0.00000  Uiso   1.00
H742   H     0.27022   0.77593   0.08389   0.00000  Uiso   1.00
H743   H     0.21880   0.70795   0.07132   0.00000  Uiso   1.00
H744   H     0.24332   0.69639   0.01996   0.00000  Uiso   1.00
C745   C     0.04432   0.73845   0.23926   0.00000  Uiso   1.00
C746   C     0.05845   0.72990   0.19102   0.00000  Uiso   1.00
C747   C     0.07245   0.67945   0.18322   0.00000  Uiso   1.00
H748   H     0.09452   0.66874   0.20907   0.00000  Uiso   1.00
H749   H     0.04587   0.98898   0.18380   0.00000  Uiso   1.00
H750   H     0.08721   0.67639   0.15011   0.00000  Uiso   1.00
H751   H     0.03294   0.73728   0.16791   0.00000  Uiso   1.00
H752   H     0.08358   0.75400   0.18228   0.00000  Uiso   1.00
H753   H     0.06845   0.73403   0.26426   0.00000  Uiso   1.00
H754   H     0.02690   0.70790   0.25060   0.00000  Uiso   1.00
C755   C     0.29444   0.90736   0.19780   0.00000  Uiso   1.00
C756   C     0.27858   0.88497   0.15447   0.00000  Uiso   1.00
C757   C     0.26858   0.92195   0.11960   0.00000  Uiso   1.00
H758   H     0.24673   0.94821   0.13303   0.00000  Uiso   1.00
H759   H     0.29676   0.94006   0.10910   0.00000  Uiso   1.00
H760   H     0.25486   0.90471   0.09004   0.00000  Uiso   1.00
H761   H     0.30194   0.86067   0.14051   0.00000  Uiso   1.00
H762   H     0.25077   0.86435   0.16115   0.00000  Uiso   1.00
H763   H     0.27025   0.92838   0.21420   0.00000  Uiso   1.00
H764   H     0.31851   0.93245   0.18787   0.00000  Uiso   1.00
C765   C     0.28976   0.73743   0.24093   0.00000  Uiso   1.00
C766   C     0.28343   0.72148   0.28941   0.00000  Uiso   1.00
C767   C     0.26693   0.67177   0.29273   0.00000  Uiso   1.00
H768   H     0.23713   0.66942   0.27636   0.00000  Uiso   1.00
H769   H     0.28789   0.97973   0.27688   0.00000  Uiso   1.00
H770   H     0.26326   0.99547   0.32822   0.00000  Uiso   1.00
H771   H     0.31268   0.72295   0.30768   0.00000  Uiso   1.00
H772   H     0.26217   0.74572   0.30685   0.00000  Uiso   1.00
H773   H     0.26171   0.73648   0.22100   0.00000  Uiso   1.00
H774   H     0.30560   0.71037   0.22080   0.00000  Uiso   1.00
C775   C     0.03440   0.92085   0.25822   0.00000  Uiso   1.00
C776   C     0.04329   0.92197   0.30839   0.00000  Uiso   1.00
C777   C     0.05255   0.97184   0.32418   0.00000  Uiso   1.00
H778   H     0.07113   0.99068   0.29937   0.00000  Uiso   1.00
H779   H     0.02388   0.99167   0.32961   0.00000  Uiso   1.00
H780   H     0.06989   0.97068   0.35567   0.00000  Uiso   1.00
H781   H     0.01654   0.90876   0.32709   0.00000  Uiso   1.00
H782   H     0.06948   0.89900   0.31658   0.00000  Uiso   1.00
H783   H     0.06087   0.93196   0.23837   0.00000  Uiso   1.00
H784   H     0.01157   0.94864   0.25237   0.00000  Uiso   1.00
C785   C     0.42035   0.83293   0.24973   0.00000  Uiso   1.00
C786   C     0.57913   0.83250   0.24597   0.00000  Uiso   1.00
C787   C     0.46041   0.90553   0.02498   0.00000  Uiso   1.00
C788   C     0.54180   0.76306   0.47548   0.00000  Uiso   1.00
C789   C     0.35475   0.78587   0.24277   0.00000  Uiso   1.00
C790   C     0.64509   0.87015   0.22912   0.00000  Uiso   1.00
C791   C     0.64499   0.78522   0.24064   0.00000  Uiso   1.00
C792   C     0.35215   0.87291   0.24319   0.00000  Uiso   1.00
C793   C     0.62347   0.82906   0.23859   0.00000  Uiso   1.00
C794   C     0.37525   0.83061   0.24644   0.00000  Uiso   1.00
C795   C     0.51405   0.69121   0.21405   0.00000  Uiso   1.00
C796   C     0.48595   0.97545   0.28589   0.00000  Uiso   1.00
C797   C     0.48568   0.69173   0.28579   0.00000  Uiso   1.00
C798   C     0.51402   0.97492   0.21405   0.00000  Uiso   1.00
C799   C     0.50013   0.83326   0.16437   0.00000  Uiso   1.00
C800   C     0.49959   0.83346   0.33569   0.00000  Uiso   1.00
C801   C     0.51943   0.79796   0.40679   0.00000  Uiso   1.00
C802   C     0.48161   0.86982   0.09348   0.00000  Uiso   1.00
C803   C     0.49930   0.83370   0.38404   0.00000  Uiso   1.00
C804   C     0.50075   0.83339   0.11616   0.00000  Uiso   1.00
C805   C     0.47918   0.86965   0.40727   0.00000  Uiso   1.00
C806   C     0.52087   0.79759   0.09297   0.00000  Uiso   1.00
C807   C     0.47905   0.87047   0.45394   0.00000  Uiso   1.00
C808   C     0.52218   0.79765   0.04634   0.00000  Uiso   1.00
C809   C     0.50032   0.83433   0.47680   0.00000  Uiso   1.00
C810   C     0.50129   0.83397   0.02345   0.00000  Uiso   1.00
C811   C     0.52042   0.79822   0.45301   0.00000  Uiso   1.00
C812   C     0.48125   0.87002   0.04730   0.00000  Uiso   1.00
C813   C     0.45854   0.90618   0.47853   0.00000  Uiso   1.00
C814   C     0.54348   0.76250   0.02197   0.00000  Uiso   1.00
Cu815  Cu    0.50000   0.88022   0.25000   0.00000  Uiso   1.00
Cu816  Cu    0.50000   0.78645   0.25000   0.00000  Uiso   1.00
H817   H     0.53507   0.77040   0.38837   0.00000  Uiso   1.00
H818   H     0.46608   0.89746   0.11192   0.00000  Uiso   1.00
H819   H     0.46347   0.89633   0.38841   0.00000  Uiso   1.00
H820   H     0.53576   0.77037   0.11192   0.00000  Uiso   1.00
H821   H     0.44462   0.93244   0.04406   0.00000  Uiso   1.00
H822   H     0.55781   0.73622   0.45654   0.00000  Uiso   1.00
H823   H     0.52572   0.70954   0.18540   0.00000  Uiso   1.00
H824   H     0.47464   0.95705   0.31465   0.00000  Uiso   1.00
H825   H     0.47386   0.71047   0.31437   0.00000  Uiso   1.00
H826   H     0.52552   0.95613   0.18541   0.00000  Uiso   1.00
N827   N     0.50000   0.95069   0.25000   0.00000  Uiso   1.00
N828   N     0.50000   0.71598   0.25000   0.00000  Uiso   1.00
O829   O     0.43988   0.87291   0.25000   0.00000  Uiso   1.00
O830   O     0.56012   0.79375   0.25001   0.00000  Uiso   1.00
O831   O     0.56012   0.87291   0.25001   0.00000  Uiso   1.00
O832   O     0.43988   0.79375   0.25000   0.00000  Uiso   1.00
O833   O     0.49999   0.87293   0.18513   0.00000  Uiso   1.00
O834   O     0.50001   0.79373   0.31487   0.00000  Uiso   1.00
O835   O     0.50001   0.87293   0.31487   0.00000  Uiso   1.00
O836   O     0.49999   0.79373   0.18513   0.00000  Uiso   1.00
C837   C     0.43258   0.94416   0.45744   0.00000  Uiso   1.00
C838   C     0.39051   0.92493   0.44495   0.00000  Uiso   1.00
C839   C     0.35877   0.96413   0.44207   0.00000  Uiso   1.00
H840   H     0.35244   0.97866   0.47574   0.00000  Uiso   1.00
H841   H     0.36946   0.99304   0.42048   0.00000  Uiso   1.00
H842   H     0.66342   0.94985   0.42820   0.00000  Uiso   1.00
H843   H     0.39239   0.90616   0.41253   0.00000  Uiso   1.00
H844   H     0.38004   0.89938   0.47033   0.00000  Uiso   1.00
H845   H     0.42872   0.97390   0.48130   0.00000  Uiso   1.00
H846   H     0.44790   0.95967   0.42812   0.00000  Uiso   1.00
C847   C     0.56930   0.72501   0.04405   0.00000  Uiso   1.00
C848   C     0.60938   0.74591   0.06097   0.00000  Uiso   1.00
C849   C     0.63471   0.70930   0.08541   0.00000  Uiso   1.00
H850   H     0.61832   0.69711   0.11549   0.00000  Uiso   1.00
H851   H     0.64131   0.67888   0.06322   0.00000  Uiso   1.00
H852   H     0.66395   0.72511   0.09587   0.00000  Uiso   1.00
H853   H     0.62719   0.75920   0.03226   0.00000  Uiso   1.00
H854   H     0.60355   0.77593   0.08389   0.00000  Uiso   1.00
H855   H     0.55214   0.70795   0.07132   0.00000  Uiso   1.00
H856   H     0.57665   0.69639   0.01996   0.00000  Uiso   1.00
C857   C     0.37765   0.73845   0.23926   0.00000  Uiso   1.00
C858   C     0.39179   0.72990   0.19102   0.00000  Uiso   1.00
C859   C     0.40578   0.67945   0.18322   0.00000  Uiso   1.00
H860   H     0.42785   0.66874   0.20907   0.00000  Uiso   1.00
H861   H     0.37920   0.98898   0.18380   0.00000  Uiso   1.00
H862   H     0.42054   0.67639   0.15011   0.00000  Uiso   1.00
H863   H     0.36628   0.73728   0.16791   0.00000  Uiso   1.00
H864   H     0.41691   0.75400   0.18228   0.00000  Uiso   1.00
H865   H     0.40178   0.73403   0.26426   0.00000  Uiso   1.00
H866   H     0.36024   0.70790   0.25060   0.00000  Uiso   1.00
C867   C     0.62778   0.90736   0.19780   0.00000  Uiso   1.00
C868   C     0.61191   0.88497   0.15447   0.00000  Uiso   1.00
C869   C     0.60191   0.92195   0.11960   0.00000  Uiso   1.00
H870   H     0.58006   0.94821   0.13303   0.00000  Uiso   1.00
H871   H     0.63010   0.94006   0.10910   0.00000  Uiso   1.00
H872   H     0.58819   0.90471   0.09004   0.00000  Uiso   1.00
H873   H     0.63527   0.86067   0.14051   0.00000  Uiso   1.00
H874   H     0.58410   0.86435   0.16115   0.00000  Uiso   1.00
H875   H     0.60358   0.92838   0.21420   0.00000  Uiso   1.00
H876   H     0.65184   0.93245   0.18787   0.00000  Uiso   1.00
C877   C     0.62310   0.73743   0.24093   0.00000  Uiso   1.00
C878   C     0.61677   0.72148   0.28941   0.00000  Uiso   1.00
C879   C     0.60026   0.67177   0.29273   0.00000  Uiso   1.00
H880   H     0.57047   0.66942   0.27636   0.00000  Uiso   1.00
H881   H     0.62123   0.97973   0.27688   0.00000  Uiso   1.00
H882   H     0.59659   0.99547   0.32822   0.00000  Uiso   1.00
H883   H     0.64601   0.72295   0.30768   0.00000  Uiso   1.00
H884   H     0.59550   0.74572   0.30685   0.00000  Uiso   1.00
H885   H     0.59504   0.73648   0.22100   0.00000  Uiso   1.00
H886   H     0.63894   0.71037   0.22080   0.00000  Uiso   1.00
C887   C     0.36773   0.92085   0.25822   0.00000  Uiso   1.00
C888   C     0.37662   0.92197   0.30839   0.00000  Uiso   1.00
C889   C     0.38588   0.97184   0.32418   0.00000  Uiso   1.00
H890   H     0.40446   0.99068   0.29937   0.00000  Uiso   1.00
H891   H     0.35721   0.99167   0.32961   0.00000  Uiso   1.00
H892   H     0.40322   0.97068   0.35567   0.00000  Uiso   1.00
H893   H     0.34988   0.90876   0.32709   0.00000  Uiso   1.00
H894   H     0.40281   0.89900   0.31658   0.00000  Uiso   1.00
H895   H     0.39420   0.93196   0.23837   0.00000  Uiso   1.00
H896   H     0.34490   0.94864   0.25237   0.00000  Uiso   1.00
C897   C     0.75368   0.83293   0.24973   0.00000  Uiso   1.00
C898   C     0.91246   0.83250   0.24597   0.00000  Uiso   1.00
C899   C     0.79374   0.90553   0.02498   0.00000  Uiso   1.00
C900   C     0.87513   0.76306   0.47548   0.00000  Uiso   1.00
C901   C     0.68809   0.78587   0.24277   0.00000  Uiso   1.00
C902   C     0.97843   0.87015   0.22912   0.00000  Uiso   1.00
C903   C     0.97833   0.78522   0.24064   0.00000  Uiso   1.00
C904   C     0.68549   0.87291   0.24319   0.00000  Uiso   1.00
C905   C     0.95680   0.82906   0.23859   0.00000  Uiso   1.00
C906   C     0.70858   0.83061   0.24644   0.00000  Uiso   1.00
C907   C     0.84739   0.69121   0.21405   0.00000  Uiso   1.00
C908   C     0.81928   0.97545   0.28589   0.00000  Uiso   1.00
C909   C     0.81902   0.69173   0.28579   0.00000  Uiso   1.00
C910   C     0.84736   0.97492   0.21405   0.00000  Uiso   1.00
C911   C     0.83346   0.83326   0.16437   0.00000  Uiso   1.00
C912   C     0.83292   0.83346   0.33569   0.00000  Uiso   1.00
C913   C     0.85276   0.79796   0.40679   0.00000  Uiso   1.00
C914   C     0.81494   0.86982   0.09348   0.00000  Uiso   1.00
C915   C     0.83264   0.83370   0.38404   0.00000  Uiso   1.00
C916   C     0.83409   0.83339   0.11616   0.00000  Uiso   1.00
C917   C     0.81251   0.86965   0.40727   0.00000  Uiso   1.00
C918   C     0.85420   0.79759   0.09297   0.00000  Uiso   1.00
C919   C     0.81238   0.87047   0.45394   0.00000  Uiso   1.00
C920   C     0.85551   0.79765   0.04634   0.00000  Uiso   1.00
C921   C     0.83365   0.83433   0.47680   0.00000  Uiso   1.00
C922   C     0.83463   0.83397   0.02345   0.00000  Uiso   1.00
C923   C     0.85375   0.79822   0.45301   0.00000  Uiso   1.00
C924   C     0.81458   0.87002   0.04730   0.00000  Uiso   1.00
C925   C     0.79187   0.90618   0.47853   0.00000  Uiso   1.00
C926   C     0.87681   0.76250   0.02197   0.00000  Uiso   1.00
Cu927  Cu    0.83333   0.88022   0.25000   0.00000  Uiso   1.00
Cu928  Cu    0.83333   0.78645   0.25000   0.00000  Uiso   1.00
H929   H     0.86840   0.77040   0.38837   0.00000  Uiso   1.00
H930   H     0.79942   0.89746   0.11192   0.00000  Uiso   1.00
H931   H     0.79681   0.89633   0.38841   0.00000  Uiso   1.00
H932   H     0.86909   0.77037   0.11192   0.00000  Uiso   1.00
H933   H     0.77795   0.93244   0.04406   0.00000  Uiso   1.00
H934   H     0.89115   0.73622   0.45654   0.00000  Uiso   1.00
H935   H     0.85905   0.70954   0.18540   0.00000  Uiso   1.00
H936   H     0.80798   0.95705   0.31465   0.00000  Uiso   1.00
H937   H     0.80720   0.71047   0.31437   0.00000  Uiso   1.00
H938   H     0.85885   0.95613   0.18541   0.00000  Uiso   1.00
N939   N     0.83333   0.95069   0.25000   0.00000  Uiso   1.00
N940   N     0.83333   0.71598   0.25000   0.00000  Uiso   1.00
O941   O     0.77321   0.87291   0.25000   0.00000  Uiso   1.00
O942   O     0.89345   0.79375   0.25001   0.00000  Uiso   1.00
O943   O     0.89345   0.87291   0.25001   0.00000  Uiso   1.00
O944   O     0.77321   0.79375   0.25000   0.00000  Uiso   1.00
O945   O     0.83332   0.87293   0.18513   0.00000  Uiso   1.00
O946   O     0.83334   0.79373   0.31487   0.00000  Uiso   1.00
O947   O     0.83334   0.87293   0.31487   0.00000  Uiso   1.00
O948   O     0.83332   0.79373   0.18513   0.00000  Uiso   1.00
C949   C     0.76591   0.94416   0.45744   0.00000  Uiso   1.00
C950   C     0.72384   0.92493   0.44495   0.00000  Uiso   1.00
C951   C     0.69210   0.96413   0.44207   0.00000  Uiso   1.00
H952   H     0.68577   0.97866   0.47574   0.00000  Uiso   1.00
H953   H     0.70279   0.99304   0.42048   0.00000  Uiso   1.00
H954   H     0.99676   0.94985   0.42820   0.00000  Uiso   1.00
H955   H     0.72572   0.90616   0.41253   0.00000  Uiso   1.00
H956   H     0.71337   0.89938   0.47033   0.00000  Uiso   1.00
H957   H     0.76206   0.97390   0.48130   0.00000  Uiso   1.00
H958   H     0.78123   0.95967   0.42812   0.00000  Uiso   1.00
C959   C     0.90263   0.72501   0.04405   0.00000  Uiso   1.00
C960   C     0.94272   0.74591   0.06097   0.00000  Uiso   1.00
C961   C     0.96805   0.70930   0.08541   0.00000  Uiso   1.00
H962   H     0.95166   0.69711   0.11549   0.00000  Uiso   1.00
H963   H     0.97465   0.67888   0.06322   0.00000  Uiso   1.00
H964   H     0.99729   0.72511   0.09587   0.00000  Uiso   1.00
H965   H     0.96052   0.75920   0.03226   0.00000  Uiso   1.00
H966   H     0.93689   0.77593   0.08389   0.00000  Uiso   1.00
H967   H     0.88547   0.70795   0.07132   0.00000  Uiso   1.00
H968   H     0.90999   0.69639   0.01996   0.00000  Uiso   1.00
C969   C     0.71098   0.73845   0.23926   0.00000  Uiso   1.00
C970   C     0.72512   0.72990   0.19102   0.00000  Uiso   1.00
C971   C     0.73912   0.67945   0.18322   0.00000  Uiso   1.00
H972   H     0.76119   0.66874   0.20907   0.00000  Uiso   1.00
H973   H     0.71253   0.98898   0.18380   0.00000  Uiso   1.00
H974   H     0.75387   0.67639   0.15011   0.00000  Uiso   1.00
H975   H     0.69961   0.73728   0.16791   0.00000  Uiso   1.00
H976   H     0.75025   0.75400   0.18228   0.00000  Uiso   1.00
H977   H     0.73511   0.73403   0.26426   0.00000  Uiso   1.00
H978   H     0.69357   0.70790   0.25060   0.00000  Uiso   1.00
C979   C     0.96111   0.90736   0.19780   0.00000  Uiso   1.00
C980   C     0.94525   0.88497   0.15447   0.00000  Uiso   1.00
C981   C     0.93525   0.92195   0.11960   0.00000  Uiso   1.00
H982   H     0.91339   0.94821   0.13303   0.00000  Uiso   1.00
H983   H     0.96343   0.94006   0.10910   0.00000  Uiso   1.00
H984   H     0.92152   0.90471   0.09004   0.00000  Uiso   1.00
H985   H     0.96860   0.86067   0.14051   0.00000  Uiso   1.00
H986   H     0.91743   0.86435   0.16115   0.00000  Uiso   1.00
H987   H     0.93691   0.92838   0.21420   0.00000  Uiso   1.00
H988   H     0.98517   0.93245   0.18787   0.00000  Uiso   1.00
C989   C     0.95643   0.73743   0.24093   0.00000  Uiso   1.00
C990   C     0.95010   0.72148   0.28941   0.00000  Uiso   1.00
C991   C     0.93360   0.67177   0.29273   0.00000  Uiso   1.00
H992   H     0.90380   0.66942   0.27636   0.00000  Uiso   1.00
H993   H     0.95456   0.97973   0.27688   0.00000  Uiso   1.00
H994   H     0.92992   0.99547   0.32822   0.00000  Uiso   1.00
H995   H     0.97935   0.72295   0.30768   0.00000  Uiso   1.00
H996   H     0.92884   0.74572   0.30685   0.00000  Uiso   1.00
H997   H     0.92837   0.73648   0.22100   0.00000  Uiso   1.00
H998   H     0.97227   0.71037   0.22080   0.00000  Uiso   1.00
C999   C     0.70107   0.92085   0.25822   0.00000  Uiso   1.00
C1000  C     0.70996   0.92197   0.30839   0.00000  Uiso   1.00
C1001  C     0.71922   0.97184   0.32418   0.00000  Uiso   1.00
H1002  H     0.73780   0.99068   0.29937   0.00000  Uiso   1.00
H1003  H     0.69054   0.99167   0.32961   0.00000  Uiso   1.00
H1004  H     0.73655   0.97068   0.35567   0.00000  Uiso   1.00
H1005  H     0.68321   0.90876   0.32709   0.00000  Uiso   1.00
H1006  H     0.73614   0.89900   0.31658   0.00000  Uiso   1.00
H1007  H     0.72753   0.93196   0.23837   0.00000  Uiso   1.00
H1008  H     0.67824   0.94864   0.25237   0.00000  Uiso   1.00
C1009  C     0.08702   0.16627   0.74973   0.00000  Uiso   1.00
C1010  C     0.24579   0.16583   0.74597   0.00000  Uiso   1.00
C1011  C     0.12708   0.23886   0.52498   0.00000  Uiso   1.00
C1012  C     0.20847   0.09640   0.97548   0.00000  Uiso   1.00
C1013  C     0.02142   0.11920   0.74277   0.00000  Uiso   1.00
C1014  C     0.31176   0.20348   0.72912   0.00000  Uiso   1.00
C1015  C     0.31166   0.11856   0.74064   0.00000  Uiso   1.00
C1016  C     0.01882   0.20625   0.74319   0.00000  Uiso   1.00
C1017  C     0.29014   0.16239   0.73859   0.00000  Uiso   1.00
C1018  C     0.04191   0.16395   0.74644   0.00000  Uiso   1.00
C1019  C     0.18072   0.02454   0.71405   0.00000  Uiso   1.00
C1020  C     0.15262   0.30878   0.78589   0.00000  Uiso   1.00
C1021  C     0.15235   0.02506   0.78579   0.00000  Uiso   1.00
C1022  C     0.18069   0.30825   0.71405   0.00000  Uiso   1.00
C1023  C     0.16680   0.16660   0.66437   0.00000  Uiso   1.00
C1024  C     0.16626   0.16679   0.83569   0.00000  Uiso   1.00
C1025  C     0.18609   0.13129   0.90679   0.00000  Uiso   1.00
C1026  C     0.14827   0.20316   0.59348   0.00000  Uiso   1.00
C1027  C     0.16597   0.16703   0.88404   0.00000  Uiso   1.00
C1028  C     0.16742   0.16673   0.61616   0.00000  Uiso   1.00
C1029  C     0.14585   0.20298   0.90727   0.00000  Uiso   1.00
C1030  C     0.18754   0.13092   0.59297   0.00000  Uiso   1.00
C1031  C     0.14572   0.20381   0.95394   0.00000  Uiso   1.00
C1032  C     0.18885   0.13098   0.54634   0.00000  Uiso   1.00
C1033  C     0.16698   0.16766   0.97680   0.00000  Uiso   1.00
C1034  C     0.16796   0.16731   0.52345   0.00000  Uiso   1.00
C1035  C     0.18709   0.13155   0.95301   0.00000  Uiso   1.00
C1036  C     0.14791   0.20335   0.54730   0.00000  Uiso   1.00
C1037  C     0.12521   0.23951   0.97853   0.00000  Uiso   1.00
C1038  C     0.21014   0.09583   0.52197   0.00000  Uiso   1.00
Cu1039 Cu    0.16667   0.21355   0.75000   0.00000  Uiso   1.00
Cu1040 Cu    0.16667   0.11978   0.75000   0.00000  Uiso   1.00
H1041  H     0.20173   0.10374   0.88837   0.00000  Uiso   1.00
H1042  H     0.13275   0.23079   0.61192   0.00000  Uiso   1.00
H1043  H     0.13014   0.22966   0.88841   0.00000  Uiso   1.00
H1044  H     0.20243   0.10370   0.61192   0.00000  Uiso   1.00
H1045  H     0.11128   0.26577   0.54406   0.00000  Uiso   1.00
H1046  H     0.22448   0.06956   0.95654   0.00000  Uiso   1.00
H1047  H     0.19239   0.04287   0.68540   0.00000  Uiso   1.00
H1048  H     0.14131   0.29039   0.81465   0.00000  Uiso   1.00
H1049  H     0.14053   0.04380   0.81437   0.00000  Uiso   1.00
H1050  H     0.19219   0.28946   0.68541   0.00000  Uiso   1.00
N1051  N     0.16667   0.28402   0.75000   0.00000  Uiso   1.00
N1052  N     0.16667   0.04931   0.75000   0.00000  Uiso   1.00
O1053  O     0.10655   0.20625   0.75000   0.00000  Uiso   1.00
O1054  O     0.22679   0.12709   0.75001   0.00000  Uiso   1.00
O1055  O     0.22679   0.20625   0.75001   0.00000  Uiso   1.00
O1056  O     0.10655   0.12709   0.75000   0.00000  Uiso   1.00
O1057  O     0.16666   0.20627   0.68513   0.00000  Uiso   1.00
O1058  O     0.16668   0.12707   0.81487   0.00000  Uiso   1.00
O1059  O     0.16668   0.20627   0.81487   0.00000  Uiso   1.00
O1060  O     0.16666   0.12707   0.68513   0.00000  Uiso   1.00
C1061  C     0.09924   0.27750   0.95744   0.00000  Uiso   1.00
C1062  C     0.05718   0.25826   0.94495   0.00000  Uiso   1.00
C1063  C     0.02543   0.29746   0.94207   0.00000  Uiso   1.00
H1064  H     0.01911   0.31200   0.97574   0.00000  Uiso   1.00
H1065  H     0.03613   0.32637   0.92048   0.00000  Uiso   1.00
H1066  H     0.33009   0.28319   0.92820   0.00000  Uiso   1.00
H1067  H     0.05905   0.23950   0.91253   0.00000  Uiso   1.00
H1068  H     0.04670   0.23272   0.97033   0.00000  Uiso   1.00
H1069  H     0.09539   0.30723   0.98130   0.00000  Uiso   1.00
H1070  H     0.11456   0.29300   0.92812   0.00000  Uiso   1.00
C1071  C     0.23597   0.05834   0.54405   0.00000  Uiso   1.00
C1072  C     0.27605   0.07924   0.56097   0.00000  Uiso   1.00
C1073  C     0.30138   0.04263   0.58541   0.00000  Uiso   1.00
H1074  H     0.28499   0.03044   0.61549   0.00000  Uiso   1.00
H1075  H     0.30798   0.01221   0.56322   0.00000  Uiso   1.00
H1076  H     0.33062   0.05844   0.59587   0.00000  Uiso   1.00
H1077  H     0.29386   0.09253   0.53226   0.00000  Uiso   1.00
H1078  H     0.27022   0.10926   0.58389   0.00000  Uiso   1.00
H1079  H     0.21880   0.04128   0.57132   0.00000  Uiso   1.00
H1080  H     0.24332   0.02972   0.51996   0.00000  Uiso   1.00
C1081  C     0.04432   0.07178   0.73926   0.00000  Uiso   1.00
C1082  C     0.05845   0.06324   0.69102   0.00000  Uiso   1.00
C1083  C     0.07245   0.01279   0.68322   0.00000  Uiso   1.00
H1084  H     0.09452   0.00207   0.70907   0.00000  Uiso   1.00
H1085  H     0.04587   0.32231   0.68380   0.00000  Uiso   1.00
H1086  H     0.08721   0.00973   0.65011   0.00000  Uiso   1.00
H1087  H     0.03294   0.07061   0.66791   0.00000  Uiso   1.00
H1088  H     0.08358   0.08733   0.68228   0.00000  Uiso   1.00
H1089  H     0.06845   0.06736   0.76426   0.00000  Uiso   1.00
H1090  H     0.02690   0.04123   0.75060   0.00000  Uiso   1.00
C1091  C     0.29444   0.24070   0.69780   0.00000  Uiso   1.00
C1092  C     0.27858   0.21830   0.65447   0.00000  Uiso   1.00
C1093  C     0.26858   0.25528   0.61960   0.00000  Uiso   1.00
H1094  H     0.24673   0.28154   0.63303   0.00000  Uiso   1.00
H1095  H     0.29676   0.27339   0.60910   0.00000  Uiso   1.00
H1096  H     0.25486   0.23804   0.59004   0.00000  Uiso   1.00
H1097  H     0.30194   0.19400   0.64051   0.00000  Uiso   1.00
H1098  H     0.25077   0.19768   0.66115   0.00000  Uiso   1.00
H1099  H     0.27025   0.26171   0.71420   0.00000  Uiso   1.00
H1100  H     0.31851   0.26578   0.68787   0.00000  Uiso   1.00
C1101  C     0.28976   0.07076   0.74093   0.00000  Uiso   1.00
C1102  C     0.28343   0.05481   0.78941   0.00000  Uiso   1.00
C1103  C     0.26693   0.00510   0.79273   0.00000  Uiso   1.00
H1104  H     0.23713   0.00276   0.77636   0.00000  Uiso   1.00
H1105  H     0.28789   0.31306   0.77688   0.00000  Uiso   1.00
H1106  H     0.26326   0.32880   0.82822   0.00000  Uiso   1.00
H1107  H     0.31268   0.05628   0.80768   0.00000  Uiso   1.00
H1108  H     0.26217   0.07905   0.80685   0.00000  Uiso   1.00
H1109  H     0.26171   0.06981   0.72100   0.00000  Uiso   1.00
H1110  H     0.30560   0.04370   0.72080   0.00000  Uiso   1.00
C1111  C     0.03440   0.25419   0.75822   0.00000  Uiso   1.00
C1112  C     0.04329   0.25530   0.80839   0.00000  Uiso   1.00
C1113  C     0.05255   0.30517   0.82418   0.00000  Uiso   1.00
H1114  H     0.07113   0.32401   0.79937   0.00000  Uiso   1.00
H1115  H     0.02388   0.32500   0.82961   0.00000  Uiso   1.00
H1116  H     0.06989   0.30401   0.85567   0.00000  Uiso   1.00
H1117  H     0.01654   0.24209   0.82709   0.00000  Uiso   1.00
H1118  H     0.06948   0.23234   0.81658   0.00000  Uiso   1.00
H1119  H     0.06087   0.26529   0.73837   0.00000  Uiso   1.00
H1120  H     0.01157   0.28197   0.75237   0.00000  Uiso   1.00
C1121  C     0.42035   0.16627   0.74973   0.00000  Uiso   1.00
C1122  C     0.57913   0.16583   0.74597   0.00000  Uiso   1.00
C1123  C     0.46041   0.23886   0.52498   0.00000  Uiso   1.00
C1124  C     0.54180   0.09640   0.97548   0.00000  Uiso   1.00
C1125  C     0.35475   0.11920   0.74277   0.00000  Uiso   1.00
C1126  C     0.64509   0.20348   0.72912   0.00000  Uiso   1.00
C1127  C     0.64499   0.11856   0.74064   0.00000  Uiso   1.00
C1128  C     0.35215   0.20625   0.74319   0.00000  Uiso   1.00
C1129  C     0.62347   0.16239   0.73859   0.00000  Uiso   1.00
C1130  C     0.37525   0.16395   0.74644   0.00000  Uiso   1.00
C1131  C     0.51405   0.02454   0.71405   0.00000  Uiso   1.00
C1132  C     0.48595   0.30878   0.78589   0.00000  Uiso   1.00
C1133  C     0.48568   0.02506   0.78579   0.00000  Uiso   1.00
C1134  C     0.51402   0.30825   0.71405   0.00000  Uiso   1.00
C1135  C     0.50013   0.16660   0.66437   0.00000  Uiso   1.00
C1136  C     0.49959   0.16679   0.83569   0.00000  Uiso   1.00
C1137  C     0.51943   0.13129   0.90679   0.00000  Uiso   1.00
C1138  C     0.48161   0.20316   0.59348   0.00000  Uiso   1.00
C1139  C     0.49930   0.16703   0.88404   0.00000  Uiso   1.00
C1140  C     0.50075   0.16673   0.61616   0.00000  Uiso   1.00
C1141  C     0.47918   0.20298   0.90727   0.00000  Uiso   1.00
C1142  C     0.52087   0.13092   0.59297   0.00000  Uiso   1.00
C1143  C     0.47905   0.20381   0.95394   0.00000  Uiso   1.00
C1144  C     0.52218   0.13098   0.54634   0.00000  Uiso   1.00
C1145  C     0.50032   0.16766   0.97680   0.00000  Uiso   1.00
C1146  C     0.50129   0.16731   0.52345   0.00000  Uiso   1.00
C1147  C     0.52042   0.13155   0.95301   0.00000  Uiso   1.00
C1148  C     0.48125   0.20335   0.54730   0.00000  Uiso   1.00
C1149  C     0.45854   0.23951   0.97853   0.00000  Uiso   1.00
C1150  C     0.54348   0.09583   0.52197   0.00000  Uiso   1.00
Cu1151 Cu    0.50000   0.21355   0.75000   0.00000  Uiso   1.00
Cu1152 Cu    0.50000   0.11978   0.75000   0.00000  Uiso   1.00
H1153  H     0.53507   0.10374   0.88837   0.00000  Uiso   1.00
H1154  H     0.46608   0.23079   0.61192   0.00000  Uiso   1.00
H1155  H     0.46347   0.22966   0.88841   0.00000  Uiso   1.00
H1156  H     0.53576   0.10370   0.61192   0.00000  Uiso   1.00
H1157  H     0.44462   0.26577   0.54406   0.00000  Uiso   1.00
H1158  H     0.55781   0.06956   0.95654   0.00000  Uiso   1.00
H1159  H     0.52572   0.04287   0.68540   0.00000  Uiso   1.00
H1160  H     0.47464   0.29039   0.81465   0.00000  Uiso   1.00
H1161  H     0.47386   0.04380   0.81437   0.00000  Uiso   1.00
H1162  H     0.52552   0.28946   0.68541   0.00000  Uiso   1.00
N1163  N     0.50000   0.28402   0.75000   0.00000  Uiso   1.00
N1164  N     0.50000   0.04931   0.75000   0.00000  Uiso   1.00
O1165  O     0.43988   0.20625   0.75000   0.00000  Uiso   1.00
O1166  O     0.56012   0.12709   0.75001   0.00000  Uiso   1.00
O1167  O     0.56012   0.20625   0.75001   0.00000  Uiso   1.00
O1168  O     0.43988   0.12709   0.75000   0.00000  Uiso   1.00
O1169  O     0.49999   0.20627   0.68513   0.00000  Uiso   1.00
O1170  O     0.50001   0.12707   0.81487   0.00000  Uiso   1.00
O1171  O     0.50001   0.20627   0.81487   0.00000  Uiso   1.00
O1172  O     0.49999   0.12707   0.68513   0.00000  Uiso   1.00
C1173  C     0.43258   0.27750   0.95744   0.00000  Uiso   1.00
C1174  C     0.39051   0.25826   0.94495   0.00000  Uiso   1.00
C1175  C     0.35877   0.29746   0.94207   0.00000  Uiso   1.00
H1176  H     0.35244   0.31200   0.97574   0.00000  Uiso   1.00
H1177  H     0.36946   0.32637   0.92048   0.00000  Uiso   1.00
H1178  H     0.66342   0.28319   0.92820   0.00000  Uiso   1.00
H1179  H     0.39239   0.23950   0.91253   0.00000  Uiso   1.00
H1180  H     0.38004   0.23272   0.97033   0.00000  Uiso   1.00
H1181  H     0.42872   0.30723   0.98130   0.00000  Uiso   1.00
H1182  H     0.44790   0.29300   0.92812   0.00000  Uiso   1.00
C1183  C     0.56930   0.05834   0.54405   0.00000  Uiso   1.00
C1184  C     0.60938   0.07924   0.56097   0.00000  Uiso   1.00
C1185  C     0.63471   0.04263   0.58541   0.00000  Uiso   1.00
H1186  H     0.61832   0.03044   0.61549   0.00000  Uiso   1.00
H1187  H     0.64131   0.01221   0.56322   0.00000  Uiso   1.00
H1188  H     0.66395   0.05844   0.59587   0.00000  Uiso   1.00
H1189  H     0.62719   0.09253   0.53226   0.00000  Uiso   1.00
H1190  H     0.60355   0.10926   0.58389   0.00000  Uiso   1.00
H1191  H     0.55214   0.04128   0.57132   0.00000  Uiso   1.00
H1192  H     0.57665   0.02972   0.51996   0.00000  Uiso   1.00
C1193  C     0.37765   0.07178   0.73926   0.00000  Uiso   1.00
C1194  C     0.39179   0.06324   0.69102   0.00000  Uiso   1.00
C1195  C     0.40578   0.01279   0.68322   0.00000  Uiso   1.00
H1196  H     0.42785   0.00207   0.70907   0.00000  Uiso   1.00
H1197  H     0.37920   0.32231   0.68380   0.00000  Uiso   1.00
H1198  H     0.42054   0.00973   0.65011   0.00000  Uiso   1.00
H1199  H     0.36628   0.07061   0.66791   0.00000  Uiso   1.00
H1200  H     0.41691   0.08733   0.68228   0.00000  Uiso   1.00
H1201  H     0.40178   0.06736   0.76426   0.00000  Uiso   1.00
H1202  H     0.36024   0.04123   0.75060   0.00000  Uiso   1.00
C1203  C     0.62778   0.24070   0.69780   0.00000  Uiso   1.00
C1204  C     0.61191   0.21830   0.65447   0.00000  Uiso   1.00
C1205  C     0.60191   0.25528   0.61960   0.00000  Uiso   1.00
H1206  H     0.58006   0.28154   0.63303   0.00000  Uiso   1.00
H1207  H     0.63010   0.27339   0.60910   0.00000  Uiso   1.00
H1208  H     0.58819   0.23804   0.59004   0.00000  Uiso   1.00
H1209  H     0.63527   0.19400   0.64051   0.00000  Uiso   1.00
H1210  H     0.58410   0.19768   0.66115   0.00000  Uiso   1.00
H1211  H     0.60358   0.26171   0.71420   0.00000  Uiso   1.00
H1212  H     0.65184   0.26578   0.68787   0.00000  Uiso   1.00
C1213  C     0.62310   0.07076   0.74093   0.00000  Uiso   1.00
C1214  C     0.61677   0.05481   0.78941   0.00000  Uiso   1.00
C1215  C     0.60026   0.00510   0.79273   0.00000  Uiso   1.00
H1216  H     0.57047   0.00276   0.77636   0.00000  Uiso   1.00
H1217  H     0.62123   0.31306   0.77688   0.00000  Uiso   1.00
H1218  H     0.59659   0.32880   0.82822   0.00000  Uiso   1.00
H1219  H     0.64601   0.05628   0.80768   0.00000  Uiso   1.00
H1220  H     0.59550   0.07905   0.80685   0.00000  Uiso   1.00
H1221  H     0.59504   0.06981   0.72100   0.00000  Uiso   1.00
H1222  H     0.63894   0.04370   0.72080   0.00000  Uiso   1.00
C1223  C     0.36773   0.25419   0.75822   0.00000  Uiso   1.00
C1224  C     0.37662   0.25530   0.80839   0.00000  Uiso   1.00
C1225  C     0.38588   0.30517   0.82418   0.00000  Uiso   1.00
H1226  H     0.40446   0.32401   0.79937   0.00000  Uiso   1.00
H1227  H     0.35721   0.32500   0.82961   0.00000  Uiso   1.00
H1228  H     0.40322   0.30401   0.85567   0.00000  Uiso   1.00
H1229  H     0.34988   0.24209   0.82709   0.00000  Uiso   1.00
H1230  H     0.40281   0.23234   0.81658   0.00000  Uiso   1.00
H1231  H     0.39420   0.26529   0.73837   0.00000  Uiso   1.00
H1232  H     0.34490   0.28197   0.75237   0.00000  Uiso   1.00
C1233  C     0.75368   0.16627   0.74973   0.00000  Uiso   1.00
C1234  C     0.91246   0.16583   0.74597   0.00000  Uiso   1.00
C1235  C     0.79374   0.23886   0.52498   0.00000  Uiso   1.00
C1236  C     0.87513   0.09640   0.97548   0.00000  Uiso   1.00
C1237  C     0.68809   0.11920   0.74277   0.00000  Uiso   1.00
C1238  C     0.97843   0.20348   0.72912   0.00000  Uiso   1.00
C1239  C     0.97833   0.11856   0.74064   0.00000  Uiso   1.00
C1240  C     0.68549   0.20625   0.74319   0.00000  Uiso   1.00
C1241  C     0.95680   0.16239   0.73859   0.00000  Uiso   1.00
C1242  C     0.70858   0.16395   0.74644   0.00000  Uiso   1.00
C1243  C     0.84739   0.02454   0.71405   0.00000  Uiso   1.00
C1244  C     0.81928   0.30878   0.78589   0.00000  Uiso   1.00
C1245  C     0.81902   0.02506   0.78579   0.00000  Uiso   1.00
C1246  C     0.84736   0.30825   0.71405   0.00000  Uiso   1.00
C1247  C     0.83346   0.16660   0.66437   0.00000  Uiso   1.00
C1248  C     0.83292   0.16679   0.83569   0.00000  Uiso   1.00
C1249  C     0.85276   0.13129   0.90679   0.00000  Uiso   1.00
C1250  C     0.81494   0.20316   0.59348   0.00000  Uiso   1.00
C1251  C     0.83264   0.16703   0.88404   0.00000  Uiso   1.00
C1252  C     0.83409   0.16673   0.61616   0.00000  Uiso   1.00
C1253  C     0.81251   0.20298   0.90727   0.00000  Uiso   1.00
C1254  C     0.85420   0.13092   0.59297   0.00000  Uiso   1.00
C1255  C     0.81238   0.20381   0.95394   0.00000  Uiso   1.00
C1256  C     0.85551   0.13098   0.54634   0.00000  Uiso   1.00
C1257  C     0.83365   0.16766   0.97680   0.00000  Uiso   1.00
C1258  C     0.83463   0.16731   0.52345   0.00000  Uiso   1.00
C1259  C     0.85375   0.13155   0.95301   0.00000  Uiso   1.00
C1260  C     0.81458   0.20335   0.54730   0.00000  Uiso   1.00
C1261  C     0.79187   0.23951   0.97853   0.00000  Uiso   1.00
C1262  C     0.87681   0.09583   0.52197   0.00000  Uiso   1.00
Cu1263 Cu    0.83333   0.21355   0.75000   0.00000  Uiso   1.00
Cu1264 Cu    0.83333   0.11978   0.75000   0.00000  Uiso   1.00
H1265  H     0.86840   0.10374   0.88837   0.00000  Uiso   1.00
H1266  H     0.79942   0.23079   0.61192   0.00000  Uiso   1.00
H1267  H     0.79681   0.22966   0.88841   0.00000  Uiso   1.00
H1268  H     0.86909   0.10370   0.61192   0.00000  Uiso   1.00
H1269  H     0.77795   0.26577   0.54406   0.00000  Uiso   1.00
H1270  H     0.89115   0.06956   0.95654   0.00000  Uiso   1.00
H1271  H     0.85905   0.04287   0.68540   0.00000  Uiso   1.00
H1272  H     0.80798   0.29039   0.81465   0.00000  Uiso   1.00
H1273  H     0.80720   0.04380   0.81437   0.00000  Uiso   1.00
H1274  H     0.85885   0.28946   0.68541   0.00000  Uiso   1.00
N1275  N     0.83333   0.28402   0.75000   0.00000  Uiso   1.00
N1276  N     0.83333   0.04931   0.75000   0.00000  Uiso   1.00
O1277  O     0.77321   0.20625   0.75000   0.00000  Uiso   1.00
O1278  O     0.89345   0.12709   0.75001   0.00000  Uiso   1.00
O1279  O     0.89345   0.20625   0.75001   0.00000  Uiso   1.00
O1280  O     0.77321   0.12709   0.75000   0.00000  Uiso   1.00
O1281  O     0.83332   0.20627   0.68513   0.00000  Uiso   1.00
O1282  O     0.83334   0.12707   0.81487   0.00000  Uiso   1.00
O1283  O     0.83334   0.20627   0.81487   0.00000  Uiso   1.00
O1284  O     0.83332   0.12707   0.68513   0.00000  Uiso   1.00
C1285  C     0.76591   0.27750   0.95744   0.00000  Uiso   1.00
C1286  C     0.72384   0.25826   0.94495   0.00000  Uiso   1.00
C1287  C     0.69210   0.29746   0.94207   0.00000  Uiso   1.00
H1288  H     0.68577   0.31200   0.97574   0.00000  Uiso   1.00
H1289  H     0.70279   0.32637   0.92048   0.00000  Uiso   1.00
H1290  H     0.99676   0.28319   0.92820   0.00000  Uiso   1.00
H1291  H     0.72572   0.23950   0.91253   0.00000  Uiso   1.00
H1292  H     0.71337   0.23272   0.97033   0.00000  Uiso   1.00
H1293  H     0.76206   0.30723   0.98130   0.00000  Uiso   1.00
H1294  H     0.78123   0.29300   0.92812   0.00000  Uiso   1.00
C1295  C     0.90263   0.05834   0.54405   0.00000  Uiso   1.00
C1296  C     0.94272   0.07924   0.56097   0.00000  Uiso   1.00
C1297  C     0.96805   0.04263   0.58541   0.00000  Uiso   1.00
H1298  H     0.95166   0.03044   0.61549   0.00000  Uiso   1.00
H1299  H     0.97465   0.01221   0.56322   0.00000  Uiso   1.00
H1300  H     0.99729   0.05844   0.59587   0.00000  Uiso   1.00
H1301  H     0.96052   0.09253   0.53226   0.00000  Uiso   1.00
H1302  H     0.93689   0.10926   0.58389   0.00000  Uiso   1.00
H1303  H     0.88547   0.04128   0.57132   0.00000  Uiso   1.00
H1304  H     0.90999   0.02972   0.51996   0.00000  Uiso   1.00
C1305  C     0.71098   0.07178   0.73926   0.00000  Uiso   1.00
C1306  C     0.72512   0.06324   0.69102   0.00000  Uiso   1.00
C1307  C     0.73912   0.01279   0.68322   0.00000  Uiso   1.00
H1308  H     0.76119   0.00207   0.70907   0.00000  Uiso   1.00
H1309  H     0.71253   0.32231   0.68380   0.00000  Uiso   1.00
H1310  H     0.75387   0.00973   0.65011   0.00000  Uiso   1.00
H1311  H     0.69961   0.07061   0.66791   0.00000  Uiso   1.00
H1312  H     0.75025   0.08733   0.68228   0.00000  Uiso   1.00
H1313  H     0.73511   0.06736   0.76426   0.00000  Uiso   1.00
H1314  H     0.69357   0.04123   0.75060   0.00000  Uiso   1.00
C1315  C     0.96111   0.24070   0.69780   0.00000  Uiso   1.00
C1316  C     0.94525   0.21830   0.65447   0.00000  Uiso   1.00
C1317  C     0.93525   0.25528   0.61960   0.00000  Uiso   1.00
H1318  H     0.91339   0.28154   0.63303   0.00000  Uiso   1.00
H1319  H     0.96343   0.27339   0.60910   0.00000  Uiso   1.00
H1320  H     0.92152   0.23804   0.59004   0.00000  Uiso   1.00
H1321  H     0.96860   0.19400   0.64051   0.00000  Uiso   1.00
H1322  H     0.91743   0.19768   0.66115   0.00000  Uiso   1.00
H1323  H     0.93691   0.26171   0.71420   0.00000  Uiso   1.00
H1324  H     0.98517   0.26578   0.68787   0.00000  Uiso   1.00
C1325  C     0.95643   0.07076   0.74093   0.00000  Uiso   1.00
C1326  C     0.95010   0.05481   0.78941   0.00000  Uiso   1.00
C1327  C     0.93360   0.00510   0.79273   0.00000  Uiso   1.00
H1328  H     0.90380   0.00276   0.77636   0.00000  Uiso   1.00
H1329  H     0.95456   0.31306   0.77688   0.00000  Uiso   1.00
H1330  H     0.92992   0.32880   0.82822   0.00000  Uiso   1.00
H1331  H     0.97935   0.05628   0.80768   0.00000  Uiso   1.00
H1332  H     0.92884   0.07905   0.80685   0.00000  Uiso   1.00
H1333  H     0.92837   0.06981   0.72100   0.00000  Uiso   1.00
H1334  H     0.97227   0.04370   0.72080   0.00000  Uiso   1.00
C1335  C     0.70107   0.25419   0.75822   0.00000  Uiso   1.00
C1336  C     0.70996   0.25530   0.80839   0.00000  Uiso   1.00
C1337  C     0.71922   0.30517   0.82418   0.00000  Uiso   1.00
H1338  H     0.73780   0.32401   0.79937   0.00000  Uiso   1.00
H1339  H     0.69054   0.32500   0.82961   0.00000  Uiso   1.00
H1340  H     0.73655   0.30401   0.85567   0.00000  Uiso   1.00
H1341  H     0.68321   0.24209   0.82709   0.00000  Uiso   1.00
H1342  H     0.73614   0.23234   0.81658   0.00000  Uiso   1.00
H1343  H     0.72753   0.26529   0.73837   0.00000  Uiso   1.00
H1344  H     0.67824   0.28197   0.75237   0.00000  Uiso   1.00
C1345  C     0.08702   0.49960   0.74973   0.00000  Uiso   1.00
C1346  C     0.24579   0.49916   0.74597   0.00000  Uiso   1.00
C1347  C     0.12708   0.57219   0.52498   0.00000  Uiso   1.00
C1348  C     0.20847   0.42973   0.97548   0.00000  Uiso   1.00
C1349  C     0.02142   0.45253   0.74277   0.00000  Uiso   1.00
C1350  C     0.31176   0.53682   0.72912   0.00000  Uiso   1.00
C1351  C     0.31166   0.45189   0.74064   0.00000  Uiso   1.00
C1352  C     0.01882   0.53958   0.74319   0.00000  Uiso   1.00
C1353  C     0.29014   0.49573   0.73859   0.00000  Uiso   1.00
C1354  C     0.04191   0.49728   0.74644   0.00000  Uiso   1.00
C1355  C     0.18072   0.35788   0.71405   0.00000  Uiso   1.00
C1356  C     0.15262   0.64211   0.78589   0.00000  Uiso   1.00
C1357  C     0.15235   0.35840   0.78579   0.00000  Uiso   1.00
C1358  C     0.18069   0.64158   0.71405   0.00000  Uiso   1.00
C1359  C     0.16680   0.49993   0.66437   0.00000  Uiso   1.00
C1360  C     0.16626   0.50013   0.83569   0.00000  Uiso   1.00
C1361  C     0.18609   0.46462   0.90679   0.00000  Uiso   1.00
C1362  C     0.14827   0.53649   0.59348   0.00000  Uiso   1.00
C1363  C     0.16597   0.50036   0.88404   0.00000  Uiso   1.00
C1364  C     0.16742   0.50006   0.61616   0.00000  Uiso   1.00
C1365  C     0.14585   0.53631   0.90727   0.00000  Uiso   1.00
C1366  C     0.18754   0.46426   0.59297   0.00000  Uiso   1.00
C1367  C     0.14572   0.53714   0.95394   0.00000  Uiso   1.00
C1368  C     0.18885   0.46431   0.54634   0.00000  Uiso   1.00
C1369  C     0.16698   0.50100   0.97680   0.00000  Uiso   1.00
C1370  C     0.16796   0.50064   0.52345   0.00000  Uiso   1.00
C1371  C     0.18709   0.46489   0.95301   0.00000  Uiso   1.00
C1372  C     0.14791   0.53669   0.54730   0.00000  Uiso   1.00
C1373  C     0.12521   0.57285   0.97853   0.00000  Uiso   1.00
C1374  C     0.21014   0.42916   0.52197   0.00000  Uiso   1.00
Cu1375 Cu    0.16667   0.54689   0.75000   0.00000  Uiso   1.00
Cu1376 Cu    0.16667   0.45311   0.75000   0.00000  Uiso   1.00
H1377  H     0.20173   0.43707   0.88837   0.00000  Uiso   1.00
H1378  H     0.13275   0.56412   0.61192   0.00000  Uiso   1.00
H1379  H     0.13014   0.56300   0.88841   0.00000  Uiso   1.00
H1380  H     0.20243   0.43703   0.61192   0.00000  Uiso   1.00
H1381  H     0.11128   0.59911   0.54406   0.00000  Uiso   1.00
H1382  H     0.22448   0.40289   0.95654   0.00000  Uiso   1.00
H1383  H     0.19239   0.37620   0.68540   0.00000  Uiso   1.00
H1384  H     0.14131   0.62372   0.81465   0.00000  Uiso   1.00
H1385  H     0.14053   0.37714   0.81437   0.00000  Uiso   1.00
H1386  H     0.19219   0.62280   0.68541   0.00000  Uiso   1.00
N1387  N     0.16667   0.61736   0.75000   0.00000  Uiso   1.00
N1388  N     0.16667   0.38264   0.75000   0.00000  Uiso   1.00
O1389  O     0.10655   0.53958   0.75000   0.00000  Uiso   1.00
O1390  O     0.22679   0.46042   0.75001   0.00000  Uiso   1.00
O1391  O     0.22679   0.53958   0.75001   0.00000  Uiso   1.00
O1392  O     0.10655   0.46042   0.75000   0.00000  Uiso   1.00
O1393  O     0.16666   0.53960   0.68513   0.00000  Uiso   1.00
O1394  O     0.16668   0.46040   0.81487   0.00000  Uiso   1.00
O1395  O     0.16668   0.53960   0.81487   0.00000  Uiso   1.00
O1396  O     0.16666   0.46040   0.68513   0.00000  Uiso   1.00
C1397  C     0.09924   0.61083   0.95744   0.00000  Uiso   1.00
C1398  C     0.05718   0.59159   0.94495   0.00000  Uiso   1.00
C1399  C     0.02543   0.63080   0.94207   0.00000  Uiso   1.00
H1400  H     0.01911   0.64533   0.97574   0.00000  Uiso   1.00
H1401  H     0.03613   0.65971   0.92048   0.00000  Uiso   1.00
H1402  H     0.33009   0.61652   0.92820   0.00000  Uiso   1.00
H1403  H     0.05905   0.57283   0.91253   0.00000  Uiso   1.00
H1404  H     0.04670   0.56605   0.97033   0.00000  Uiso   1.00
H1405  H     0.09539   0.64056   0.98130   0.00000  Uiso   1.00
H1406  H     0.11456   0.62633   0.92812   0.00000  Uiso   1.00
C1407  C     0.23597   0.39167   0.54405   0.00000  Uiso   1.00
C1408  C     0.27605   0.41258   0.56097   0.00000  Uiso   1.00
C1409  C     0.30138   0.37597   0.58541   0.00000  Uiso   1.00
H1410  H     0.28499   0.36378   0.61549   0.00000  Uiso   1.00
H1411  H     0.30798   0.34554   0.56322   0.00000  Uiso   1.00
H1412  H     0.33062   0.39178   0.59587   0.00000  Uiso   1.00
H1413  H     0.29386   0.42586   0.53226   0.00000  Uiso   1.00
H1414  H     0.27022   0.44260   0.58389   0.00000  Uiso   1.00
H1415  H     0.21880   0.37461   0.57132   0.00000  Uiso   1.00
H1416  H     0.24332   0.36305   0.51996   0.00000  Uiso   1.00
C1417  C     0.04432   0.40511   0.73926   0.00000  Uiso   1.00
C1418  C     0.05845   0.39657   0.69102   0.00000  Uiso   1.00
C1419  C     0.07245   0.34612   0.68322   0.00000  Uiso   1.00
H1420  H     0.09452   0.33541   0.70907   0.00000  Uiso   1.00
H1421  H     0.04587   0.65565   0.68380   0.00000  Uiso   1.00
H1422  H     0.08721   0.34306   0.65011   0.00000  Uiso   1.00
H1423  H     0.03294   0.40395   0.66791   0.00000  Uiso   1.00
H1424  H     0.08358   0.42066   0.68228   0.00000  Uiso   1.00
H1425  H     0.06845   0.40069   0.76426   0.00000  Uiso   1.00
H1426  H     0.02690   0.37457   0.75060   0.00000  Uiso   1.00
C1427  C     0.29444   0.57403   0.69780   0.00000  Uiso   1.00
C1428  C     0.27858   0.55164   0.65447   0.00000  Uiso   1.00
C1429  C     0.26858   0.58861   0.61960   0.00000  Uiso   1.00
H1430  H     0.24673   0.61488   0.63303   0.00000  Uiso   1.00
H1431  H     0.29676   0.60673   0.60910   0.00000  Uiso   1.00
H1432  H     0.25486   0.57138   0.59004   0.00000  Uiso   1.00
H1433  H     0.30194   0.52734   0.64051   0.00000  Uiso   1.00
H1434  H     0.25077   0.53101   0.66115   0.00000  Uiso   1.00
H1435  H     0.27025   0.59504   0.71420   0.00000  Uiso   1.00
H1436  H     0.31851   0.59911   0.68787   0.00000  Uiso   1.00
C1437  C     0.28976   0.40409   0.74093   0.00000  Uiso   1.00
C1438  C     0.28343   0.38815   0.78941   0.00000  Uiso   1.00
C1439  C     0.26693   0.33843   0.79273   0.00000  Uiso   1.00
H1440  H     0.23713   0.33609   0.77636   0.00000  Uiso   1.00
H1441  H     0.28789   0.64640   0.77688   0.00000  Uiso   1.00
H1442  H     0.26326   0.66214   0.82822   0.00000  Uiso   1.00
H1443  H     0.31268   0.38961   0.80768   0.00000  Uiso   1.00
H1444  H     0.26217   0.41239   0.80685   0.00000  Uiso   1.00
H1445  H     0.26171   0.40315   0.72100   0.00000  Uiso   1.00
H1446  H     0.30560   0.37703   0.72080   0.00000  Uiso   1.00
C1447  C     0.03440   0.58752   0.75822   0.00000  Uiso   1.00
C1448  C     0.04329   0.58863   0.80839   0.00000  Uiso   1.00
C1449  C     0.05255   0.63851   0.82418   0.00000  Uiso   1.00
H1450  H     0.07113   0.65735   0.79937   0.00000  Uiso   1.00
H1451  H     0.02388   0.65834   0.82961   0.00000  Uiso   1.00
H1452  H     0.06989   0.63734   0.85567   0.00000  Uiso   1.00
H1453  H     0.01654   0.57543   0.82709   0.00000  Uiso   1.00
H1454  H     0.06948   0.56567   0.81658   0.00000  Uiso   1.00
H1455  H     0.06087   0.59863   0.73837   0.00000  Uiso   1.00
H1456  H     0.01157   0.61530   0.75237   0.00000  Uiso   1.00
C1457  C     0.42035   0.49960   0.74973   0.00000  Uiso   1.00
C1458  C     0.57913   0.49916   0.74597   0.00000  Uiso   1.00
C1459  C     0.46041   0.57219   0.52498   0.00000  Uiso   1.00
C1460  C     0.54180   0.42973   0.97548   0.00000  Uiso   1.00
C1461  C     0.35475   0.45253   0.74277   0.00000  Uiso   1.00
C1462  C     0.64509   0.53682   0.72912   0.00000  Uiso   1.00
C1463  C     0.64499   0.45189   0.74064   0.00000  Uiso   1.00
C1464  C     0.35215   0.53958   0.74319   0.00000  Uiso   1.00
C1465  C     0.62347   0.49573   0.73859   0.00000  Uiso   1.00
C1466  C     0.37525   0.49728   0.74644   0.00000  Uiso   1.00
C1467  C     0.51405   0.35788   0.71405   0.00000  Uiso   1.00
C1468  C     0.48595   0.64211   0.78589   0.00000  Uiso   1.00
C1469  C     0.48568   0.35840   0.78579   0.00000  Uiso   1.00
C1470  C     0.51402   0.64158   0.71405   0.00000  Uiso   1.00
C1471  C     0.50013   0.49993   0.66437   0.00000  Uiso   1.00
C1472  C     0.49959   0.50013   0.83569   0.00000  Uiso   1.00
C1473  C     0.51943   0.46462   0.90679   0.00000  Uiso   1.00
C1474  C     0.48161   0.53649   0.59348   0.00000  Uiso   1.00
C1475  C     0.49930   0.50036   0.88404   0.00000  Uiso   1.00
C1476  C     0.50075   0.50006   0.61616   0.00000  Uiso   1.00
C1477  C     0.47918   0.53631   0.90727   0.00000  Uiso   1.00
C1478  C     0.52087   0.46426   0.59297   0.00000  Uiso   1.00
C1479  C     0.47905   0.53714   0.95394   0.00000  Uiso   1.00
C1480  C     0.52218   0.46431   0.54634   0.00000  Uiso   1.00
C1481  C     0.50032   0.50100   0.97680   0.00000  Uiso   1.00
C1482  C     0.50129   0.50064   0.52345   0.00000  Uiso   1.00
C1483  C     0.52042   0.46489   0.95301   0.00000  Uiso   1.00
C1484  C     0.48125   0.53669   0.54730   0.00000  Uiso   1.00
C1485  C     0.45854   0.57285   0.97853   0.00000  Uiso   1.00
C1486  C     0.54348   0.42916   0.52197   0.00000  Uiso   1.00
Cu1487 Cu    0.50000   0.54689   0.75000   0.00000  Uiso   1.00
Cu1488 Cu    0.50000   0.45311   0.75000   0.00000  Uiso   1.00
H1489  H     0.53507   0.43707   0.88837   0.00000  Uiso   1.00
H1490  H     0.46608   0.56412   0.61192   0.00000  Uiso   1.00
H1491  H     0.46347   0.56300   0.88841   0.00000  Uiso   1.00
H1492  H     0.53576   0.43703   0.61192   0.00000  Uiso   1.00
H1493  H     0.44462   0.59911   0.54406   0.00000  Uiso   1.00
H1494  H     0.55781   0.40289   0.95654   0.00000  Uiso   1.00
H1495  H     0.52572   0.37620   0.68540   0.00000  Uiso   1.00
H1496  H     0.47464   0.62372   0.81465   0.00000  Uiso   1.00
H1497  H     0.47386   0.37714   0.81437   0.00000  Uiso   1.00
H1498  H     0.52552   0.62280   0.68541   0.00000  Uiso   1.00
N1499  N     0.50000   0.61736   0.75000   0.00000  Uiso   1.00
N1500  N     0.50000   0.38264   0.75000   0.00000  Uiso   1.00
O1501  O     0.43988   0.53958   0.75000   0.00000  Uiso   1.00
O1502  O     0.56012   0.46042   0.75001   0.00000  Uiso   1.00
O1503  O     0.56012   0.53958   0.75001   0.00000  Uiso   1.00
O1504  O     0.43988   0.46042   0.75000   0.00000  Uiso   1.00
O1505  O     0.49999   0.53960   0.68513   0.00000  Uiso   1.00
O1506  O     0.50001   0.46040   0.81487   0.00000  Uiso   1.00
O1507  O     0.50001   0.53960   0.81487   0.00000  Uiso   1.00
O1508  O     0.49999   0.46040   0.68513   0.00000  Uiso   1.00
C1509  C     0.43258   0.61083   0.95744   0.00000  Uiso   1.00
C1510  C     0.39051   0.59159   0.94495   0.00000  Uiso   1.00
C1511  C     0.35877   0.63080   0.94207   0.00000  Uiso   1.00
H1512  H     0.35244   0.64533   0.97574   0.00000  Uiso   1.00
H1513  H     0.36946   0.65971   0.92048   0.00000  Uiso   1.00
H1514  H     0.66342   0.61652   0.92820   0.00000  Uiso   1.00
H1515  H     0.39239   0.57283   0.91253   0.00000  Uiso   1.00
H1516  H     0.38004   0.56605   0.97033   0.00000  Uiso   1.00
H1517  H     0.42872   0.64056   0.98130   0.00000  Uiso   1.00
H1518  H     0.44790   0.62633   0.92812   0.00000  Uiso   1.00
C1519  C     0.56930   0.39167   0.54405   0.00000  Uiso   1.00
C1520  C     0.60938   0.41258   0.56097   0.00000  Uiso   1.00
C1521  C     0.63471   0.37597   0.58541   0.00000  Uiso   1.00
H1522  H     0.61832   0.36378   0.61549   0.00000  Uiso   1.00
H1523  H     0.64131   0.34554   0.56322   0.00000  Uiso   1.00
H1524  H     0.66395   0.39178   0.59587   0.00000  Uiso   1.00
H1525  H     0.62719   0.42586   0.53226   0.00000  Uiso   1.00
H1526  H     0.60355   0.44260   0.58389   0.00000  Uiso   1.00
H1527  H     0.55214   0.37461   0.57132   0.00000  Uiso   1.00
H1528  H     0.57665   0.36305   0.51996   0.00000  Uiso   1.00
C1529  C     0.37765   0.40511   0.73926   0.00000  Uiso   1.00
C1530  C     0.39179   0.39657   0.69102   0.00000  Uiso   1.00
C1531  C     0.40578   0.34612   0.68322   0.00000  Uiso   1.00
H1532  H     0.42785   0.33541   0.70907   0.00000  Uiso   1.00
H1533  H     0.37920   0.65565   0.68380   0.00000  Uiso   1.00
H1534  H     0.42054   0.34306   0.65011   0.00000  Uiso   1.00
H1535  H     0.36628   0.40395   0.66791   0.00000  Uiso   1.00
H1536  H     0.41691   0.42066   0.68228   0.00000  Uiso   1.00
H1537  H     0.40178   0.40069   0.76426   0.00000  Uiso   1.00
H1538  H     0.36024   0.37457   0.75060   0.00000  Uiso   1.00
C1539  C     0.62778   0.57403   0.69780   0.00000  Uiso   1.00
C1540  C     0.61191   0.55164   0.65447   0.00000  Uiso   1.00
C1541  C     0.60191   0.58861   0.61960   0.00000  Uiso   1.00
H1542  H     0.58006   0.61488   0.63303   0.00000  Uiso   1.00
H1543  H     0.63010   0.60673   0.60910   0.00000  Uiso   1.00
H1544  H     0.58819   0.57138   0.59004   0.00000  Uiso   1.00
H1545  H     0.63527   0.52734   0.64051   0.00000  Uiso   1.00
H1546  H     0.58410   0.53101   0.66115   0.00000  Uiso   1.00
H1547  H     0.60358   0.59504   0.71420   0.00000  Uiso   1.00
H1548  H     0.65184   0.59911   0.68787   0.00000  Uiso   1.00
C1549  C     0.62310   0.40409   0.74093   0.00000  Uiso   1.00
C1550  C     0.61677   0.38815   0.78941   0.00000  Uiso   1.00
C1551  C     0.60026   0.33843   0.79273   0.00000  Uiso   1.00
H1552  H     0.57047   0.33609   0.77636   0.00000  Uiso   1.00
H1553  H     0.62123   0.64640   0.77688   0.00000  Uiso   1.00
H1554  H     0.59659   0.66214   0.82822   0.00000  Uiso   1.00
H1555  H     0.64601   0.38961   0.80768   0.00000  Uiso   1.00
H1556  H     0.59550   0.41239   0.80685   0.00000  Uiso   1.00
H1557  H     0.59504   0.40315   0.72100   0.00000  Uiso   1.00
H1558  H     0.63894   0.37703   0.72080   0.00000  Uiso   1.00
C1559  C     0.36773   0.58752   0.75822   0.00000  Uiso   1.00
C1560  C     0.37662   0.58863   0.80839   0.00000  Uiso   1.00
C1561  C     0.38588   0.63851   0.82418   0.00000  Uiso   1.00
H1562  H     0.40446   0.65735   0.79937   0.00000  Uiso   1.00
H1563  H     0.35721   0.65834   0.82961   0.00000  Uiso   1.00
H1564  H     0.40322   0.63734   0.85567   0.00000  Uiso   1.00
H1565  H     0.34988   0.57543   0.82709   0.00000  Uiso   1.00
H1566  H     0.40281   0.56567   0.81658   0.00000  Uiso   1.00
H1567  H     0.39420   0.59863   0.73837   0.00000  Uiso   1.00
H1568  H     0.34490   0.61530   0.75237   0.00000  Uiso   1.00
C1569  C     0.75368   0.49960   0.74973   0.00000  Uiso   1.00
C1570  C     0.91246   0.49916   0.74597   0.00000  Uiso   1.00
C1571  C     0.79374   0.57219   0.52498   0.00000  Uiso   1.00
C1572  C     0.87513   0.42973   0.97548   0.00000  Uiso   1.00
C1573  C     0.68809   0.45253   0.74277   0.00000  Uiso   1.00
C1574  C     0.97843   0.53682   0.72912   0.00000  Uiso   1.00
C1575  C     0.97833   0.45189   0.74064   0.00000  Uiso   1.00
C1576  C     0.68549   0.53958   0.74319   0.00000  Uiso   1.00
C1577  C     0.95680   0.49573   0.73859   0.00000  Uiso   1.00
C1578  C     0.70858   0.49728   0.74644   0.00000  Uiso   1.00
C1579  C     0.84739   0.35788   0.71405   0.00000  Uiso   1.00
C1580  C     0.81928   0.64211   0.78589   0.00000  Uiso   1.00
C1581  C     0.81902   0.35840   0.78579   0.00000  Uiso   1.00
C1582  C     0.84736   0.64158   0.71405   0.00000  Uiso   1.00
C1583  C     0.83346   0.49993   0.66437   0.00000  Uiso   1.00
C1584  C     0.83292   0.50013   0.83569   0.00000  Uiso   1.00
C1585  C     0.85276   0.46462   0.90679   0.00000  Uiso   1.00
C1586  C     0.81494   0.53649   0.59348   0.00000  Uiso   1.00
C1587  C     0.83264   0.50036   0.88404   0.00000  Uiso   1.00
C1588  C     0.83409   0.50006   0.61616   0.00000  Uiso   1.00
C1589  C     0.81251   0.53631   0.90727   0.00000  Uiso   1.00
C1590  C     0.85420   0.46426   0.59297   0.00000  Uiso   1.00
C1591  C     0.81238   0.53714   0.95394   0.00000  Uiso   1.00
C1592  C     0.85551   0.46431   0.54634   0.00000  Uiso   1.00
C1593  C     0.83365   0.50100   0.97680   0.00000  Uiso   1.00
C1594  C     0.83463   0.50064   0.52345   0.00000  Uiso   1.00
C1595  C     0.85375   0.46489   0.95301   0.00000  Uiso   1.00
C1596  C     0.81458   0.53669   0.54730   0.00000  Uiso   1.00
C1597  C     0.79187   0.57285   0.97853   0.00000  Uiso   1.00
C1598  C     0.87681   0.42916   0.52197   0.00000  Uiso   1.00
Cu1599 Cu    0.83333   0.54689   0.75000   0.00000  Uiso   1.00
Cu1600 Cu    0.83333   0.45311   0.75000   0.00000  Uiso   1.00
H1601  H     0.86840   0.43707   0.88837   0.00000  Uiso   1.00
H1602  H     0.79942   0.56412   0.61192   0.00000  Uiso   1.00
H1603  H     0.79681   0.56300   0.88841   0.00000  Uiso   1.00
H1604  H     0.86909   0.43703   0.61192   0.00000  Uiso   1.00
H1605  H     0.77795   0.59911   0.54406   0.00000  Uiso   1.00
H1606  H     0.89115   0.40289   0.95654   0.00000  Uiso   1.00
H1607  H     0.85905   0.37620   0.68540   0.00000  Uiso   1.00
H1608  H     0.80798   0.62372   0.81465   0.00000  Uiso   1.00
H1609  H     0.80720   0.37714   0.81437   0.00000  Uiso   1.00
H1610  H     0.85885   0.62280   0.68541   0.00000  Uiso   1.00
N1611  N     0.83333   0.61736   0.75000   0.00000  Uiso   1.00
N1612  N     0.83333   0.38264   0.75000   0.00000  Uiso   1.00
O1613  O     0.77321   0.53958   0.75000   0.00000  Uiso   1.00
O1614  O     0.89345   0.46042   0.75001   0.00000  Uiso   1.00
O1615  O     0.89345   0.53958   0.75001   0.00000  Uiso   1.00
O1616  O     0.77321   0.46042   0.75000   0.00000  Uiso   1.00
O1617  O     0.83332   0.53960   0.68513   0.00000  Uiso   1.00
O1618  O     0.83334   0.46040   0.81487   0.00000  Uiso   1.00
O1619  O     0.83334   0.53960   0.81487   0.00000  Uiso   1.00
O1620  O     0.83332   0.46040   0.68513   0.00000  Uiso   1.00
C1621  C     0.76591   0.61083   0.95744   0.00000  Uiso   1.00
C1622  C     0.72384   0.59159   0.94495   0.00000  Uiso   1.00
C1623  C     0.69210   0.63080   0.94207   0.00000  Uiso   1.00
H1624  H     0.68577   0.64533   0.97574   0.00000  Uiso   1.00
H1625  H     0.70279   0.65971   0.92048   0.00000  Uiso   1.00
H1626  H     0.99676   0.61652   0.92820   0.00000  Uiso   1.00
H1627  H     0.72572   0.57283   0.91253   0.00000  Uiso   1.00
H1628  H     0.71337   0.56605   0.97033   0.00000  Uiso   1.00
H1629  H     0.76206   0.64056   0.98130   0.00000  Uiso   1.00
H1630  H     0.78123   0.62633   0.92812   0.00000  Uiso   1.00
C1631  C     0.90263   0.39167   0.54405   0.00000  Uiso   1.00
C1632  C     0.94272   0.41258   0.56097   0.00000  Uiso   1.00
C1633  C     0.96805   0.37597   0.58541   0.00000  Uiso   1.00
H1634  H     0.95166   0.36378   0.61549   0.00000  Uiso   1.00
H1635  H     0.97465   0.34554   0.56322   0.00000  Uiso   1.00
H1636  H     0.99729   0.39178   0.59587   0.00000  Uiso   1.00
H1637  H     0.96052   0.42586   0.53226   0.00000  Uiso   1.00
H1638  H     0.93689   0.44260   0.58389   0.00000  Uiso   1.00
H1639  H     0.88547   0.37461   0.57132   0.00000  Uiso   1.00
H1640  H     0.90999   0.36305   0.51996   0.00000  Uiso   1.00
C1641  C     0.71098   0.40511   0.73926   0.00000  Uiso   1.00
C1642  C     0.72512   0.39657   0.69102   0.00000  Uiso   1.00
C1643  C     0.73912   0.34612   0.68322   0.00000  Uiso   1.00
H1644  H     0.76119   0.33541   0.70907   0.00000  Uiso   1.00
H1645  H     0.71253   0.65565   0.68380   0.00000  Uiso   1.00
H1646  H     0.75387   0.34306   0.65011   0.00000  Uiso   1.00
H1647  H     0.69961   0.40395   0.66791   0.00000  Uiso   1.00
H1648  H     0.75025   0.42066   0.68228   0.00000  Uiso   1.00
H1649  H     0.73511   0.40069   0.76426   0.00000  Uiso   1.00
H1650  H     0.69357   0.37457   0.75060   0.00000  Uiso   1.00
C1651  C     0.96111   0.57403   0.69780   0.00000  Uiso   1.00
C1652  C     0.94525   0.55164   0.65447   0.00000  Uiso   1.00
C1653  C     0.93525   0.58861   0.61960   0.00000  Uiso   1.00
H1654  H     0.91339   0.61488   0.63303   0.00000  Uiso   1.00
H1655  H     0.96343   0.60673   0.60910   0.00000  Uiso   1.00
H1656  H     0.92152   0.57138   0.59004   0.00000  Uiso   1.00
H1657  H     0.96860   0.52734   0.64051   0.00000  Uiso   1.00
H1658  H     0.91743   0.53101   0.66115   0.00000  Uiso   1.00
H1659  H     0.93691   0.59504   0.71420   0.00000  Uiso   1.00
H1660  H     0.98517   0.59911   0.68787   0.00000  Uiso   1.00
C1661  C     0.95643   0.40409   0.74093   0.00000  Uiso   1.00
C1662  C     0.95010   0.38815   0.78941   0.00000  Uiso   1.00
C1663  C     0.93360   0.33843   0.79273   0.00000  Uiso   1.00
H1664  H     0.90380   0.33609   0.77636   0.00000  Uiso   1.00
H1665  H     0.95456   0.64640   0.77688   0.00000  Uiso   1.00
H1666  H     0.92992   0.66214   0.82822   0.00000  Uiso   1.00
H1667  H     0.97935   0.38961   0.80768   0.00000  Uiso   1.00
H1668  H     0.92884   0.41239   0.80685   0.00000  Uiso   1.00
H1669  H     0.92837   0.40315   0.72100   0.00000  Uiso   1.00
H1670  H     0.97227   0.37703   0.72080   0.00000  Uiso   1.00
C1671  C     0.70107   0.58752   0.75822   0.00000  Uiso   1.00
C1672  C     0.70996   0.58863   0.80839   0.00000  Uiso   1.00
C1673  C     0.71922   0.63851   0.82418   0.00000  Uiso   1.00
H1674  H     0.73780   0.65735   0.79937   0.00000  Uiso   1.00
H1675  H     0.69054   0.65834   0.82961   0.00000  Uiso   1.00
H1676  H     0.73655   0.63734   0.85567   0.00000  Uiso   1.00
H1677  H     0.68321   0.57543   0.82709   0.00000  Uiso   1.00
H1678  H     0.73614   0.56567   0.81658   0.00000  Uiso   1.00
H1679  H     0.72753   0.59863   0.73837   0.00000  Uiso   1.00
H1680  H     0.67824   0.61530   0.75237   0.00000  Uiso   1.00
C1681  C     0.08702   0.83293   0.74973   0.00000  Uiso   1.00
C1682  C     0.24579   0.83250   0.74597   0.00000  Uiso   1.00
C1683  C     0.12708   0.90553   0.52498   0.00000  Uiso   1.00
C1684  C     0.20847   0.76306   0.97548   0.00000  Uiso   1.00
C1685  C     0.02142   0.78587   0.74277   0.00000  Uiso   1.00
C1686  C     0.31176   0.87015   0.72912   0.00000  Uiso   1.00
C1687  C     0.31166   0.78522   0.74064   0.00000  Uiso   1.00
C1688  C     0.01882   0.87291   0.74319   0.00000  Uiso   1.00
C1689  C     0.29014   0.82906   0.73859   0.00000  Uiso   1.00
C1690  C     0.04191   0.83061   0.74644   0.00000  Uiso   1.00
C1691  C     0.18072   0.69121   0.71405   0.00000  Uiso   1.00
C1692  C     0.15262   0.97545   0.78589   0.00000  Uiso   1.00
C1693  C     0.15235   0.69173   0.78579   0.00000  Uiso   1.00
C1694  C     0.18069   0.97492   0.71405   0.00000  Uiso   1.00
C1695  C     0.16680   0.83326   0.66437   0.00000  Uiso   1.00
C1696  C     0.16626   0.83346   0.83569   0.00000  Uiso   1.00
C1697  C     0.18609   0.79796   0.90679   0.00000  Uiso   1.00
C1698  C     0.14827   0.86982   0.59348   0.00000  Uiso   1.00
C1699  C     0.16597   0.83370   0.88404   0.00000  Uiso   1.00
C1700  C     0.16742   0.83339   0.61616   0.00000  Uiso   1.00
C1701  C     0.14585   0.86965   0.90727   0.00000  Uiso   1.00
C1702  C     0.18754   0.79759   0.59297   0.00000  Uiso   1.00
C1703  C     0.14572   0.87047   0.95394   0.00000  Uiso   1.00
C1704  C     0.18885   0.79765   0.54634   0.00000  Uiso   1.00
C1705  C     0.16698   0.83433   0.97680   0.00000  Uiso   1.00
C1706  C     0.16796   0.83397   0.52345   0.00000  Uiso   1.00
C1707  C     0.18709   0.79822   0.95301   0.00000  Uiso   1.00
C1708  C     0.14791   0.87002   0.54730   0.00000  Uiso   1.00
C1709  C     0.12521   0.90618   0.97853   0.00000  Uiso   1.00
C1710  C     0.21014   0.76250   0.52197   0.00000  Uiso   1.00
Cu1711 Cu    0.16667   0.88022   0.75000   0.00000  Uiso   1.00
Cu1712 Cu    0.16667   0.78645   0.75000   0.00000  Uiso   1.00
H1713  H     0.20173   0.77040   0.88837   0.00000  Uiso   1.00
H1714  H     0.13275   0.89746   0.61192   0.00000  Uiso   1.00
H1715  H     0.13014   0.89633   0.88841   0.00000  Uiso   1.00
H1716  H     0.20243   0.77037   0.61192   0.00000  Uiso   1.00
H1717  H     0.11128   0.93244   0.54406   0.00000  Uiso   1.00
H1718  H     0.22448   0.73622   0.95654   0.00000  Uiso   1.00
H1719  H     0.19239   0.70954   0.68540   0.00000  Uiso   1.00
H1720  H     0.14131   0.95705   0.81465   0.00000  Uiso   1.00
H1721  H     0.14053   0.71047   0.81437   0.00000  Uiso   1.00
H1722  H     0.19219   0.95613   0.68541   0.00000  Uiso   1.00
N1723  N     0.16667   0.95069   0.75000   0.00000  Uiso   1.00
N1724  N     0.16667   0.71598   0.75000   0.00000  Uiso   1.00
O1725  O     0.10655   0.87291   0.75000   0.00000  Uiso   1.00
O1726  O     0.22679   0.79375   0.75001   0.00000  Uiso   1.00
O1727  O     0.22679   0.87291   0.75001   0.00000  Uiso   1.00
O1728  O     0.10655   0.79375   0.75000   0.00000  Uiso   1.00
O1729  O     0.16666   0.87293   0.68513   0.00000  Uiso   1.00
O1730  O     0.16668   0.79373   0.81487   0.00000  Uiso   1.00
O1731  O     0.16668   0.87293   0.81487   0.00000  Uiso   1.00
O1732  O     0.16666   0.79373   0.68513   0.00000  Uiso   1.00
C1733  C     0.09924   0.94416   0.95744   0.00000  Uiso   1.00
C1734  C     0.05718   0.92493   0.94495   0.00000  Uiso   1.00
C1735  C     0.02543   0.96413   0.94207   0.00000  Uiso   1.00
H1736  H     0.01911   0.97866   0.97574   0.00000  Uiso   1.00
H1737  H     0.03613   0.99304   0.92048   0.00000  Uiso   1.00
H1738  H     0.33009   0.94985   0.92820   0.00000  Uiso   1.00
H1739  H     0.05905   0.90616   0.91253   0.00000  Uiso   1.00
H1740  H     0.04670   0.89938   0.97033   0.00000  Uiso   1.00
H1741  H     0.09539   0.97390   0.98130   0.00000  Uiso   1.00
H1742  H     0.11456   0.95967   0.92812   0.00000  Uiso   1.00
C1743  C     0.23597   0.72501   0.54405   0.00000  Uiso   1.00
C1744  C     0.27605   0.74591   0.56097   0.00000  Uiso   1.00
C1745  C     0.30138   0.70930   0.58541   0.00000  Uiso   1.00
H1746  H     0.28499   0.69711   0.61549   0.00000  Uiso   1.00
H1747  H     0.30798   0.67888   0.56322   0.00000  Uiso   1.00
H1748  H     0.33062   0.72511   0.59587   0.00000  Uiso   1.00
H1749  H     0.29386   0.75920   0.53226   0.00000  Uiso   1.00
H1750  H     0.27022   0.77593   0.58389   0.00000  Uiso   1.00
H1751  H     0.21880   0.70795   0.57132   0.00000  Uiso   1.00
H1752  H     0.24332   0.69639   0.51996   0.00000  Uiso   1.00
C1753  C     0.04432   0.73845   0.73926   0.00000  Uiso   1.00
C1754  C     0.05845   0.72990   0.69102   0.00000  Uiso   1.00
C1755  C     0.07245   0.67945   0.68322   0.00000  Uiso   1.00
H1756  H     0.09452   0.66874   0.70907   0.00000  Uiso   1.00
H1757  H     0.04587   0.98898   0.68380   0.00000  Uiso   1.00
H1758  H     0.08721   0.67639   0.65011   0.00000  Uiso   1.00
H1759  H     0.03294   0.73728   0.66791   0.00000  Uiso   1.00
H1760  H     0.08358   0.75400   0.68228   0.00000  Uiso   1.00
H1761  H     0.06845   0.73403   0.76426   0.00000  Uiso   1.00
H1762  H     0.02690   0.70790   0.75060   0.00000  Uiso   1.00
C1763  C     0.29444   0.90736   0.69780   0.00000  Uiso   1.00
C1764  C     0.27858   0.88497   0.65447   0.00000  Uiso   1.00
C1765  C     0.26858   0.92195   0.61960   0.00000  Uiso   1.00
H1766  H     0.24673   0.94821   0.63303   0.00000  Uiso   1.00
H1767  H     0.29676   0.94006   0.60910   0.00000  Uiso   1.00
H1768  H     0.25486   0.90471   0.59004   0.00000  Uiso   1.00
H1769  H     0.30194   0.86067   0.64051   0.00000  Uiso   1.00
H1770  H     0.25077   0.86435   0.66115   0.00000  Uiso   1.00
H1771  H     0.27025   0.92838   0.71420   0.00000  Uiso   1.00
H1772  H     0.31851   0.93245   0.68787   0.00000  Uiso   1.00
C1773  C     0.28976   0.73743   0.74093   0.00000  Uiso   1.00
C1774  C     0.28343   0.72148   0.78941   0.00000  Uiso   1.00
C1775  C     0.26693   0.67177   0.79273   0.00000  Uiso   1.00
H1776  H     0.23713   0.66942   0.77636   0.00000  Uiso   1.00
H1777  H     0.28789   0.97973   0.77688   0.00000  Uiso   1.00
H1778  H     0.26326   0.99547   0.82822   0.00000  Uiso   1.00
H1779  H     0.31268   0.72295   0.80768   0.00000  Uiso   1.00
H1780  H     0.26217   0.74572   0.80685   0.00000  Uiso   1.00
H1781  H     0.26171   0.73648   0.72100   0.00000  Uiso   1.00
H1782  H     0.30560   0.71037   0.72080   0.00000  Uiso   1.00
C1783  C     0.03440   0.92085   0.75822   0.00000  Uiso   1.00
C1784  C     0.04329   0.92197   0.80839   0.00000  Uiso   1.00
C1785  C     0.05255   0.97184   0.82418   0.00000  Uiso   1.00
H1786  H     0.07113   0.99068   0.79937   0.00000  Uiso   1.00
H1787  H     0.02388   0.99167   0.82961   0.00000  Uiso   1.00
H1788  H     0.06989   0.97068   0.85567   0.00000  Uiso   1.00
H1789  H     0.01654   0.90876   0.82709   0.00000  Uiso   1.00
H1790  H     0.06948   0.89900   0.81658   0.00000  Uiso   1.00
H1791  H     0.06087   0.93196   0.73837   0.00000  Uiso   1.00
H1792  H     0.01157   0.94864   0.75237   0.00000  Uiso   1.00
C1793  C     0.42035   0.83293   0.74973   0.00000  Uiso   1.00
C1794  C     0.57913   0.83250   0.74597   0.00000  Uiso   1.00
C1795  C     0.46041   0.90553   0.52498   0.00000  Uiso   1.00
C1796  C     0.54180   0.76306   0.97548   0.00000  Uiso   1.00
C1797  C     0.35475   0.78587   0.74277   0.00000  Uiso   1.00
C1798  C     0.64509   0.87015   0.72912   0.00000  Uiso   1.00
C1799  C     0.64499   0.78522   0.74064   0.00000  Uiso   1.00
C1800  C     0.35215   0.87291   0.74319   0.00000  Uiso   1.00
C1801  C     0.62347   0.82906   0.73859   0.00000  Uiso   1.00
C1802  C     0.37525   0.83061   0.74644   0.00000  Uiso   1.00
C1803  C     0.51405   0.69121   0.71405   0.00000  Uiso   1.00
C1804  C     0.48595   0.97545   0.78589   0.00000  Uiso   1.00
C1805  C     0.48568   0.69173   0.78579   0.00000  Uiso   1.00
C1806  C     0.51402   0.97492   0.71405   0.00000  Uiso   1.00
C1807  C     0.50013   0.83326   0.66437   0.00000  Uiso   1.00
C1808  C     0.49959   0.83346   0.83569   0.00000  Uiso   1.00
C1809  C     0.51943   0.79796   0.90679   0.00000  Uiso   1.00
C1810  C     0.48161   0.86982   0.59348   0.00000  Uiso   1.00
C1811  C     0.49930   0.83370   0.88404   0.00000  Uiso   1.00
C1812  C     0.50075   0.83339   0.61616   0.00000  Uiso   1.00
C1813  C     0.47918   0.86965   0.90727   0.00000  Uiso   1.00
C1814  C     0.52087   0.79759   0.59297   0.00000  Uiso   1.00
C1815  C     0.47905   0.87047   0.95394   0.00000  Uiso   1.00
C1816  C     0.52218   0.79765   0.54634   0.00000  Uiso   1.00
C1817  C     0.50032   0.83433   0.97680   0.00000  Uiso   1.00
C1818  C     0.50129   0.83397   0.52345   0.00000  Uiso   1.00
C1819  C     0.52042   0.79822   0.95301   0.00000  Uiso   1.00
C1820  C     0.48125   0.87002   0.54730   0.00000  Uiso   1.00
C1821  C     0.45854   0.90618   0.97853   0.00000  Uiso   1.00
C1822  C     0.54348   0.76250   0.52197   0.00000  Uiso   1.00
Cu1823 Cu    0.50000   0.88022   0.75000   0.00000  Uiso   1.00
Cu1824 Cu    0.50000   0.78645   0.75000   0.00000  Uiso   1.00
H1825  H     0.53507   0.77040   0.88837   0.00000  Uiso   1.00
H1826  H     0.46608   0.89746   0.61192   0.00000  Uiso   1.00
H1827  H     0.46347   0.89633   0.88841   0.00000  Uiso   1.00
H1828  H     0.53576   0.77037   0.61192   0.00000  Uiso   1.00
H1829  H     0.44462   0.93244   0.54406   0.00000  Uiso   1.00
H1830  H     0.55781   0.73622   0.95654   0.00000  Uiso   1.00
H1831  H     0.52572   0.70954   0.68540   0.00000  Uiso   1.00
H1832  H     0.47464   0.95705   0.81465   0.00000  Uiso   1.00
H1833  H     0.47386   0.71047   0.81437   0.00000  Uiso   1.00
H1834  H     0.52552   0.95613   0.68541   0.00000  Uiso   1.00
N1835  N     0.50000   0.95069   0.75000   0.00000  Uiso   1.00
N1836  N     0.50000   0.71598   0.75000   0.00000  Uiso   1.00
O1837  O     0.43988   0.87291   0.75000   0.00000  Uiso   1.00
O1838  O     0.56012   0.79375   0.75001   0.00000  Uiso   1.00
O1839  O     0.56012   0.87291   0.75001   0.00000  Uiso   1.00
O1840  O     0.43988   0.79375   0.75000   0.00000  Uiso   1.00
O1841  O     0.49999   0.87293   0.68513   0.00000  Uiso   1.00
O1842  O     0.50001   0.79373   0.81487   0.00000  Uiso   1.00
O1843  O     0.50001   0.87293   0.81487   0.00000  Uiso   1.00
O1844  O     0.49999   0.79373   0.68513   0.00000  Uiso   1.00
C1845  C     0.43258   0.94416   0.95744   0.00000  Uiso   1.00
C1846  C     0.39051   0.92493   0.94495   0.00000  Uiso   1.00
C1847  C     0.35877   0.96413   0.94207   0.00000  Uiso   1.00
H1848  H     0.35244   0.97866   0.97574   0.00000  Uiso   1.00
H1849  H     0.36946   0.99304   0.92048   0.00000  Uiso   1.00
H1850  H     0.66342   0.94985   0.92820   0.00000  Uiso   1.00
H1851  H     0.39239   0.90616   0.91253   0.00000  Uiso   1.00
H1852  H     0.38004   0.89938   0.97033   0.00000  Uiso   1.00
H1853  H     0.42872   0.97390   0.98130   0.00000  Uiso   1.00
H1854  H     0.44790   0.95967   0.92812   0.00000  Uiso   1.00
C1855  C     0.56930   0.72501   0.54405   0.00000  Uiso   1.00
C1856  C     0.60938   0.74591   0.56097   0.00000  Uiso   1.00
C1857  C     0.63471   0.70930   0.58541   0.00000  Uiso   1.00
H1858  H     0.61832   0.69711   0.61549   0.00000  Uiso   1.00
H1859  H     0.64131   0.67888   0.56322   0.00000  Uiso   1.00
H1860  H     0.66395   0.72511   0.59587   0.00000  Uiso   1.00
H1861  H     0.62719   0.75920   0.53226   0.00000  Uiso   1.00
H1862  H     0.60355   0.77593   0.58389   0.00000  Uiso   1.00
H1863  H     0.55214   0.70795   0.57132   0.00000  Uiso   1.00
H1864  H     0.57665   0.69639   0.51996   0.00000  Uiso   1.00
C1865  C     0.37765   0.73845   0.73926   0.00000  Uiso   1.00
C1866  C     0.39179   0.72990   0.69102   0.00000  Uiso   1.00
C1867  C     0.40578   0.67945   0.68322   0.00000  Uiso   1.00
H1868  H     0.42785   0.66874   0.70907   0.00000  Uiso   1.00
H1869  H     0.37920   0.98898   0.68380   0.00000  Uiso   1.00
H1870  H     0.42054   0.67639   0.65011   0.00000  Uiso   1.00
H1871  H     0.36628   0.73728   0.66791   0.00000  Uiso   1.00
H1872  H     0.41691   0.75400   0.68228   0.00000  Uiso   1.00
H1873  H     0.40178   0.73403   0.76426   0.00000  Uiso   1.00
H1874  H     0.36024   0.70790   0.75060   0.00000  Uiso   1.00
C1875  C     0.62778   0.90736   0.69780   0.00000  Uiso   1.00
C1876  C     0.61191   0.88497   0.65447   0.00000  Uiso   1.00
C1877  C     0.60191   0.92195   0.61960   0.00000  Uiso   1.00
H1878  H     0.58006   0.94821   0.63303   0.00000  Uiso   1.00
H1879  H     0.63010   0.94006   0.60910   0.00000  Uiso   1.00
H1880  H     0.58819   0.90471   0.59004   0.00000  Uiso   1.00
H1881  H     0.63527   0.86067   0.64051   0.00000  Uiso   1.00
H1882  H     0.58410   0.86435   0.66115   0.00000  Uiso   1.00
H1883  H     0.60358   0.92838   0.71420   0.00000  Uiso   1.00
H1884  H     0.65184   0.93245   0.68787   0.00000  Uiso   1.00
C1885  C     0.62310   0.73743   0.74093   0.00000  Uiso   1.00
C1886  C     0.61677   0.72148   0.78941   0.00000  Uiso   1.00
C1887  C     0.60026   0.67177   0.79273   0.00000  Uiso   1.00
H1888  H     0.57047   0.66942   0.77636   0.00000  Uiso   1.00
H1889  H     0.62123   0.97973   0.77688   0.00000  Uiso   1.00
H1890  H     0.59659   0.99547   0.82822   0.00000  Uiso   1.00
H1891  H     0.64601   0.72295   0.80768   0.00000  Uiso   1.00
H1892  H     0.59550   0.74572   0.80685   0.00000  Uiso   1.00
H1893  H     0.59504   0.73648   0.72100   0.00000  Uiso   1.00
H1894  H     0.63894   0.71037   0.72080   0.00000  Uiso   1.00
C1895  C     0.36773   0.92085   0.75822   0.00000  Uiso   1.00
C1896  C     0.37662   0.92197   0.80839   0.00000  Uiso   1.00
C1897  C     0.38588   0.97184   0.82418   0.00000  Uiso   1.00
H1898  H     0.40446   0.99068   0.79937   0.00000  Uiso   1.00
H1899  H     0.35721   0.99167   0.82961   0.00000  Uiso   1.00
H1900  H     0.40322   0.97068   0.85567   0.00000  Uiso   1.00
H1901  H     0.34988   0.90876   0.82709   0.00000  Uiso   1.00
H1902  H     0.40281   0.89900   0.81658   0.00000  Uiso   1.00
H1903  H     0.39420   0.93196   0.73837   0.00000  Uiso   1.00
H1904  H     0.34490   0.94864   0.75237   0.00000  Uiso   1.00
C1905  C     0.75368   0.83293   0.74973   0.00000  Uiso   1.00
C1906  C     0.91246   0.83250   0.74597   0.00000  Uiso   1.00
C1907  C     0.79374   0.90553   0.52498   0.00000  Uiso   1.00
C1908  C     0.87513   0.76306   0.97548   0.00000  Uiso   1.00
C1909  C     0.68809   0.78587   0.74277   0.00000  Uiso   1.00
C1910  C     0.97843   0.87015   0.72912   0.00000  Uiso   1.00
C1911  C     0.97833   0.78522   0.74064   0.00000  Uiso   1.00
C1912  C     0.68549   0.87291   0.74319   0.00000  Uiso   1.00
C1913  C     0.95680   0.82906   0.73859   0.00000  Uiso   1.00
C1914  C     0.70858   0.83061   0.74644   0.00000  Uiso   1.00
C1915  C     0.84739   0.69121   0.71405   0.00000  Uiso   1.00
C1916  C     0.81928   0.97545   0.78589   0.00000  Uiso   1.00
C1917  C     0.81902   0.69173   0.78579   0.00000  Uiso   1.00
C1918  C     0.84736   0.97492   0.71405   0.00000  Uiso   1.00
C1919  C     0.83346   0.83326   0.66437   0.00000  Uiso   1.00
C1920  C     0.83292   0.83346   0.83569   0.00000  Uiso   1.00
C1921  C     0.85276   0.79796   0.90679   0.00000  Uiso   1.00
C1922  C     0.81494   0.86982   0.59348   0.00000  Uiso   1.00
C1923  C     0.83264   0.83370   0.88404   0.00000  Uiso   1.00
C1924  C     0.83409   0.83339   0.61616   0.00000  Uiso   1.00
C1925  C     0.81251   0.86965   0.90727   0.00000  Uiso   1.00
C1926  C     0.85420   0.79759   0.59297   0.00000  Uiso   1.00
C1927  C     0.81238   0.87047   0.95394   0.00000  Uiso   1.00
C1928  C     0.85551   0.79765   0.54634   0.00000  Uiso   1.00
C1929  C     0.83365   0.83433   0.97680   0.00000  Uiso   1.00
C1930  C     0.83463   0.83397   0.52345   0.00000  Uiso   1.00
C1931  C     0.85375   0.79822   0.95301   0.00000  Uiso   1.00
C1932  C     0.81458   0.87002   0.54730   0.00000  Uiso   1.00
C1933  C     0.79187   0.90618   0.97853   0.00000  Uiso   1.00
C1934  C     0.87681   0.76250   0.52197   0.00000  Uiso   1.00
Cu1935 Cu    0.83333   0.88022   0.75000   0.00000  Uiso   1.00
Cu1936 Cu    0.83333   0.78645   0.75000   0.00000  Uiso   1.00
H1937  H     0.86840   0.77040   0.88837   0.00000  Uiso   1.00
H1938  H     0.79942   0.89746   0.61192   0.00000  Uiso   1.00
H1939  H     0.79681   0.89633   0.88841   0.00000  Uiso   1.00
H1940  H     0.86909   0.77037   0.61192   0.00000  Uiso   1.00
H1941  H     0.77795   0.93244   0.54406   0.00000  Uiso   1.00
H1942  H     0.89115   0.73622   0.95654   0.00000  Uiso   1.00
H1943  H     0.85905   0.70954   0.68540   0.00000  Uiso   1.00
H1944  H     0.80798   0.95705   0.81465   0.00000  Uiso   1.00
H1945  H     0.80720   0.71047   0.81437   0.00000  Uiso   1.00
H1946  H     0.85885   0.95613   0.68541   0.00000  Uiso   1.00
N1947  N     0.83333   0.95069   0.75000   0.00000  Uiso   1.00
N1948  N     0.83333   0.71598   0.75000   0.00000  Uiso   1.00
O1949  O     0.77321   0.87291   0.75000   0.00000  Uiso   1.00
O1950  O     0.89345   0.79375   0.75001   0.00000  Uiso   1.00
O1951  O     0.89345   0.87291   0.75001   0.00000  Uiso   1.00
O1952  O     0.77321   0.79375   0.75000   0.00000  Uiso   1.00
O1953  O     0.83332   0.87293   0.68513   0.00000  Uiso   1.00
O1954  O     0.83334   0.79373   0.81487   0.00000  Uiso   1.00
O1955  O     0.83334   0.87293   0.81487   0.00000  Uiso   1.00
O1956  O     0.83332   0.79373   0.68513   0.00000  Uiso   1.00
C1957  C     0.76591   0.94416   0.95744   0.00000  Uiso   1.00
C1958  C     0.72384   0.92493   0.94495   0.00000  Uiso   1.00
C1959  C     0.69210   0.96413   0.94207   0.00000  Uiso   1.00
H1960  H     0.68577   0.97866   0.97574   0.00000  Uiso   1.00
H1961  H     0.70279   0.99304   0.92048   0.00000  Uiso   1.00
H1962  H     0.99676   0.94985   0.92820   0.00000  Uiso   1.00
H1963  H     0.72572   0.90616   0.91253   0.00000  Uiso   1.00
H1964  H     0.71337   0.89938   0.97033   0.00000  Uiso   1.00
H1965  H     0.76206   0.97390   0.98130   0.00000  Uiso   1.00
H1966  H     0.78123   0.95967   0.92812   0.00000  Uiso   1.00
C1967  C     0.90263   0.72501   0.54405   0.00000  Uiso   1.00
C1968  C     0.94272   0.74591   0.56097   0.00000  Uiso   1.00
C1969  C     0.96805   0.70930   0.58541   0.00000  Uiso   1.00
H1970  H     0.95166   0.69711   0.61549   0.00000  Uiso   1.00
H1971  H     0.97465   0.67888   0.56322   0.00000  Uiso   1.00
H1972  H     0.99729   0.72511   0.59587   0.00000  Uiso   1.00
H1973  H     0.96052   0.75920   0.53226   0.00000  Uiso   1.00
H1974  H     0.93689   0.77593   0.58389   0.00000  Uiso   1.00
H1975  H     0.88547   0.70795   0.57132   0.00000  Uiso   1.00
H1976  H     0.90999   0.69639   0.51996   0.00000  Uiso   1.00
C1977  C     0.71098   0.73845   0.73926   0.00000  Uiso   1.00
C1978  C     0.72512   0.72990   0.69102   0.00000  Uiso   1.00
C1979  C     0.73912   0.67945   0.68322   0.00000  Uiso   1.00
H1980  H     0.76119   0.66874   0.70907   0.00000  Uiso   1.00
H1981  H     0.71253   0.98898   0.68380   0.00000  Uiso   1.00
H1982  H     0.75387   0.67639   0.65011   0.00000  Uiso   1.00
H1983  H     0.69961   0.73728   0.66791   0.00000  Uiso   1.00
H1984  H     0.75025   0.75400   0.68228   0.00000  Uiso   1.00
H1985  H     0.73511   0.73403   0.76426   0.00000  Uiso   1.00
H1986  H     0.69357   0.70790   0.75060   0.00000  Uiso   1.00
C1987  C     0.96111   0.90736   0.69780   0.00000  Uiso   1.00
C1988  C     0.94525   0.88497   0.65447   0.00000  Uiso   1.00
C1989  C     0.93525   0.92195   0.61960   0.00000  Uiso   1.00
H1990  H     0.91339   0.94821   0.63303   0.00000  Uiso   1.00
H1991  H     0.96343   0.94006   0.60910   0.00000  Uiso   1.00
H1992  H     0.92152   0.90471   0.59004   0.00000  Uiso   1.00
H1993  H     0.96860   0.86067   0.64051   0.00000  Uiso   1.00
H1994  H     0.91743   0.86435   0.66115   0.00000  Uiso   1.00
H1995  H     0.93691   0.92838   0.71420   0.00000  Uiso   1.00
H1996  H     0.98517   0.93245   0.68787   0.00000  Uiso   1.00
C1997  C     0.95643   0.73743   0.74093   0.00000  Uiso   1.00
C1998  C     0.95010   0.72148   0.78941   0.00000  Uiso   1.00
C1999  C     0.93360   0.67177   0.79273   0.00000  Uiso   1.00
H2000  H     0.90380   0.66942   0.77636   0.00000  Uiso   1.00
H2001  H     0.95456   0.97973   0.77688   0.00000  Uiso   1.00
H2002  H     0.92992   0.99547   0.82822   0.00000  Uiso   1.00
H2003  H     0.97935   0.72295   0.80768   0.00000  Uiso   1.00
H2004  H     0.92884   0.74572   0.80685   0.00000  Uiso   1.00
H2005  H     0.92837   0.73648   0.72100   0.00000  Uiso   1.00
H2006  H     0.97227   0.71037   0.72080   0.00000  Uiso   1.00
C2007  C     0.70107   0.92085   0.75822   0.00000  Uiso   1.00
C2008  C     0.70996   0.92197   0.80839   0.00000  Uiso   1.00
C2009  C     0.71922   0.97184   0.82418   0.00000  Uiso   1.00
H2010  H     0.73780   0.99068   0.79937   0.00000  Uiso   1.00
H2011  H     0.69054   0.99167   0.82961   0.00000  Uiso   1.00
H2012  H     0.73655   0.97068   0.85567   0.00000  Uiso   1.00
H2013  H     0.68321   0.90876   0.82709   0.00000  Uiso   1.00
H2014  H     0.73614   0.89900   0.81658   0.00000  Uiso   1.00
H2015  H     0.72753   0.93196   0.73837   0.00000  Uiso   1.00
H2016  H     0.67824   0.94864   0.75237   0.00000  Uiso   1.00
loop_
_geom_bond_atom_site_label_1
_geom_bond_atom_site_label_2
_geom_bond_distance
_geom_bond_site_symmetry_2
_ccdc_geom_bond_type
C1     C10     1.490   .     S
C1     O48     1.285   .     A
C1     O45     1.309   .     A
C2     O46     1.276   .     A
C2     O47     1.312   .     A
C2     C9      1.479   .     S
C3     C28     1.395   .     A
C3     H37     1.085   .     S
C3     C1037   1.399   1_554 S
C4     C27     1.399   .     A
C4     H38     1.085   .     S
C4     C1038   1.400   .     S
C5     C10     1.447   .     A
C5     C73     1.546   .     S
C5     C231    1.421   1_455 S
C6     C9      1.402   .     A
C6     C83     1.530   .     S
C6     C120    1.399   .     S
C7     C93     1.542   .     S
C7     C9      1.434   .     A
C7     C117    1.421   .     S
C8     C103    1.526   .     S
C8     C10     1.425   .     A
C8     C230    1.399   1_455 S
C11    N44     1.367   .     A
C11    H39     1.081   .     S
C11    C686    1.412   1_545 S
C12    N43     1.365   .     A
C12    H40     1.080   .     S
C12    C349    1.412   .     S
C13    H41     1.081   .     S
C13    N44     1.366   .     A
C13    C684    1.412   1_545 S
C14    H42     1.079   .     S
C14    N43     1.366   .     A
C14    C347    1.412   .     S
C15    O49     1.287   .     A
C15    C20     1.451   .     S
C15    O52     1.290   .     A
C16    O51     1.289   .     A
C16    C19     1.454   .     S
C16    O50     1.289   .     A
C17    C27     1.391   .     A
C17    H33     1.085   .     S
C17    C19     1.395   .     A
C18    C28     1.390   .     A
C18    H34     1.085   .     S
C18    C20     1.393   .     A
C19    C21     1.400   .     A
C20    C22     1.396   .     A
C21    H35     1.081   .     S
C21    C23     1.404   .     A
C22    C24     1.403   .     A
C22    H36     1.081   .     S
C23    C29     1.421   .     A
C23    C25     1.423   .     A
C24    C26     1.421   .     A
C24    C30     1.419   .     A
C25    C27     1.411   .     A
C25    C1034   1.404   .     S
C26    C28     1.410   .     A
C26    C1033   1.404   1_554 S
C29    C53     1.518   .     S
C29    C1011   1.399   .     S
C30    C63     1.518   .     S
C30    C1012   1.400   1_554 S
Cu31   N43     2.005   .     S
Cu31   O49     1.961   .     S
Cu31   Cu32    2.668   .     S
Cu31   O51     1.964   .     S
Cu31   O45     1.991   .     S
Cu31   O47     1.990   .     S
Cu32   O52     1.964   .     S
Cu32   O48     1.990   .     S
Cu32   N44     2.005   .     S
Cu32   O50     1.961   .     S
Cu32   O46     1.991   .     S
C53    C54     1.538   .     S
C53    H61     1.113   .     S
C53    H62     1.110   .     S
C54    H60     1.113   .     S
C54    H59     1.111   .     S
C54    C55     1.528   .     S
C55    H56     1.111   .     S
C55    H57     1.109   .     S
C55    H282    1.110   1_455 S
H58    C167    1.110   .     S
C63    H71     1.111   .     S
C63    C64     1.536   .     S
C63    H72     1.113   .     S
C64    H70     1.111   .     S
C64    H69     1.112   .     S
C64    C65     1.525   .     S
C65    H67     1.111   .     S
C65    H68     1.110   .     S
C65    H66     1.111   .     S
C73    C74     1.541   .     S
C73    H81     1.102   .     S
C73    H82     1.099   .     S
C74    H80     1.109   .     S
C74    C75     1.523   .     S
C74    H79     1.111   .     S
C75    H76     1.108   .     S
C75    H78     1.110   .     S
C75    H749    1.109   1_545 S
H77    C411    1.109   .     S
C83    H92     1.110   .     S
C83    C84     1.541   .     S
C83    H91     1.108   .     S
C84    H90     1.109   .     S
C84    C85     1.525   .     S
C84    H89     1.112   .     S
C85    H87     1.110   .     S
C85    H86     1.109   .     S
C85    H88     1.111   .     S
C93    C94     1.544   .     S
C93    H101    1.102   .     S
C93    H102    1.105   .     S
C94    H100    1.110   .     S
C94    H99     1.110   .     S
C94    C95     1.521   .     S
C95    H96     1.101   .     S
C95    H769    1.103   1_545 S
C95    H770    1.110   1_545 S
H97    C431    1.103   .     S
H98    C431    1.110   .     S
C103   H111    1.104   .     S
C103   H112    1.104   .     S
C103   C104    1.538   .     S
C104   H109    1.112   .     S
C104   C105    1.526   .     S
C104   H110    1.109   .     S
C105   H107    1.109   .     S
C105   H108    1.108   .     S
C105   H106    1.107   .     S
C113   C122    1.490   .     S
C113   O160    1.285   .     A
C113   O157    1.309   .     A
C114   O158    1.276   .     A
C114   O159    1.312   .     A
C114   C121    1.479   .     S
C115   C140    1.395   .     A
C115   H149    1.085   .     S
C115   C1149   1.399   1_554 S
C116   C139    1.399   .     A
C116   H150    1.085   .     S
C116   C1150   1.400   .     S
C117   C122    1.447   .     A
C117   C185    1.546   .     S
C118   C121    1.402   .     A
C118   C195    1.530   .     S
C118   C232    1.399   .     S
C119   C205    1.542   .     S
C119   C121    1.434   .     A
C119   C229    1.421   .     S
C120   C215    1.526   .     S
C120   C122    1.425   .     A
C123   N156    1.367   .     A
C123   H151    1.081   .     S
C123   C798    1.412   1_545 S
C124   N155    1.365   .     A
C124   H152    1.080   .     S
C124   C461    1.412   .     S
C125   H153    1.081   .     S
C125   N156    1.366   .     A
C125   C796    1.412   1_545 S
C126   H154    1.079   .     S
C126   N155    1.366   .     A
C126   C459    1.412   .     S
C127   O161    1.287   .     A
C127   C132    1.451   .     S
C127   O164    1.290   .     A
C128   O163    1.289   .     A
C128   C131    1.454   .     S
C128   O162    1.289   .     A
C129   C139    1.391   .     A
C129   H145    1.085   .     S
C129   C131    1.395   .     A
C130   C140    1.390   .     A
C130   H146    1.085   .     S
C130   C132    1.393   .     A
C131   C133    1.400   .     A
C132   C134    1.396   .     A
C133   H147    1.081   .     S
C133   C135    1.404   .     A
C134   C136    1.403   .     A
C134   H148    1.081   .     S
C135   C141    1.421   .     A
C135   C137    1.423   .     A
C136   C138    1.421   .     A
C136   C142    1.419   .     A
C137   C139    1.411   .     A
C137   C1146   1.404   .     S
C138   C140    1.410   .     A
C138   C1145   1.404   1_554 S
C141   C165    1.518   .     S
C141   C1123   1.399   .     S
C142   C175    1.518   .     S
C142   C1124   1.400   1_554 S
Cu143  N155    2.005   .     S
Cu143  O161    1.961   .     S
Cu143  Cu144   2.668   .     S
Cu143  O163    1.964   .     S
Cu143  O157    1.991   .     S
Cu143  O159    1.990   .     S
Cu144  O164    1.964   .     S
Cu144  O160    1.990   .     S
Cu144  N156    2.005   .     S
Cu144  O162    1.961   .     S
Cu144  O158    1.991   .     S
C165   C166    1.538   .     S
C165   H173    1.113   .     S
C165   H174    1.110   .     S
C166   H172    1.113   .     S
C166   H171    1.111   .     S
C166   C167    1.528   .     S
C167   H168    1.111   .     S
C167   H169    1.109   .     S
H170   C279    1.110   .     S
C175   H183    1.111   .     S
C175   C176    1.536   .     S
C175   H184    1.113   .     S
C176   H182    1.111   .     S
C176   H181    1.112   .     S
C176   C177    1.525   .     S
C177   H179    1.111   .     S
C177   H180    1.110   .     S
C177   H178    1.111   .     S
C185   C186    1.541   .     S
C185   H193    1.102   .     S
C185   H194    1.099   .     S
C186   H192    1.109   .     S
C186   C187    1.523   .     S
C186   H191    1.111   .     S
C187   H188    1.108   .     S
C187   H190    1.110   .     S
C187   H861    1.109   1_545 S
H189   C523    1.109   .     S
C195   H204    1.110   .     S
C195   C196    1.541   .     S
C195   H203    1.108   .     S
C196   H202    1.109   .     S
C196   C197    1.525   .     S
C196   H201    1.112   .     S
C197   H199    1.110   .     S
C197   H198    1.109   .     S
C197   H200    1.111   .     S
C205   C206    1.544   .     S
C205   H213    1.102   .     S
C205   H214    1.105   .     S
C206   H212    1.110   .     S
C206   H211    1.110   .     S
C206   C207    1.521   .     S
C207   H208    1.101   .     S
C207   H881    1.103   1_545 S
C207   H882    1.110   1_545 S
H209   C543    1.103   .     S
H210   C543    1.110   .     S
C215   H223    1.104   .     S
C215   H224    1.104   .     S
C215   C216    1.538   .     S
C216   H221    1.112   .     S
C216   C217    1.526   .     S
C216   H222    1.109   .     S
C217   H219    1.109   .     S
C217   H220    1.108   .     S
C217   H218    1.107   .     S
C225   C234    1.490   .     S
C225   O272    1.285   .     A
C225   O269    1.309   .     A
C226   O270    1.276   .     A
C226   O271    1.312   .     A
C226   C233    1.479   .     S
C227   C252    1.395   .     A
C227   H261    1.085   .     S
C227   C1261   1.399   1_554 S
C228   C251    1.399   .     A
C228   H262    1.085   .     S
C228   C1262   1.400   .     S
C229   C234    1.447   .     A
C229   C297    1.546   .     S
C230   C233    1.402   .     A
C230   C307    1.530   .     S
C230   C8      1.399   1_655 S
C231   C317    1.542   .     S
C231   C233    1.434   .     A
C231   C5      1.421   1_655 S
C232   C327    1.526   .     S
C232   C234    1.425   .     A
C235   N268    1.367   .     A
C235   H263    1.081   .     S
C235   C910    1.412   1_545 S
C236   N267    1.365   .     A
C236   H264    1.080   .     S
C236   C573    1.412   .     S
C237   H265    1.081   .     S
C237   N268    1.366   .     A
C237   C908    1.412   1_545 S
C238   H266    1.079   .     S
C238   N267    1.366   .     A
C238   C571    1.412   .     S
C239   O273    1.287   .     A
C239   C244    1.451   .     S
C239   O276    1.290   .     A
C240   O275    1.289   .     A
C240   C243    1.454   .     S
C240   O274    1.289   .     A
C241   C251    1.391   .     A
C241   H257    1.085   .     S
C241   C243    1.395   .     A
C242   C252    1.390   .     A
C242   H258    1.085   .     S
C242   C244    1.393   .     A
C243   C245    1.400   .     A
C244   C246    1.396   .     A
C245   H259    1.081   .     S
C245   C247    1.404   .     A
C246   C248    1.403   .     A
C246   H260    1.081   .     S
C247   C253    1.421   .     A
C247   C249    1.423   .     A
C248   C250    1.421   .     A
C248   C254    1.419   .     A
C249   C251    1.411   .     A
C249   C1258   1.404   .     S
C250   C252    1.410   .     A
C250   C1257   1.404   1_554 S
C253   C277    1.518   .     S
C253   C1235   1.399   .     S
C254   C287    1.518   .     S
C254   C1236   1.400   1_554 S
Cu255  N267    2.005   .     S
Cu255  O273    1.961   .     S
Cu255  Cu256   2.668   .     S
Cu255  O275    1.964   .     S
Cu255  O269    1.991   .     S
Cu255  O271    1.990   .     S
Cu256  O276    1.964   .     S
Cu256  O272    1.990   .     S
Cu256  N268    2.005   .     S
Cu256  O274    1.961   .     S
Cu256  O270    1.991   .     S
C277   C278    1.538   .     S
C277   H285    1.113   .     S
C277   H286    1.110   .     S
C278   H284    1.113   .     S
C278   H283    1.111   .     S
C278   C279    1.528   .     S
C279   H280    1.111   .     S
C279   H281    1.109   .     S
H282   C55     1.110   1_655 S
C287   H295    1.111   .     S
C287   C288    1.536   .     S
C287   H296    1.113   .     S
C288   H294    1.111   .     S
C288   H293    1.112   .     S
C288   C289    1.525   .     S
C289   H291    1.111   .     S
C289   H292    1.110   .     S
C289   H290    1.111   .     S
C297   C298    1.541   .     S
C297   H305    1.102   .     S
C297   H306    1.099   .     S
C298   H304    1.109   .     S
C298   C299    1.523   .     S
C298   H303    1.111   .     S
C299   H300    1.108   .     S
C299   H302    1.110   .     S
C299   H973    1.109   1_545 S
H301   C635    1.109   .     S
C307   H316    1.110   .     S
C307   C308    1.541   .     S
C307   H315    1.108   .     S
C308   H314    1.109   .     S
C308   C309    1.525   .     S
C308   H313    1.112   .     S
C309   H311    1.110   .     S
C309   H310    1.109   .     S
C309   H312    1.111   .     S
C317   C318    1.544   .     S
C317   H325    1.102   .     S
C317   H326    1.105   .     S
C318   H324    1.110   .     S
C318   H323    1.110   .     S
C318   C319    1.521   .     S
C319   H320    1.101   .     S
C319   H993    1.103   1_545 S
C319   H994    1.110   1_545 S
H321   C655    1.103   .     S
H322   C655    1.110   .     S
C327   H335    1.104   .     S
C327   H336    1.104   .     S
C327   C328    1.538   .     S
C328   H333    1.112   .     S
C328   C329    1.526   .     S
C328   H334    1.109   .     S
C329   H331    1.109   .     S
C329   H332    1.108   .     S
C329   H330    1.107   .     S
C337   C346    1.490   .     S
C337   O384    1.285   .     A
C337   O381    1.309   .     A
C338   O382    1.276   .     A
C338   O383    1.312   .     A
C338   C345    1.479   .     S
C339   C364    1.395   .     A
C339   H373    1.085   .     S
C339   C1373   1.399   1_554 S
C340   C363    1.399   .     A
C340   H374    1.085   .     S
C340   C1374   1.400   .     S
C341   C346    1.447   .     A
C341   C409    1.546   .     S
C341   C567    1.421   1_455 S
C342   C345    1.402   .     A
C342   C419    1.530   .     S
C342   C456    1.399   .     S
C343   C429    1.542   .     S
C343   C345    1.434   .     A
C343   C453    1.421   .     S
C344   C439    1.526   .     S
C344   C346    1.425   .     A
C344   C566    1.399   1_455 S
C347   N380    1.367   .     A
C347   H375    1.081   .     S
C348   N379    1.365   .     A
C348   H376    1.080   .     S
C348   C685    1.412   .     S
C349   H377    1.081   .     S
C349   N380    1.366   .     A
C350   H378    1.079   .     S
C350   N379    1.366   .     A
C350   C683    1.412   .     S
C351   O385    1.287   .     A
C351   C356    1.451   .     S
C351   O388    1.290   .     A
C352   O387    1.289   .     A
C352   C355    1.454   .     S
C352   O386    1.289   .     A
C353   C363    1.391   .     A
C353   H369    1.085   .     S
C353   C355    1.395   .     A
C354   C364    1.390   .     A
C354   H370    1.085   .     S
C354   C356    1.393   .     A
C355   C357    1.400   .     A
C356   C358    1.396   .     A
C357   H371    1.081   .     S
C357   C359    1.404   .     A
C358   C360    1.403   .     A
C358   H372    1.081   .     S
C359   C365    1.421   .     A
C359   C361    1.423   .     A
C360   C362    1.421   .     A
C360   C366    1.419   .     A
C361   C363    1.411   .     A
C361   C1370   1.404   .     S
C362   C364    1.410   .     A
C362   C1369   1.404   1_554 S
C365   C389    1.518   .     S
C365   C1347   1.399   .     S
C366   C399    1.518   .     S
C366   C1348   1.400   1_554 S
Cu367  N379    2.005   .     S
Cu367  O385    1.961   .     S
Cu367  Cu368   2.668   .     S
Cu367  O387    1.964   .     S
Cu367  O381    1.991   .     S
Cu367  O383    1.990   .     S
Cu368  O388    1.964   .     S
Cu368  O384    1.990   .     S
Cu368  N380    2.005   .     S
Cu368  O386    1.961   .     S
Cu368  O382    1.991   .     S
C389   C390    1.538   .     S
C389   H397    1.113   .     S
C389   H398    1.110   .     S
C390   H396    1.113   .     S
C390   H395    1.111   .     S
C390   C391    1.528   .     S
C391   H392    1.111   .     S
C391   H393    1.109   .     S
C391   H618    1.110   1_455 S
H394   C503    1.110   .     S
C399   H407    1.111   .     S
C399   C400    1.536   .     S
C399   H408    1.113   .     S
C400   H406    1.111   .     S
C400   H405    1.112   .     S
C400   C401    1.525   .     S
C401   H403    1.111   .     S
C401   H404    1.110   .     S
C401   H402    1.111   .     S
C409   C410    1.541   .     S
C409   H417    1.102   .     S
C409   H418    1.099   .     S
C410   H416    1.109   .     S
C410   C411    1.523   .     S
C410   H415    1.111   .     S
C411   H412    1.108   .     S
C411   H414    1.110   .     S
H413   C747    1.109   .     S
C419   H428    1.110   .     S
C419   C420    1.541   .     S
C419   H427    1.108   .     S
C420   H426    1.109   .     S
C420   C421    1.525   .     S
C420   H425    1.112   .     S
C421   H423    1.110   .     S
C421   H422    1.109   .     S
C421   H424    1.111   .     S
C429   C430    1.544   .     S
C429   H437    1.102   .     S
C429   H438    1.105   .     S
C430   H436    1.110   .     S
C430   H435    1.110   .     S
C430   C431    1.521   .     S
C431   H432    1.101   .     S
H433   C767    1.103   .     S
H434   C767    1.110   .     S
C439   H447    1.104   .     S
C439   H448    1.104   .     S
C439   C440    1.538   .     S
C440   H445    1.112   .     S
C440   C441    1.526   .     S
C440   H446    1.109   .     S
C441   H443    1.109   .     S
C441   H444    1.108   .     S
C441   H442    1.107   .     S
C449   C458    1.490   .     S
C449   O496    1.285   .     A
C449   O493    1.309   .     A
C450   O494    1.276   .     A
C450   O495    1.312   .     A
C450   C457    1.479   .     S
C451   C476    1.395   .     A
C451   H485    1.085   .     S
C451   C1485   1.399   1_554 S
C452   C475    1.399   .     A
C452   H486    1.085   .     S
C452   C1486   1.400   .     S
C453   C458    1.447   .     A
C453   C521    1.546   .     S
C454   C457    1.402   .     A
C454   C531    1.530   .     S
C454   C568    1.399   .     S
C455   C541    1.542   .     S
C455   C457    1.434   .     A
C455   C565    1.421   .     S
C456   C551    1.526   .     S
C456   C458    1.425   .     A
C459   N492    1.367   .     A
C459   H487    1.081   .     S
C460   N491    1.365   .     A
C460   H488    1.080   .     S
C460   C797    1.412   .     S
C461   H489    1.081   .     S
C461   N492    1.366   .     A
C462   H490    1.079   .     S
C462   N491    1.366   .     A
C462   C795    1.412   .     S
C463   O497    1.287   .     A
C463   C468    1.451   .     S
C463   O500    1.290   .     A
C464   O499    1.289   .     A
C464   C467    1.454   .     S
C464   O498    1.289   .     A
C465   C475    1.391   .     A
C465   H481    1.085   .     S
C465   C467    1.395   .     A
C466   C476    1.390   .     A
C466   H482    1.085   .     S
C466   C468    1.393   .     A
C467   C469    1.400   .     A
C468   C470    1.396   .     A
C469   H483    1.081   .     S
C469   C471    1.404   .     A
C470   C472    1.403   .     A
C470   H484    1.081   .     S
C471   C477    1.421   .     A
C471   C473    1.423   .     A
C472   C474    1.421   .     A
C472   C478    1.419   .     A
C473   C475    1.411   .     A
C473   C1482   1.404   .     S
C474   C476    1.410   .     A
C474   C1481   1.404   1_554 S
C477   C501    1.518   .     S
C477   C1459   1.399   .     S
C478   C511    1.518   .     S
C478   C1460   1.400   1_554 S
Cu479  N491    2.005   .     S
Cu479  O497    1.961   .     S
Cu479  Cu480   2.668   .     S
Cu479  O499    1.964   .     S
Cu479  O493    1.991   .     S
Cu479  O495    1.990   .     S
Cu480  O500    1.964   .     S
Cu480  O496    1.990   .     S
Cu480  N492    2.005   .     S
Cu480  O498    1.961   .     S
Cu480  O494    1.991   .     S
C501   C502    1.538   .     S
C501   H509    1.113   .     S
C501   H510    1.110   .     S
C502   H508    1.113   .     S
C502   H507    1.111   .     S
C502   C503    1.528   .     S
C503   H504    1.111   .     S
C503   H505    1.109   .     S
H506   C615    1.110   .     S
C511   H519    1.111   .     S
C511   C512    1.536   .     S
C511   H520    1.113   .     S
C512   H518    1.111   .     S
C512   H517    1.112   .     S
C512   C513    1.525   .     S
C513   H515    1.111   .     S
C513   H516    1.110   .     S
C513   H514    1.111   .     S
C521   C522    1.541   .     S
C521   H529    1.102   .     S
C521   H530    1.099   .     S
C522   H528    1.109   .     S
C522   C523    1.523   .     S
C522   H527    1.111   .     S
C523   H524    1.108   .     S
C523   H526    1.110   .     S
H525   C859    1.109   .     S
C531   H540    1.110   .     S
C531   C532    1.541   .     S
C531   H539    1.108   .     S
C532   H538    1.109   .     S
C532   C533    1.525   .     S
C532   H537    1.112   .     S
C533   H535    1.110   .     S
C533   H534    1.109   .     S
C533   H536    1.111   .     S
C541   C542    1.544   .     S
C541   H549    1.102   .     S
C541   H550    1.105   .     S
C542   H548    1.110   .     S
C542   H547    1.110   .     S
C542   C543    1.521   .     S
C543   H544    1.101   .     S
H545   C879    1.103   .     S
H546   C879    1.110   .     S
C551   H559    1.104   .     S
C551   H560    1.104   .     S
C551   C552    1.538   .     S
C552   H557    1.112   .     S
C552   C553    1.526   .     S
C552   H558    1.109   .     S
C553   H555    1.109   .     S
C553   H556    1.108   .     S
C553   H554    1.107   .     S
C561   C570    1.490   .     S
C561   O608    1.285   .     A
C561   O605    1.309   .     A
C562   O606    1.276   .     A
C562   O607    1.312   .     A
C562   C569    1.479   .     S
C563   C588    1.395   .     A
C563   H597    1.085   .     S
C563   C1597   1.399   1_554 S
C564   C587    1.399   .     A
C564   H598    1.085   .     S
C564   C1598   1.400   .     S
C565   C570    1.447   .     A
C565   C633    1.546   .     S
C566   C569    1.402   .     A
C566   C643    1.530   .     S
C566   C344    1.399   1_655 S
C567   C653    1.542   .     S
C567   C569    1.434   .     A
C567   C341    1.421   1_655 S
C568   C663    1.526   .     S
C568   C570    1.425   .     A
C571   N604    1.367   .     A
C571   H599    1.081   .     S
C572   N603    1.365   .     A
C572   H600    1.080   .     S
C572   C909    1.412   .     S
C573   H601    1.081   .     S
C573   N604    1.366   .     A
C574   H602    1.079   .     S
C574   N603    1.366   .     A
C574   C907    1.412   .     S
C575   O609    1.287   .     A
C575   C580    1.451   .     S
C575   O612    1.290   .     A
C576   O611    1.289   .     A
C576   C579    1.454   .     S
C576   O610    1.289   .     A
C577   C587    1.391   .     A
C577   H593    1.085   .     S
C577   C579    1.395   .     A
C578   C588    1.390   .     A
C578   H594    1.085   .     S
C578   C580    1.393   .     A
C579   C581    1.400   .     A
C580   C582    1.396   .     A
C581   H595    1.081   .     S
C581   C583    1.404   .     A
C582   C584    1.403   .     A
C582   H596    1.081   .     S
C583   C589    1.421   .     A
C583   C585    1.423   .     A
C584   C586    1.421   .     A
C584   C590    1.419   .     A
C585   C587    1.411   .     A
C585   C1594   1.404   .     S
C586   C588    1.410   .     A
C586   C1593   1.404   1_554 S
C589   C613    1.518   .     S
C589   C1571   1.399   .     S
C590   C623    1.518   .     S
C590   C1572   1.400   1_554 S
Cu591  N603    2.005   .     S
Cu591  O609    1.961   .     S
Cu591  Cu592   2.668   .     S
Cu591  O611    1.964   .     S
Cu591  O605    1.991   .     S
Cu591  O607    1.990   .     S
Cu592  O612    1.964   .     S
Cu592  O608    1.990   .     S
Cu592  N604    2.005   .     S
Cu592  O610    1.961   .     S
Cu592  O606    1.991   .     S
C613   C614    1.538   .     S
C613   H621    1.113   .     S
C613   H622    1.110   .     S
C614   H620    1.113   .     S
C614   H619    1.111   .     S
C614   C615    1.528   .     S
C615   H616    1.111   .     S
C615   H617    1.109   .     S
H618   C391    1.110   1_655 S
C623   H631    1.111   .     S
C623   C624    1.536   .     S
C623   H632    1.113   .     S
C624   H630    1.111   .     S
C624   H629    1.112   .     S
C624   C625    1.525   .     S
C625   H627    1.111   .     S
C625   H628    1.110   .     S
C625   H626    1.111   .     S
C633   C634    1.541   .     S
C633   H641    1.102   .     S
C633   H642    1.099   .     S
C634   H640    1.109   .     S
C634   C635    1.523   .     S
C634   H639    1.111   .     S
C635   H636    1.108   .     S
C635   H638    1.110   .     S
H637   C971    1.109   .     S
C643   H652    1.110   .     S
C643   C644    1.541   .     S
C643   H651    1.108   .     S
C644   H650    1.109   .     S
C644   C645    1.525   .     S
C644   H649    1.112   .     S
C645   H647    1.110   .     S
C645   H646    1.109   .     S
C645   H648    1.111   .     S
C653   C654    1.544   .     S
C653   H661    1.102   .     S
C653   H662    1.105   .     S
C654   H660    1.110   .     S
C654   H659    1.110   .     S
C654   C655    1.521   .     S
C655   H656    1.101   .     S
H657   C991    1.103   .     S
H658   C991    1.110   .     S
C663   H671    1.104   .     S
C663   H672    1.104   .     S
C663   C664    1.538   .     S
C664   H669    1.112   .     S
C664   C665    1.526   .     S
C664   H670    1.109   .     S
C665   H667    1.109   .     S
C665   H668    1.108   .     S
C665   H666    1.107   .     S
C673   C682    1.490   .     S
C673   O720    1.285   .     A
C673   O717    1.309   .     A
C674   O718    1.276   .     A
C674   O719    1.312   .     A
C674   C681    1.479   .     S
C675   C700    1.395   .     A
C675   H709    1.085   .     S
C675   C1709   1.399   1_554 S
C676   C699    1.399   .     A
C676   H710    1.085   .     S
C676   C1710   1.400   .     S
C677   C682    1.447   .     A
C677   C745    1.546   .     S
C677   C903    1.421   1_455 S
C678   C681    1.402   .     A
C678   C755    1.530   .     S
C678   C792    1.399   .     S
C679   C765    1.542   .     S
C679   C681    1.434   .     A
C679   C789    1.421   .     S
C680   C775    1.526   .     S
C680   C682    1.425   .     A
C680   C902    1.399   1_455 S
C683   N716    1.367   .     A
C683   H711    1.081   .     S
C684   N715    1.365   .     A
C684   H712    1.080   .     S
C684   C13     1.412   1_565 S
C685   H713    1.081   .     S
C685   N716    1.366   .     A
C686   H714    1.079   .     S
C686   N715    1.366   .     A
C686   C11     1.412   1_565 S
C687   O721    1.287   .     A
C687   C692    1.451   .     S
C687   O724    1.290   .     A
C688   O723    1.289   .     A
C688   C691    1.454   .     S
C688   O722    1.289   .     A
C689   C699    1.391   .     A
C689   H705    1.085   .     S
C689   C691    1.395   .     A
C690   C700    1.390   .     A
C690   H706    1.085   .     S
C690   C692    1.393   .     A
C691   C693    1.400   .     A
C692   C694    1.396   .     A
C693   H707    1.081   .     S
C693   C695    1.404   .     A
C694   C696    1.403   .     A
C694   H708    1.081   .     S
C695   C701    1.421   .     A
C695   C697    1.423   .     A
C696   C698    1.421   .     A
C696   C702    1.419   .     A
C697   C699    1.411   .     A
C697   C1706   1.404   .     S
C698   C700    1.410   .     A
C698   C1705   1.404   1_554 S
C701   C725    1.518   .     S
C701   C1683   1.399   .     S
C702   C735    1.518   .     S
C702   C1684   1.400   1_554 S
Cu703  N715    2.005   .     S
Cu703  O721    1.961   .     S
Cu703  Cu704   2.668   .     S
Cu703  O723    1.964   .     S
Cu703  O717    1.991   .     S
Cu703  O719    1.990   .     S
Cu704  O724    1.964   .     S
Cu704  O720    1.990   .     S
Cu704  N716    2.005   .     S
Cu704  O722    1.961   .     S
Cu704  O718    1.991   .     S
C725   C726    1.538   .     S
C725   H733    1.113   .     S
C725   H734    1.110   .     S
C726   H732    1.113   .     S
C726   H731    1.111   .     S
C726   C727    1.528   .     S
C727   H728    1.111   .     S
C727   H729    1.109   .     S
C727   H954    1.110   1_455 S
H730   C839    1.110   .     S
C735   H743    1.111   .     S
C735   C736    1.536   .     S
C735   H744    1.113   .     S
C736   H742    1.111   .     S
C736   H741    1.112   .     S
C736   C737    1.525   .     S
C737   H739    1.111   .     S
C737   H740    1.110   .     S
C737   H738    1.111   .     S
C745   C746    1.541   .     S
C745   H753    1.102   .     S
C745   H754    1.099   .     S
C746   H752    1.109   .     S
C746   C747    1.523   .     S
C746   H751    1.111   .     S
C747   H748    1.108   .     S
C747   H750    1.110   .     S
H749   C75     1.109   1_565 S
C755   H764    1.110   .     S
C755   C756    1.541   .     S
C755   H763    1.108   .     S
C756   H762    1.109   .     S
C756   C757    1.525   .     S
C756   H761    1.112   .     S
C757   H759    1.110   .     S
C757   H758    1.109   .     S
C757   H760    1.111   .     S
C765   C766    1.544   .     S
C765   H773    1.102   .     S
C765   H774    1.105   .     S
C766   H772    1.110   .     S
C766   H771    1.110   .     S
C766   C767    1.521   .     S
C767   H768    1.101   .     S
H769   C95     1.103   1_565 S
H770   C95     1.110   1_565 S
C775   H783    1.104   .     S
C775   H784    1.104   .     S
C775   C776    1.538   .     S
C776   H781    1.112   .     S
C776   C777    1.526   .     S
C776   H782    1.109   .     S
C777   H779    1.109   .     S
C777   H780    1.108   .     S
C777   H778    1.107   .     S
C785   C794    1.490   .     S
C785   O832    1.285   .     A
C785   O829    1.309   .     A
C786   O830    1.276   .     A
C786   O831    1.312   .     A
C786   C793    1.479   .     S
C787   C812    1.395   .     A
C787   H821    1.085   .     S
C787   C1821   1.399   1_554 S
C788   C811    1.399   .     A
C788   H822    1.085   .     S
C788   C1822   1.400   .     S
C789   C794    1.447   .     A
C789   C857    1.546   .     S
C790   C793    1.402   .     A
C790   C867    1.530   .     S
C790   C904    1.399   .     S
C791   C877    1.542   .     S
C791   C793    1.434   .     A
C791   C901    1.421   .     S
C792   C887    1.526   .     S
C792   C794    1.425   .     A
C795   N828    1.367   .     A
C795   H823    1.081   .     S
C796   N827    1.365   .     A
C796   H824    1.080   .     S
C796   C125    1.412   1_565 S
C797   H825    1.081   .     S
C797   N828    1.366   .     A
C798   H826    1.079   .     S
C798   N827    1.366   .     A
C798   C123    1.412   1_565 S
C799   O833    1.287   .     A
C799   C804    1.451   .     S
C799   O836    1.290   .     A
C800   O835    1.289   .     A
C800   C803    1.454   .     S
C800   O834    1.289   .     A
C801   C811    1.391   .     A
C801   H817    1.085   .     S
C801   C803    1.395   .     A
C802   C812    1.390   .     A
C802   H818    1.085   .     S
C802   C804    1.393   .     A
C803   C805    1.400   .     A
C804   C806    1.396   .     A
C805   H819    1.081   .     S
C805   C807    1.404   .     A
C806   C808    1.403   .     A
C806   H820    1.081   .     S
C807   C813    1.421   .     A
C807   C809    1.423   .     A
C808   C810    1.421   .     A
C808   C814    1.419   .     A
C809   C811    1.411   .     A
C809   C1818   1.404   .     S
C810   C812    1.410   .     A
C810   C1817   1.404   1_554 S
C813   C837    1.518   .     S
C813   C1795   1.399   .     S
C814   C847    1.518   .     S
C814   C1796   1.400   1_554 S
Cu815  N827    2.005   .     S
Cu815  O833    1.961   .     S
Cu815  Cu816   2.668   .     S
Cu815  O835    1.964   .     S
Cu815  O829    1.991   .     S
Cu815  O831    1.990   .     S
Cu816  O836    1.964   .     S
Cu816  O832    1.990   .     S
Cu816  N828    2.005   .     S
Cu816  O834    1.961   .     S
Cu816  O830    1.991   .     S
C837   C838    1.538   .     S
C837   H845    1.113   .     S
C837   H846    1.110   .     S
C838   H844    1.113   .     S
C838   H843    1.111   .     S
C838   C839    1.528   .     S
C839   H840    1.111   .     S
C839   H841    1.109   .     S
H842   C951    1.110   .     S
C847   H855    1.111   .     S
C847   C848    1.536   .     S
C847   H856    1.113   .     S
C848   H854    1.111   .     S
C848   H853    1.112   .     S
C848   C849    1.525   .     S
C849   H851    1.111   .     S
C849   H852    1.110   .     S
C849   H850    1.111   .     S
C857   C858    1.541   .     S
C857   H865    1.102   .     S
C857   H866    1.099   .     S
C858   H864    1.109   .     S
C858   C859    1.523   .     S
C858   H863    1.111   .     S
C859   H860    1.108   .     S
C859   H862    1.110   .     S
H861   C187    1.109   1_565 S
C867   H876    1.110   .     S
C867   C868    1.541   .     S
C867   H875    1.108   .     S
C868   H874    1.109   .     S
C868   C869    1.525   .     S
C868   H873    1.112   .     S
C869   H871    1.110   .     S
C869   H870    1.109   .     S
C869   H872    1.111   .     S
C877   C878    1.544   .     S
C877   H885    1.102   .     S
C877   H886    1.105   .     S
C878   H884    1.110   .     S
C878   H883    1.110   .     S
C878   C879    1.521   .     S
C879   H880    1.101   .     S
H881   C207    1.103   1_565 S
H882   C207    1.110   1_565 S
C887   H895    1.104   .     S
C887   H896    1.104   .     S
C887   C888    1.538   .     S
C888   H893    1.112   .     S
C888   C889    1.526   .     S
C888   H894    1.109   .     S
C889   H891    1.109   .     S
C889   H892    1.108   .     S
C889   H890    1.107   .     S
C897   C906    1.490   .     S
C897   O944    1.285   .     A
C897   O941    1.309   .     A
C898   O942    1.276   .     A
C898   O943    1.312   .     A
C898   C905    1.479   .     S
C899   C924    1.395   .     A
C899   H933    1.085   .     S
C899   C1933   1.399   1_554 S
C900   C923    1.399   .     A
C900   H934    1.085   .     S
C900   C1934   1.400   .     S
C901   C906    1.447   .     A
C901   C969    1.546   .     S
C902   C905    1.402   .     A
C902   C979    1.530   .     S
C902   C680    1.399   1_655 S
C903   C989    1.542   .     S
C903   C905    1.434   .     A
C903   C677    1.421   1_655 S
C904   C999    1.526   .     S
C904   C906    1.425   .     A
C907   N940    1.367   .     A
C907   H935    1.081   .     S
C908   N939    1.365   .     A
C908   H936    1.080   .     S
C908   C237    1.412   1_565 S
C909   H937    1.081   .     S
C909   N940    1.366   .     A
C910   H938    1.079   .     S
C910   N939    1.366   .     A
C910   C235    1.412   1_565 S
C911   O945    1.287   .     A
C911   C916    1.451   .     S
C911   O948    1.290   .     A
C912   O947    1.289   .     A
C912   C915    1.454   .     S
C912   O946    1.289   .     A
C913   C923    1.391   .     A
C913   H929    1.085   .     S
C913   C915    1.395   .     A
C914   C924    1.390   .     A
C914   H930    1.085   .     S
C914   C916    1.393   .     A
C915   C917    1.400   .     A
C916   C918    1.396   .     A
C917   H931    1.081   .     S
C917   C919    1.404   .     A
C918   C920    1.403   .     A
C918   H932    1.081   .     S
C919   C925    1.421   .     A
C919   C921    1.423   .     A
C920   C922    1.421   .     A
C920   C926    1.419   .     A
C921   C923    1.411   .     A
C921   C1930   1.404   .     S
C922   C924    1.410   .     A
C922   C1929   1.404   1_554 S
C925   C949    1.518   .     S
C925   C1907   1.399   .     S
C926   C959    1.518   .     S
C926   C1908   1.400   1_554 S
Cu927  N939    2.005   .     S
Cu927  O945    1.961   .     S
Cu927  Cu928   2.668   .     S
Cu927  O947    1.964   .     S
Cu927  O941    1.991   .     S
Cu927  O943    1.990   .     S
Cu928  O948    1.964   .     S
Cu928  O944    1.990   .     S
Cu928  N940    2.005   .     S
Cu928  O946    1.961   .     S
Cu928  O942    1.991   .     S
C949   C950    1.538   .     S
C949   H957    1.113   .     S
C949   H958    1.110   .     S
C950   H956    1.113   .     S
C950   H955    1.111   .     S
C950   C951    1.528   .     S
C951   H952    1.111   .     S
C951   H953    1.109   .     S
H954   C727    1.110   1_655 S
C959   H967    1.111   .     S
C959   C960    1.536   .     S
C959   H968    1.113   .     S
C960   H966    1.111   .     S
C960   H965    1.112   .     S
C960   C961    1.525   .     S
C961   H963    1.111   .     S
C961   H964    1.110   .     S
C961   H962    1.111   .     S
C969   C970    1.541   .     S
C969   H977    1.102   .     S
C969   H978    1.099   .     S
C970   H976    1.109   .     S
C970   C971    1.523   .     S
C970   H975    1.111   .     S
C971   H972    1.108   .     S
C971   H974    1.110   .     S
H973   C299    1.109   1_565 S
C979   H988    1.110   .     S
C979   C980    1.541   .     S
C979   H987    1.108   .     S
C980   H986    1.109   .     S
C980   C981    1.525   .     S
C980   H985    1.112   .     S
C981   H983    1.110   .     S
C981   H982    1.109   .     S
C981   H984    1.111   .     S
C989   C990    1.544   .     S
C989   H997    1.102   .     S
C989   H998    1.105   .     S
C990   H996    1.110   .     S
C990   H995    1.110   .     S
C990   C991    1.521   .     S
C991   H992    1.101   .     S
H993   C319    1.103   1_565 S
H994   C319    1.110   1_565 S
C999   H1007   1.104   .     S
C999   H1008   1.104   .     S
C999   C1000   1.538   .     S
C1000  H1005   1.112   .     S
C1000  C1001   1.526   .     S
C1000  H1006   1.109   .     S
C1001  H1003   1.109   .     S
C1001  H1004   1.108   .     S
C1001  H1002   1.107   .     S
C1009  C1018   1.490   .     S
C1009  O1056   1.285   .     A
C1009  O1053   1.309   .     A
C1010  O1054   1.276   .     A
C1010  O1055   1.312   .     A
C1010  C1017   1.479   .     S
C1011  C1036   1.395   .     A
C1011  H1045   1.085   .     S
C1012  C1035   1.399   .     A
C1012  H1046   1.085   .     S
C1012  C30     1.400   1_556 S
C1013  C1018   1.447   .     A
C1013  C1081   1.546   .     S
C1013  C1239   1.421   1_455 S
C1014  C1017   1.402   .     A
C1014  C1091   1.530   .     S
C1014  C1128   1.399   .     S
C1015  C1101   1.542   .     S
C1015  C1017   1.434   .     A
C1015  C1125   1.421   .     S
C1016  C1111   1.526   .     S
C1016  C1018   1.425   .     A
C1016  C1238   1.399   1_455 S
C1019  N1052   1.367   .     A
C1019  H1047   1.081   .     S
C1019  C1694   1.412   1_545 S
C1020  N1051   1.365   .     A
C1020  H1048   1.080   .     S
C1020  C1357   1.412   .     S
C1021  H1049   1.081   .     S
C1021  N1052   1.366   .     A
C1021  C1692   1.412   1_545 S
C1022  H1050   1.079   .     S
C1022  N1051   1.366   .     A
C1022  C1355   1.412   .     S
C1023  O1057   1.287   .     A
C1023  C1028   1.451   .     S
C1023  O1060   1.290   .     A
C1024  O1059   1.289   .     A
C1024  C1027   1.454   .     S
C1024  O1058   1.289   .     A
C1025  C1035   1.391   .     A
C1025  H1041   1.085   .     S
C1025  C1027   1.395   .     A
C1026  C1036   1.390   .     A
C1026  H1042   1.085   .     S
C1026  C1028   1.393   .     A
C1027  C1029   1.400   .     A
C1028  C1030   1.396   .     A
C1029  H1043   1.081   .     S
C1029  C1031   1.404   .     A
C1030  C1032   1.403   .     A
C1030  H1044   1.081   .     S
C1031  C1037   1.421   .     A
C1031  C1033   1.423   .     A
C1032  C1034   1.421   .     A
C1032  C1038   1.419   .     A
C1033  C1035   1.411   .     A
C1033  C26     1.404   1_556 S
C1034  C1036   1.410   .     A
C1037  C1061   1.518   .     S
C1037  C3      1.399   1_556 S
C1038  C1071   1.518   .     S
Cu1039 N1051   2.005   .     S
Cu1039 O1057   1.961   .     S
Cu1039 Cu1040  2.668   .     S
Cu1039 O1059   1.964   .     S
Cu1039 O1053   1.991   .     S
Cu1039 O1055   1.990   .     S
Cu1040 O1060   1.964   .     S
Cu1040 O1056   1.990   .     S
Cu1040 N1052   2.005   .     S
Cu1040 O1058   1.961   .     S
Cu1040 O1054   1.991   .     S
C1061  C1062   1.538   .     S
C1061  H1069   1.113   .     S
C1061  H1070   1.110   .     S
C1062  H1068   1.113   .     S
C1062  H1067   1.111   .     S
C1062  C1063   1.528   .     S
C1063  H1064   1.111   .     S
C1063  H1065   1.109   .     S
C1063  H1290   1.110   1_455 S
H1066  C1175   1.110   .     S
C1071  H1079   1.111   .     S
C1071  C1072   1.536   .     S
C1071  H1080   1.113   .     S
C1072  H1078   1.111   .     S
C1072  H1077   1.112   .     S
C1072  C1073   1.525   .     S
C1073  H1075   1.111   .     S
C1073  H1076   1.110   .     S
C1073  H1074   1.111   .     S
C1081  C1082   1.541   .     S
C1081  H1089   1.102   .     S
C1081  H1090   1.099   .     S
C1082  H1088   1.109   .     S
C1082  C1083   1.523   .     S
C1082  H1087   1.111   .     S
C1083  H1084   1.108   .     S
C1083  H1086   1.110   .     S
C1083  H1757   1.109   1_545 S
H1085  C1419   1.109   .     S
C1091  H1100   1.110   .     S
C1091  C1092   1.541   .     S
C1091  H1099   1.108   .     S
C1092  H1098   1.109   .     S
C1092  C1093   1.525   .     S
C1092  H1097   1.112   .     S
C1093  H1095   1.110   .     S
C1093  H1094   1.109   .     S
C1093  H1096   1.111   .     S
C1101  C1102   1.544   .     S
C1101  H1109   1.102   .     S
C1101  H1110   1.105   .     S
C1102  H1108   1.110   .     S
C1102  H1107   1.110   .     S
C1102  C1103   1.521   .     S
C1103  H1104   1.101   .     S
C1103  H1777   1.103   1_545 S
C1103  H1778   1.110   1_545 S
H1105  C1439   1.103   .     S
H1106  C1439   1.110   .     S
C1111  H1119   1.104   .     S
C1111  H1120   1.104   .     S
C1111  C1112   1.538   .     S
C1112  H1117   1.112   .     S
C1112  C1113   1.526   .     S
C1112  H1118   1.109   .     S
C1113  H1115   1.109   .     S
C1113  H1116   1.108   .     S
C1113  H1114   1.107   .     S
C1121  C1130   1.490   .     S
C1121  O1168   1.285   .     A
C1121  O1165   1.309   .     A
C1122  O1166   1.276   .     A
C1122  O1167   1.312   .     A
C1122  C1129   1.479   .     S
C1123  C1148   1.395   .     A
C1123  H1157   1.085   .     S
C1124  C1147   1.399   .     A
C1124  H1158   1.085   .     S
C1124  C142    1.400   1_556 S
C1125  C1130   1.447   .     A
C1125  C1193   1.546   .     S
C1126  C1129   1.402   .     A
C1126  C1203   1.530   .     S
C1126  C1240   1.399   .     S
C1127  C1213   1.542   .     S
C1127  C1129   1.434   .     A
C1127  C1237   1.421   .     S
C1128  C1223   1.526   .     S
C1128  C1130   1.425   .     A
C1131  N1164   1.367   .     A
C1131  H1159   1.081   .     S
C1131  C1806   1.412   1_545 S
C1132  N1163   1.365   .     A
C1132  H1160   1.080   .     S
C1132  C1469   1.412   .     S
C1133  H1161   1.081   .     S
C1133  N1164   1.366   .     A
C1133  C1804   1.412   1_545 S
C1134  H1162   1.079   .     S
C1134  N1163   1.366   .     A
C1134  C1467   1.412   .     S
C1135  O1169   1.287   .     A
C1135  C1140   1.451   .     S
C1135  O1172   1.290   .     A
C1136  O1171   1.289   .     A
C1136  C1139   1.454   .     S
C1136  O1170   1.289   .     A
C1137  C1147   1.391   .     A
C1137  H1153   1.085   .     S
C1137  C1139   1.395   .     A
C1138  C1148   1.390   .     A
C1138  H1154   1.085   .     S
C1138  C1140   1.393   .     A
C1139  C1141   1.400   .     A
C1140  C1142   1.396   .     A
C1141  H1155   1.081   .     S
C1141  C1143   1.404   .     A
C1142  C1144   1.403   .     A
C1142  H1156   1.081   .     S
C1143  C1149   1.421   .     A
C1143  C1145   1.423   .     A
C1144  C1146   1.421   .     A
C1144  C1150   1.419   .     A
C1145  C1147   1.411   .     A
C1145  C138    1.404   1_556 S
C1146  C1148   1.410   .     A
C1149  C1173   1.518   .     S
C1149  C115    1.399   1_556 S
C1150  C1183   1.518   .     S
Cu1151 N1163   2.005   .     S
Cu1151 O1169   1.961   .     S
Cu1151 Cu1152  2.668   .     S
Cu1151 O1171   1.964   .     S
Cu1151 O1165   1.991   .     S
Cu1151 O1167   1.990   .     S
Cu1152 O1172   1.964   .     S
Cu1152 O1168   1.990   .     S
Cu1152 N1164   2.005   .     S
Cu1152 O1170   1.961   .     S
Cu1152 O1166   1.991   .     S
C1173  C1174   1.538   .     S
C1173  H1181   1.113   .     S
C1173  H1182   1.110   .     S
C1174  H1180   1.113   .     S
C1174  H1179   1.111   .     S
C1174  C1175   1.528   .     S
C1175  H1176   1.111   .     S
C1175  H1177   1.109   .     S
H1178  C1287   1.110   .     S
C1183  H1191   1.111   .     S
C1183  C1184   1.536   .     S
C1183  H1192   1.113   .     S
C1184  H1190   1.111   .     S
C1184  H1189   1.112   .     S
C1184  C1185   1.525   .     S
C1185  H1187   1.111   .     S
C1185  H1188   1.110   .     S
C1185  H1186   1.111   .     S
C1193  C1194   1.541   .     S
C1193  H1201   1.102   .     S
C1193  H1202   1.099   .     S
C1194  H1200   1.109   .     S
C1194  C1195   1.523   .     S
C1194  H1199   1.111   .     S
C1195  H1196   1.108   .     S
C1195  H1198   1.110   .     S
C1195  H1869   1.109   1_545 S
H1197  C1531   1.109   .     S
C1203  H1212   1.110   .     S
C1203  C1204   1.541   .     S
C1203  H1211   1.108   .     S
C1204  H1210   1.109   .     S
C1204  C1205   1.525   .     S
C1204  H1209   1.112   .     S
C1205  H1207   1.110   .     S
C1205  H1206   1.109   .     S
C1205  H1208   1.111   .     S
C1213  C1214   1.544   .     S
C1213  H1221   1.102   .     S
C1213  H1222   1.105   .     S
C1214  H1220   1.110   .     S
C1214  H1219   1.110   .     S
C1214  C1215   1.521   .     S
C1215  H1216   1.101   .     S
C1215  H1889   1.103   1_545 S
C1215  H1890   1.110   1_545 S
H1217  C1551   1.103   .     S
H1218  C1551   1.110   .     S
C1223  H1231   1.104   .     S
C1223  H1232   1.104   .     S
C1223  C1224   1.538   .     S
C1224  H1229   1.112   .     S
C1224  C1225   1.526   .     S
C1224  H1230   1.109   .     S
C1225  H1227   1.109   .     S
C1225  H1228   1.108   .     S
C1225  H1226   1.107   .     S
C1233  C1242   1.490   .     S
C1233  O1280   1.285   .     A
C1233  O1277   1.309   .     A
C1234  O1278   1.276   .     A
C1234  O1279   1.312   .     A
C1234  C1241   1.479   .     S
C1235  C1260   1.395   .     A
C1235  H1269   1.085   .     S
C1236  C1259   1.399   .     A
C1236  H1270   1.085   .     S
C1236  C254    1.400   1_556 S
C1237  C1242   1.447   .     A
C1237  C1305   1.546   .     S
C1238  C1241   1.402   .     A
C1238  C1315   1.530   .     S
C1238  C1016   1.399   1_655 S
C1239  C1325   1.542   .     S
C1239  C1241   1.434   .     A
C1239  C1013   1.421   1_655 S
C1240  C1335   1.526   .     S
C1240  C1242   1.425   .     A
C1243  N1276   1.367   .     A
C1243  H1271   1.081   .     S
C1243  C1918   1.412   1_545 S
C1244  N1275   1.365   .     A
C1244  H1272   1.080   .     S
C1244  C1581   1.412   .     S
C1245  H1273   1.081   .     S
C1245  N1276   1.366   .     A
C1245  C1916   1.412   1_545 S
C1246  H1274   1.079   .     S
C1246  N1275   1.366   .     A
C1246  C1579   1.412   .     S
C1247  O1281   1.287   .     A
C1247  C1252   1.451   .     S
C1247  O1284   1.290   .     A
C1248  O1283   1.289   .     A
C1248  C1251   1.454   .     S
C1248  O1282   1.289   .     A
C1249  C1259   1.391   .     A
C1249  H1265   1.085   .     S
C1249  C1251   1.395   .     A
C1250  C1260   1.390   .     A
C1250  H1266   1.085   .     S
C1250  C1252   1.393   .     A
C1251  C1253   1.400   .     A
C1252  C1254   1.396   .     A
C1253  H1267   1.081   .     S
C1253  C1255   1.404   .     A
C1254  C1256   1.403   .     A
C1254  H1268   1.081   .     S
C1255  C1261   1.421   .     A
C1255  C1257   1.423   .     A
C1256  C1258   1.421   .     A
C1256  C1262   1.419   .     A
C1257  C1259   1.411   .     A
C1257  C250    1.404   1_556 S
C1258  C1260   1.410   .     A
C1261  C1285   1.518   .     S
C1261  C227    1.399   1_556 S
C1262  C1295   1.518   .     S
Cu1263 N1275   2.005   .     S
Cu1263 O1281   1.961   .     S
Cu1263 Cu1264  2.668   .     S
Cu1263 O1283   1.964   .     S
Cu1263 O1277   1.991   .     S
Cu1263 O1279   1.990   .     S
Cu1264 O1284   1.964   .     S
Cu1264 O1280   1.990   .     S
Cu1264 N1276   2.005   .     S
Cu1264 O1282   1.961   .     S
Cu1264 O1278   1.991   .     S
C1285  C1286   1.538   .     S
C1285  H1293   1.113   .     S
C1285  H1294   1.110   .     S
C1286  H1292   1.113   .     S
C1286  H1291   1.111   .     S
C1286  C1287   1.528   .     S
C1287  H1288   1.111   .     S
C1287  H1289   1.109   .     S
H1290  C1063   1.110   1_655 S
C1295  H1303   1.111   .     S
C1295  C1296   1.536   .     S
C1295  H1304   1.113   .     S
C1296  H1302   1.111   .     S
C1296  H1301   1.112   .     S
C1296  C1297   1.525   .     S
C1297  H1299   1.111   .     S
C1297  H1300   1.110   .     S
C1297  H1298   1.111   .     S
C1305  C1306   1.541   .     S
C1305  H1313   1.102   .     S
C1305  H1314   1.099   .     S
C1306  H1312   1.109   .     S
C1306  C1307   1.523   .     S
C1306  H1311   1.111   .     S
C1307  H1308   1.108   .     S
C1307  H1310   1.110   .     S
C1307  H1981   1.109   1_545 S
H1309  C1643   1.109   .     S
C1315  H1324   1.110   .     S
C1315  C1316   1.541   .     S
C1315  H1323   1.108   .     S
C1316  H1322   1.109   .     S
C1316  C1317   1.525   .     S
C1316  H1321   1.112   .     S
C1317  H1319   1.110   .     S
C1317  H1318   1.109   .     S
C1317  H1320   1.111   .     S
C1325  C1326   1.544   .     S
C1325  H1333   1.102   .     S
C1325  H1334   1.105   .     S
C1326  H1332   1.110   .     S
C1326  H1331   1.110   .     S
C1326  C1327   1.521   .     S
C1327  H1328   1.101   .     S
C1327  H2001   1.103   1_545 S
C1327  H2002   1.110   1_545 S
H1329  C1663   1.103   .     S
H1330  C1663   1.110   .     S
C1335  H1343   1.104   .     S
C1335  H1344   1.104   .     S
C1335  C1336   1.538   .     S
C1336  H1341   1.112   .     S
C1336  C1337   1.526   .     S
C1336  H1342   1.109   .     S
C1337  H1339   1.109   .     S
C1337  H1340   1.108   .     S
C1337  H1338   1.107   .     S
C1345  C1354   1.490   .     S
C1345  O1392   1.285   .     A
C1345  O1389   1.309   .     A
C1346  O1390   1.276   .     A
C1346  O1391   1.312   .     A
C1346  C1353   1.479   .     S
C1347  C1372   1.395   .     A
C1347  H1381   1.085   .     S
C1348  C1371   1.399   .     A
C1348  H1382   1.085   .     S
C1348  C366    1.400   1_556 S
C1349  C1354   1.447   .     A
C1349  C1417   1.546   .     S
C1349  C1575   1.421   1_455 S
C1350  C1353   1.402   .     A
C1350  C1427   1.530   .     S
C1350  C1464   1.399   .     S
C1351  C1437   1.542   .     S
C1351  C1353   1.434   .     A
C1351  C1461   1.421   .     S
C1352  C1447   1.526   .     S
C1352  C1354   1.425   .     A
C1352  C1574   1.399   1_455 S
C1355  N1388   1.367   .     A
C1355  H1383   1.081   .     S
C1356  N1387   1.365   .     A
C1356  H1384   1.080   .     S
C1356  C1693   1.412   .     S
C1357  H1385   1.081   .     S
C1357  N1388   1.366   .     A
C1358  H1386   1.079   .     S
C1358  N1387   1.366   .     A
C1358  C1691   1.412   .     S
C1359  O1393   1.287   .     A
C1359  C1364   1.451   .     S
C1359  O1396   1.290   .     A
C1360  O1395   1.289   .     A
C1360  C1363   1.454   .     S
C1360  O1394   1.289   .     A
C1361  C1371   1.391   .     A
C1361  H1377   1.085   .     S
C1361  C1363   1.395   .     A
C1362  C1372   1.390   .     A
C1362  H1378   1.085   .     S
C1362  C1364   1.393   .     A
C1363  C1365   1.400   .     A
C1364  C1366   1.396   .     A
C1365  H1379   1.081   .     S
C1365  C1367   1.404   .     A
C1366  C1368   1.403   .     A
C1366  H1380   1.081   .     S
C1367  C1373   1.421   .     A
C1367  C1369   1.423   .     A
C1368  C1370   1.421   .     A
C1368  C1374   1.419   .     A
C1369  C1371   1.411   .     A
C1369  C362    1.404   1_556 S
C1370  C1372   1.410   .     A
C1373  C1397   1.518   .     S
C1373  C339    1.399   1_556 S
C1374  C1407   1.518   .     S
Cu1375 N1387   2.005   .     S
Cu1375 O1393   1.961   .     S
Cu1375 Cu1376  2.668   .     S
Cu1375 O1395   1.964   .     S
Cu1375 O1389   1.991   .     S
Cu1375 O1391   1.990   .     S
Cu1376 O1396   1.964   .     S
Cu1376 O1392   1.990   .     S
Cu1376 N1388   2.005   .     S
Cu1376 O1394   1.961   .     S
Cu1376 O1390   1.991   .     S
C1397  C1398   1.538   .     S
C1397  H1405   1.113   .     S
C1397  H1406   1.110   .     S
C1398  H1404   1.113   .     S
C1398  H1403   1.111   .     S
C1398  C1399   1.528   .     S
C1399  H1400   1.111   .     S
C1399  H1401   1.109   .     S
C1399  H1626   1.110   1_455 S
H1402  C1511   1.110   .     S
C1407  H1415   1.111   .     S
C1407  C1408   1.536   .     S
C1407  H1416   1.113   .     S
C1408  H1414   1.111   .     S
C1408  H1413   1.112   .     S
C1408  C1409   1.525   .     S
C1409  H1411   1.111   .     S
C1409  H1412   1.110   .     S
C1409  H1410   1.111   .     S
C1417  C1418   1.541   .     S
C1417  H1425   1.102   .     S
C1417  H1426   1.099   .     S
C1418  H1424   1.109   .     S
C1418  C1419   1.523   .     S
C1418  H1423   1.111   .     S
C1419  H1420   1.108   .     S
C1419  H1422   1.110   .     S
H1421  C1755   1.109   .     S
C1427  H1436   1.110   .     S
C1427  C1428   1.541   .     S
C1427  H1435   1.108   .     S
C1428  H1434   1.109   .     S
C1428  C1429   1.525   .     S
C1428  H1433   1.112   .     S
C1429  H1431   1.110   .     S
C1429  H1430   1.109   .     S
C1429  H1432   1.111   .     S
C1437  C1438   1.544   .     S
C1437  H1445   1.102   .     S
C1437  H1446   1.105   .     S
C1438  H1444   1.110   .     S
C1438  H1443   1.110   .     S
C1438  C1439   1.521   .     S
C1439  H1440   1.101   .     S
H1441  C1775   1.103   .     S
H1442  C1775   1.110   .     S
C1447  H1455   1.104   .     S
C1447  H1456   1.104   .     S
C1447  C1448   1.538   .     S
C1448  H1453   1.112   .     S
C1448  C1449   1.526   .     S
C1448  H1454   1.109   .     S
C1449  H1451   1.109   .     S
C1449  H1452   1.108   .     S
C1449  H1450   1.107   .     S
C1457  C1466   1.490   .     S
C1457  O1504   1.285   .     A
C1457  O1501   1.309   .     A
C1458  O1502   1.276   .     A
C1458  O1503   1.312   .     A
C1458  C1465   1.479   .     S
C1459  C1484   1.395   .     A
C1459  H1493   1.085   .     S
C1460  C1483   1.399   .     A
C1460  H1494   1.085   .     S
C1460  C478    1.400   1_556 S
C1461  C1466   1.447   .     A
C1461  C1529   1.546   .     S
C1462  C1465   1.402   .     A
C1462  C1539   1.530   .     S
C1462  C1576   1.399   .     S
C1463  C1549   1.542   .     S
C1463  C1465   1.434   .     A
C1463  C1573   1.421   .     S
C1464  C1559   1.526   .     S
C1464  C1466   1.425   .     A
C1467  N1500   1.367   .     A
C1467  H1495   1.081   .     S
C1468  N1499   1.365   .     A
C1468  H1496   1.080   .     S
C1468  C1805   1.412   .     S
C1469  H1497   1.081   .     S
C1469  N1500   1.366   .     A
C1470  H1498   1.079   .     S
C1470  N1499   1.366   .     A
C1470  C1803   1.412   .     S
C1471  O1505   1.287   .     A
C1471  C1476   1.451   .     S
C1471  O1508   1.290   .     A
C1472  O1507   1.289   .     A
C1472  C1475   1.454   .     S
C1472  O1506   1.289   .     A
C1473  C1483   1.391   .     A
C1473  H1489   1.085   .     S
C1473  C1475   1.395   .     A
C1474  C1484   1.390   .     A
C1474  H1490   1.085   .     S
C1474  C1476   1.393   .     A
C1475  C1477   1.400   .     A
C1476  C1478   1.396   .     A
C1477  H1491   1.081   .     S
C1477  C1479   1.404   .     A
C1478  C1480   1.403   .     A
C1478  H1492   1.081   .     S
C1479  C1485   1.421   .     A
C1479  C1481   1.423   .     A
C1480  C1482   1.421   .     A
C1480  C1486   1.419   .     A
C1481  C1483   1.411   .     A
C1481  C474    1.404   1_556 S
C1482  C1484   1.410   .     A
C1485  C1509   1.518   .     S
C1485  C451    1.399   1_556 S
C1486  C1519   1.518   .     S
Cu1487 N1499   2.005   .     S
Cu1487 O1505   1.961   .     S
Cu1487 Cu1488  2.668   .     S
Cu1487 O1507   1.964   .     S
Cu1487 O1501   1.991   .     S
Cu1487 O1503   1.990   .     S
Cu1488 O1508   1.964   .     S
Cu1488 O1504   1.990   .     S
Cu1488 N1500   2.005   .     S
Cu1488 O1506   1.961   .     S
Cu1488 O1502   1.991   .     S
C1509  C1510   1.538   .     S
C1509  H1517   1.113   .     S
C1509  H1518   1.110   .     S
C1510  H1516   1.113   .     S
C1510  H1515   1.111   .     S
C1510  C1511   1.528   .     S
C1511  H1512   1.111   .     S
C1511  H1513   1.109   .     S
H1514  C1623   1.110   .     S
C1519  H1527   1.111   .     S
C1519  C1520   1.536   .     S
C1519  H1528   1.113   .     S
C1520  H1526   1.111   .     S
C1520  H1525   1.112   .     S
C1520  C1521   1.525   .     S
C1521  H1523   1.111   .     S
C1521  H1524   1.110   .     S
C1521  H1522   1.111   .     S
C1529  C1530   1.541   .     S
C1529  H1537   1.102   .     S
C1529  H1538   1.099   .     S
C1530  H1536   1.109   .     S
C1530  C1531   1.523   .     S
C1530  H1535   1.111   .     S
C1531  H1532   1.108   .     S
C1531  H1534   1.110   .     S
H1533  C1867   1.109   .     S
C1539  H1548   1.110   .     S
C1539  C1540   1.541   .     S
C1539  H1547   1.108   .     S
C1540  H1546   1.109   .     S
C1540  C1541   1.525   .     S
C1540  H1545   1.112   .     S
C1541  H1543   1.110   .     S
C1541  H1542   1.109   .     S
C1541  H1544   1.111   .     S
C1549  C1550   1.544   .     S
C1549  H1557   1.102   .     S
C1549  H1558   1.105   .     S
C1550  H1556   1.110   .     S
C1550  H1555   1.110   .     S
C1550  C1551   1.521   .     S
C1551  H1552   1.101   .     S
H1553  C1887   1.103   .     S
H1554  C1887   1.110   .     S
C1559  H1567   1.104   .     S
C1559  H1568   1.104   .     S
C1559  C1560   1.538   .     S
C1560  H1565   1.112   .     S
C1560  C1561   1.526   .     S
C1560  H1566   1.109   .     S
C1561  H1563   1.109   .     S
C1561  H1564   1.108   .     S
C1561  H1562   1.107   .     S
C1569  C1578   1.490   .     S
C1569  O1616   1.285   .     A
C1569  O1613   1.309   .     A
C1570  O1614   1.276   .     A
C1570  O1615   1.312   .     A
C1570  C1577   1.479   .     S
C1571  C1596   1.395   .     A
C1571  H1605   1.085   .     S
C1572  C1595   1.399   .     A
C1572  H1606   1.085   .     S
C1572  C590    1.400   1_556 S
C1573  C1578   1.447   .     A
C1573  C1641   1.546   .     S
C1574  C1577   1.402   .     A
C1574  C1651   1.530   .     S
C1574  C1352   1.399   1_655 S
C1575  C1661   1.542   .     S
C1575  C1577   1.434   .     A
C1575  C1349   1.421   1_655 S
C1576  C1671   1.526   .     S
C1576  C1578   1.425   .     A
C1579  N1612   1.367   .     A
C1579  H1607   1.081   .     S
C1580  N1611   1.365   .     A
C1580  H1608   1.080   .     S
C1580  C1917   1.412   .     S
C1581  H1609   1.081   .     S
C1581  N1612   1.366   .     A
C1582  H1610   1.079   .     S
C1582  N1611   1.366   .     A
C1582  C1915   1.412   .     S
C1583  O1617   1.287   .     A
C1583  C1588   1.451   .     S
C1583  O1620   1.290   .     A
C1584  O1619   1.289   .     A
C1584  C1587   1.454   .     S
C1584  O1618   1.289   .     A
C1585  C1595   1.391   .     A
C1585  H1601   1.085   .     S
C1585  C1587   1.395   .     A
C1586  C1596   1.390   .     A
C1586  H1602   1.085   .     S
C1586  C1588   1.393   .     A
C1587  C1589   1.400   .     A
C1588  C1590   1.396   .     A
C1589  H1603   1.081   .     S
C1589  C1591   1.404   .     A
C1590  C1592   1.403   .     A
C1590  H1604   1.081   .     S
C1591  C1597   1.421   .     A
C1591  C1593   1.423   .     A
C1592  C1594   1.421   .     A
C1592  C1598   1.419   .     A
C1593  C1595   1.411   .     A
C1593  C586    1.404   1_556 S
C1594  C1596   1.410   .     A
C1597  C1621   1.518   .     S
C1597  C563    1.399   1_556 S
C1598  C1631   1.518   .     S
Cu1599 N1611   2.005   .     S
Cu1599 O1617   1.961   .     S
Cu1599 Cu1600  2.668   .     S
Cu1599 O1619   1.964   .     S
Cu1599 O1613   1.991   .     S
Cu1599 O1615   1.990   .     S
Cu1600 O1620   1.964   .     S
Cu1600 O1616   1.990   .     S
Cu1600 N1612   2.005   .     S
Cu1600 O1618   1.961   .     S
Cu1600 O1614   1.991   .     S
C1621  C1622   1.538   .     S
C1621  H1629   1.113   .     S
C1621  H1630   1.110   .     S
C1622  H1628   1.113   .     S
C1622  H1627   1.111   .     S
C1622  C1623   1.528   .     S
C1623  H1624   1.111   .     S
C1623  H1625   1.109   .     S
H1626  C1399   1.110   1_655 S
C1631  H1639   1.111   .     S
C1631  C1632   1.536   .     S
C1631  H1640   1.113   .     S
C1632  H1638   1.111   .     S
C1632  H1637   1.112   .     S
C1632  C1633   1.525   .     S
C1633  H1635   1.111   .     S
C1633  H1636   1.110   .     S
C1633  H1634   1.111   .     S
C1641  C1642   1.541   .     S
C1641  H1649   1.102   .     S
C1641  H1650   1.099   .     S
C1642  H1648   1.109   .     S
C1642  C1643   1.523   .     S
C1642  H1647   1.111   .     S
C1643  H1644   1.108   .     S
C1643  H1646   1.110   .     S
H1645  C1979   1.109   .     S
C1651  H1660   1.110   .     S
C1651  C1652   1.541   .     S
C1651  H1659   1.108   .     S
C1652  H1658   1.109   .     S
C1652  C1653   1.525   .     S
C1652  H1657   1.112   .     S
C1653  H1655   1.110   .     S
C1653  H1654   1.109   .     S
C1653  H1656   1.111   .     S
C1661  C1662   1.544   .     S
C1661  H1669   1.102   .     S
C1661  H1670   1.105   .     S
C1662  H1668   1.110   .     S
C1662  H1667   1.110   .     S
C1662  C1663   1.521   .     S
C1663  H1664   1.101   .     S
H1665  C1999   1.103   .     S
H1666  C1999   1.110   .     S
C1671  H1679   1.104   .     S
C1671  H1680   1.104   .     S
C1671  C1672   1.538   .     S
C1672  H1677   1.112   .     S
C1672  C1673   1.526   .     S
C1672  H1678   1.109   .     S
C1673  H1675   1.109   .     S
C1673  H1676   1.108   .     S
C1673  H1674   1.107   .     S
C1681  C1690   1.490   .     S
C1681  O1728   1.285   .     A
C1681  O1725   1.309   .     A
C1682  O1726   1.276   .     A
C1682  O1727   1.312   .     A
C1682  C1689   1.479   .     S
C1683  C1708   1.395   .     A
C1683  H1717   1.085   .     S
C1684  C1707   1.399   .     A
C1684  H1718   1.085   .     S
C1684  C702    1.400   1_556 S
C1685  C1690   1.447   .     A
C1685  C1753   1.546   .     S
C1685  C1911   1.421   1_455 S
C1686  C1689   1.402   .     A
C1686  C1763   1.530   .     S
C1686  C1800   1.399   .     S
C1687  C1773   1.542   .     S
C1687  C1689   1.434   .     A
C1687  C1797   1.421   .     S
C1688  C1783   1.526   .     S
C1688  C1690   1.425   .     A
C1688  C1910   1.399   1_455 S
C1691  N1724   1.367   .     A
C1691  H1719   1.081   .     S
C1692  N1723   1.365   .     A
C1692  H1720   1.080   .     S
C1692  C1021   1.412   1_565 S
C1693  H1721   1.081   .     S
C1693  N1724   1.366   .     A
C1694  H1722   1.079   .     S
C1694  N1723   1.366   .     A
C1694  C1019   1.412   1_565 S
C1695  O1729   1.287   .     A
C1695  C1700   1.451   .     S
C1695  O1732   1.290   .     A
C1696  O1731   1.289   .     A
C1696  C1699   1.454   .     S
C1696  O1730   1.289   .     A
C1697  C1707   1.391   .     A
C1697  H1713   1.085   .     S
C1697  C1699   1.395   .     A
C1698  C1708   1.390   .     A
C1698  H1714   1.085   .     S
C1698  C1700   1.393   .     A
C1699  C1701   1.400   .     A
C1700  C1702   1.396   .     A
C1701  H1715   1.081   .     S
C1701  C1703   1.404   .     A
C1702  C1704   1.403   .     A
C1702  H1716   1.081   .     S
C1703  C1709   1.421   .     A
C1703  C1705   1.423   .     A
C1704  C1706   1.421   .     A
C1704  C1710   1.419   .     A
C1705  C1707   1.411   .     A
C1705  C698    1.404   1_556 S
C1706  C1708   1.410   .     A
C1709  C1733   1.518   .     S
C1709  C675    1.399   1_556 S
C1710  C1743   1.518   .     S
Cu1711 N1723   2.005   .     S
Cu1711 O1729   1.961   .     S
Cu1711 Cu1712  2.668   .     S
Cu1711 O1731   1.964   .     S
Cu1711 O1725   1.991   .     S
Cu1711 O1727   1.990   .     S
Cu1712 O1732   1.964   .     S
Cu1712 O1728   1.990   .     S
Cu1712 N1724   2.005   .     S
Cu1712 O1730   1.961   .     S
Cu1712 O1726   1.991   .     S
C1733  C1734   1.538   .     S
C1733  H1741   1.113   .     S
C1733  H1742   1.110   .     S
C1734  H1740   1.113   .     S
C1734  H1739   1.111   .     S
C1734  C1735   1.528   .     S
C1735  H1736   1.111   .     S
C1735  H1737   1.109   .     S
C1735  H1962   1.110   1_455 S
H1738  C1847   1.110   .     S
C1743  H1751   1.111   .     S
C1743  C1744   1.536   .     S
C1743  H1752   1.113   .     S
C1744  H1750   1.111   .     S
C1744  H1749   1.112   .     S
C1744  C1745   1.525   .     S
C1745  H1747   1.111   .     S
C1745  H1748   1.110   .     S
C1745  H1746   1.111   .     S
C1753  C1754   1.541   .     S
C1753  H1761   1.102   .     S
C1753  H1762   1.099   .     S
C1754  H1760   1.109   .     S
C1754  C1755   1.523   .     S
C1754  H1759   1.111   .     S
C1755  H1756   1.108   .     S
C1755  H1758   1.110   .     S
H1757  C1083   1.109   1_565 S
C1763  H1772   1.110   .     S
C1763  C1764   1.541   .     S
C1763  H1771   1.108   .     S
C1764  H1770   1.109   .     S
C1764  C1765   1.525   .     S
C1764  H1769   1.112   .     S
C1765  H1767   1.110   .     S
C1765  H1766   1.109   .     S
C1765  H1768   1.111   .     S
C1773  C1774   1.544   .     S
C1773  H1781   1.102   .     S
C1773  H1782   1.105   .     S
C1774  H1780   1.110   .     S
C1774  H1779   1.110   .     S
C1774  C1775   1.521   .     S
C1775  H1776   1.101   .     S
H1777  C1103   1.103   1_565 S
H1778  C1103   1.110   1_565 S
C1783  H1791   1.104   .     S
C1783  H1792   1.104   .     S
C1783  C1784   1.538   .     S
C1784  H1789   1.112   .     S
C1784  C1785   1.526   .     S
C1784  H1790   1.109   .     S
C1785  H1787   1.109   .     S
C1785  H1788   1.108   .     S
C1785  H1786   1.107   .     S
C1793  C1802   1.490   .     S
C1793  O1840   1.285   .     A
C1793  O1837   1.309   .     A
C1794  O1838   1.276   .     A
C1794  O1839   1.312   .     A
C1794  C1801   1.479   .     S
C1795  C1820   1.395   .     A
C1795  H1829   1.085   .     S
C1796  C1819   1.399   .     A
C1796  H1830   1.085   .     S
C1796  C814    1.400   1_556 S
C1797  C1802   1.447   .     A
C1797  C1865   1.546   .     S
C1798  C1801   1.402   .     A
C1798  C1875   1.530   .     S
C1798  C1912   1.399   .     S
C1799  C1885   1.542   .     S
C1799  C1801   1.434   .     A
C1799  C1909   1.421   .     S
C1800  C1895   1.526   .     S
C1800  C1802   1.425   .     A
C1803  N1836   1.367   .     A
C1803  H1831   1.081   .     S
C1804  N1835   1.365   .     A
C1804  H1832   1.080   .     S
C1804  C1133   1.412   1_565 S
C1805  H1833   1.081   .     S
C1805  N1836   1.366   .     A
C1806  H1834   1.079   .     S
C1806  N1835   1.366   .     A
C1806  C1131   1.412   1_565 S
C1807  O1841   1.287   .     A
C1807  C1812   1.451   .     S
C1807  O1844   1.290   .     A
C1808  O1843   1.289   .     A
C1808  C1811   1.454   .     S
C1808  O1842   1.289   .     A
C1809  C1819   1.391   .     A
C1809  H1825   1.085   .     S
C1809  C1811   1.395   .     A
C1810  C1820   1.390   .     A
C1810  H1826   1.085   .     S
C1810  C1812   1.393   .     A
C1811  C1813   1.400   .     A
C1812  C1814   1.396   .     A
C1813  H1827   1.081   .     S
C1813  C1815   1.404   .     A
C1814  C1816   1.403   .     A
C1814  H1828   1.081   .     S
C1815  C1821   1.421   .     A
C1815  C1817   1.423   .     A
C1816  C1818   1.421   .     A
C1816  C1822   1.419   .     A
C1817  C1819   1.411   .     A
C1817  C810    1.404   1_556 S
C1818  C1820   1.410   .     A
C1821  C1845   1.518   .     S
C1821  C787    1.399   1_556 S
C1822  C1855   1.518   .     S
Cu1823 N1835   2.005   .     S
Cu1823 O1841   1.961   .     S
Cu1823 Cu1824  2.668   .     S
Cu1823 O1843   1.964   .     S
Cu1823 O1837   1.991   .     S
Cu1823 O1839   1.990   .     S
Cu1824 O1844   1.964   .     S
Cu1824 O1840   1.990   .     S
Cu1824 N1836   2.005   .     S
Cu1824 O1842   1.961   .     S
Cu1824 O1838   1.991   .     S
C1845  C1846   1.538   .     S
C1845  H1853   1.113   .     S
C1845  H1854   1.110   .     S
C1846  H1852   1.113   .     S
C1846  H1851   1.111   .     S
C1846  C1847   1.528   .     S
C1847  H1848   1.111   .     S
C1847  H1849   1.109   .     S
H1850  C1959   1.110   .     S
C1855  H1863   1.111   .     S
C1855  C1856   1.536   .     S
C1855  H1864   1.113   .     S
C1856  H1862   1.111   .     S
C1856  H1861   1.112   .     S
C1856  C1857   1.525   .     S
C1857  H1859   1.111   .     S
C1857  H1860   1.110   .     S
C1857  H1858   1.111   .     S
C1865  C1866   1.541   .     S
C1865  H1873   1.102   .     S
C1865  H1874   1.099   .     S
C1866  H1872   1.109   .     S
C1866  C1867   1.523   .     S
C1866  H1871   1.111   .     S
C1867  H1868   1.108   .     S
C1867  H1870   1.110   .     S
H1869  C1195   1.109   1_565 S
C1875  H1884   1.110   .     S
C1875  C1876   1.541   .     S
C1875  H1883   1.108   .     S
C1876  H1882   1.109   .     S
C1876  C1877   1.525   .     S
C1876  H1881   1.112   .     S
C1877  H1879   1.110   .     S
C1877  H1878   1.109   .     S
C1877  H1880   1.111   .     S
C1885  C1886   1.544   .     S
C1885  H1893   1.102   .     S
C1885  H1894   1.105   .     S
C1886  H1892   1.110   .     S
C1886  H1891   1.110   .     S
C1886  C1887   1.521   .     S
C1887  H1888   1.101   .     S
H1889  C1215   1.103   1_565 S
H1890  C1215   1.110   1_565 S
C1895  H1903   1.104   .     S
C1895  H1904   1.104   .     S
C1895  C1896   1.538   .     S
C1896  H1901   1.112   .     S
C1896  C1897   1.526   .     S
C1896  H1902   1.109   .     S
C1897  H1899   1.109   .     S
C1897  H1900   1.108   .     S
C1897  H1898   1.107   .     S
C1905  C1914   1.490   .     S
C1905  O1952   1.285   .     A
C1905  O1949   1.309   .     A
C1906  O1950   1.276   .     A
C1906  O1951   1.312   .     A
C1906  C1913   1.479   .     S
C1907  C1932   1.395   .     A
C1907  H1941   1.085   .     S
C1908  C1931   1.399   .     A
C1908  H1942   1.085   .     S
C1908  C926    1.400   1_556 S
C1909  C1914   1.447   .     A
C1909  C1977   1.546   .     S
C1910  C1913   1.402   .     A
C1910  C1987   1.530   .     S
C1910  C1688   1.399   1_655 S
C1911  C1997   1.542   .     S
C1911  C1913   1.434   .     A
C1911  C1685   1.421   1_655 S
C1912  C2007   1.526   .     S
C1912  C1914   1.425   .     A
C1915  N1948   1.367   .     A
C1915  H1943   1.081   .     S
C1916  N1947   1.365   .     A
C1916  H1944   1.080   .     S
C1916  C1245   1.412   1_565 S
C1917  H1945   1.081   .     S
C1917  N1948   1.366   .     A
C1918  H1946   1.079   .     S
C1918  N1947   1.366   .     A
C1918  C1243   1.412   1_565 S
C1919  O1953   1.287   .     A
C1919  C1924   1.451   .     S
C1919  O1956   1.290   .     A
C1920  O1955   1.289   .     A
C1920  C1923   1.454   .     S
C1920  O1954   1.289   .     A
C1921  C1931   1.391   .     A
C1921  H1937   1.085   .     S
C1921  C1923   1.395   .     A
C1922  C1932   1.390   .     A
C1922  H1938   1.085   .     S
C1922  C1924   1.393   .     A
C1923  C1925   1.400   .     A
C1924  C1926   1.396   .     A
C1925  H1939   1.081   .     S
C1925  C1927   1.404   .     A
C1926  C1928   1.403   .     A
C1926  H1940   1.081   .     S
C1927  C1933   1.421   .     A
C1927  C1929   1.423   .     A
C1928  C1930   1.421   .     A
C1928  C1934   1.419   .     A
C1929  C1931   1.411   .     A
C1929  C922    1.404   1_556 S
C1930  C1932   1.410   .     A
C1933  C1957   1.518   .     S
C1933  C899    1.399   1_556 S
C1934  C1967   1.518   .     S
Cu1935 N1947   2.005   .     S
Cu1935 O1953   1.961   .     S
Cu1935 Cu1936  2.668   .     S
Cu1935 O1955   1.964   .     S
Cu1935 O1949   1.991   .     S
Cu1935 O1951   1.990   .     S
Cu1936 O1956   1.964   .     S
Cu1936 O1952   1.990   .     S
Cu1936 N1948   2.005   .     S
Cu1936 O1954   1.961   .     S
Cu1936 O1950   1.991   .     S
C1957  C1958   1.538   .     S
C1957  H1965   1.113   .     S
C1957  H1966   1.110   .     S
C1958  H1964   1.113   .     S
C1958  H1963   1.111   .     S
C1958  C1959   1.528   .     S
C1959  H1960   1.111   .     S
C1959  H1961   1.109   .     S
H1962  C1735   1.110   1_655 S
C1967  H1975   1.111   .     S
C1967  C1968   1.536   .     S
C1967  H1976   1.113   .     S
C1968  H1974   1.111   .     S
C1968  H1973   1.112   .     S
C1968  C1969   1.525   .     S
C1969  H1971   1.111   .     S
C1969  H1972   1.110   .     S
C1969  H1970   1.111   .     S
C1977  C1978   1.541   .     S
C1977  H1985   1.102   .     S
C1977  H1986   1.099   .     S
C1978  H1984   1.109   .     S
C1978  C1979   1.523   .     S
C1978  H1983   1.111   .     S
C1979  H1980   1.108   .     S
C1979  H1982   1.110   .     S
H1981  C1307   1.109   1_565 S
C1987  H1996   1.110   .     S
C1987  C1988   1.541   .     S
C1987  H1995   1.108   .     S
C1988  H1994   1.109   .     S
C1988  C1989   1.525   .     S
C1988  H1993   1.112   .     S
C1989  H1991   1.110   .     S
C1989  H1990   1.109   .     S
C1989  H1992   1.111   .     S
C1997  C1998   1.544   .     S
C1997  H2005   1.102   .     S
C1997  H2006   1.105   .     S
C1998  H2004   1.110   .     S
C1998  H2003   1.110   .     S
C1998  C1999   1.521   .     S
C1999  H2000   1.101   .     S
H2001  C1327   1.103   1_565 S
H2002  C1327   1.110   1_565 S
C2007  H2015   1.104   .     S
C2007  H2016   1.104   .     S
C2007  C2008   1.538   .     S
C2008  H2013   1.112   .     S
C2008  C2009   1.526   .     S
C2008  H2014   1.109   .     S
C2009  H2011   1.109   .     S
C2009  H2012   1.108   .     S
C2009  H2010   1.107   .     S
