data_str_m2_o2_o10_pcu_sym.222
_audit_creation_date              2020-01-03
_audit_creation_method            'Materials Studio'
_symmetry_space_group_name_H-M    'P1'
_symmetry_Int_Tables_number       1
_symmetry_cell_setting            triclinic
loop_
_symmetry_equiv_pos_as_xyz
  x,y,z
_cell_length_a                    26.3051
_cell_length_b                    30.2301
_cell_length_c                    27.7200
_cell_angle_alpha                 89.9649
_cell_angle_beta                  96.7602
_cell_angle_gamma                 90.5382
loop_
_atom_site_label
_atom_site_type_symbol
_atom_site_fract_x
_atom_site_fract_y
_atom_site_fract_z
_atom_site_U_iso_or_equiv
_atom_site_adp_type
_atom_site_occupancy
C1     C     0.16691   0.16497   0.25002   0.00000  Uiso   1.00
C2     C     0.16621   0.33508   0.24995   0.00000  Uiso   1.00
C3     C     0.19134   0.28381   0.05671   0.00000  Uiso   1.00
C4     C     0.12661   0.22996   0.44155   0.00000  Uiso   1.00
C5     C     0.19125   0.28297   0.10744   0.00000  Uiso   1.00
C6     C     0.12760   0.23002   0.39092   0.00000  Uiso   1.00
C7     C     0.14207   0.21705   0.10199   0.00000  Uiso   1.00
C8     C     0.20555   0.27018   0.39966   0.00000  Uiso   1.00
C9     C     0.14187   0.21627   0.05122   0.00000  Uiso   1.00
C10    C     0.20646   0.27026   0.45049   0.00000  Uiso   1.00
C11    C     0.16657   0.25006   0.02734   0.00000  Uiso   1.00
C12    C     0.16654   0.25009   0.47265   0.00000  Uiso   1.00
C13    C     0.06819   0.24911   0.23828   0.00000  Uiso   1.00
C14    C     0.26513   0.25097   0.26175   0.00000  Uiso   1.00
C15    C     0.01439   0.23915   0.23497   0.00000  Uiso   1.00
C16    C     0.31898   0.26077   0.26525   0.00000  Uiso   1.00
C17    C     0.14542   0.04737   0.28612   0.00000  Uiso   1.00
C18    C     0.14937   0.45248   0.20750   0.00000  Uiso   1.00
C19    C     0.14577   0.09334   0.28649   0.00000  Uiso   1.00
C20    C     0.14946   0.40651   0.20737   0.00000  Uiso   1.00
C21    C     0.16672   0.11677   0.24984   0.00000  Uiso   1.00
C22    C     0.16619   0.38335   0.25001   0.00000  Uiso   1.00
C23    C     0.18742   0.09392   0.21289   0.00000  Uiso   1.00
C24    C     0.18314   0.40662   0.29271   0.00000  Uiso   1.00
C25    C     0.18808   0.04793   0.21299   0.00000  Uiso   1.00
C26    C     0.18402   0.45261   0.29269   0.00000  Uiso   1.00
C27    C     0.16694   0.02436   0.24967   0.00000  Uiso   1.00
C28    C     0.16692   0.47584   0.25001   0.00000  Uiso   1.00
Cu29   Cu    0.16667   0.24999   0.29821   0.00000  Uiso   1.00
Cu30   Cu    0.16667   0.25000   0.20179   0.00000  Uiso   1.00
H31    H     0.12809   0.02974   0.31413   0.00000  Uiso   1.00
H32    H     0.13524   0.46984   0.17450   0.00000  Uiso   1.00
H33    H     0.12899   0.11055   0.31492   0.00000  Uiso   1.00
H34    H     0.13581   0.38909   0.17414   0.00000  Uiso   1.00
H35    H     0.20401   0.11167   0.18449   0.00000  Uiso   1.00
H36    H     0.19668   0.38924   0.32586   0.00000  Uiso   1.00
H37    H     0.21020   0.31121   0.04083   0.00000  Uiso   1.00
H38    H     0.09424   0.21468   0.45592   0.00000  Uiso   1.00
H39    H     0.21080   0.30900   0.12928   0.00000  Uiso   1.00
H40    H     0.09677   0.21414   0.36780   0.00000  Uiso   1.00
H41    H     0.12255   0.19100   0.11949   0.00000  Uiso   1.00
H42    H     0.23631   0.28626   0.38350   0.00000  Uiso   1.00
H43    H     0.12297   0.18890   0.03114   0.00000  Uiso   1.00
H44    H     0.23877   0.28563   0.47208   0.00000  Uiso   1.00
N45    N     0.16667   0.25001   0.12935   0.00000  Uiso   1.00
N46    N     0.16667   0.24999   0.37065   0.00000  Uiso   1.00
O47    O     0.16667   0.18572   0.29071   0.00000  Uiso   1.00
O48    O     0.16666   0.31427   0.20929   0.00000  Uiso   1.00
O49    O     0.16667   0.18573   0.20928   0.00000  Uiso   1.00
O50    O     0.16666   0.31427   0.29072   0.00000  Uiso   1.00
O51    O     0.09161   0.24999   0.28132   0.00000  Uiso   1.00
O52    O     0.24172   0.25000   0.21868   0.00000  Uiso   1.00
O53    O     0.09161   0.25000   0.19989   0.00000  Uiso   1.00
O54    O     0.24172   0.25000   0.30011   0.00000  Uiso   1.00
C55    C     0.32911   0.19897   0.20346   0.00000  Uiso   1.00
C56    C     0.03007   0.15838   0.21450   0.00000  Uiso   1.00
C57    C     0.00657   0.11680   0.18947   0.00000  Uiso   1.00
H58    H     0.30332   0.10812   0.20363   0.00000  Uiso   1.00
H59    H     0.33275   0.12201   0.14958   0.00000  Uiso   1.00
H60    H     0.03335   0.08875   0.19679   0.00000  Uiso   1.00
H61    H     0.06768   0.16437   0.20128   0.00000  Uiso   1.00
H62    H     0.03625   0.15247   0.25436   0.00000  Uiso   1.00
H63    H     0.28994   0.18800   0.20882   0.00000  Uiso   1.00
H64    H     0.32879   0.20813   0.16458   0.00000  Uiso   1.00
C65    C     0.00430   0.30053   0.29740   0.00000  Uiso   1.00
C66    C     0.30474   0.34176   0.28549   0.00000  Uiso   1.00
C67    C     0.32791   0.38255   0.31248   0.00000  Uiso   1.00
H68    H     0.33169   0.37685   0.35233   0.00000  Uiso   1.00
H69    H     0.03285   0.39034   0.30127   0.00000  Uiso   1.00
H70    H     0.30262   0.41138   0.30377   0.00000  Uiso   1.00
H71    H     0.30105   0.34834   0.24577   0.00000  Uiso   1.00
H72    H     0.26606   0.33613   0.29647   0.00000  Uiso   1.00
H73    H     0.00297   0.29130   0.33606   0.00000  Uiso   1.00
H74    H     0.04401   0.31089   0.29354   0.00000  Uiso   1.00
F75    F     0.21048   0.02657   0.17807   0.00000  Uiso   1.00
F76    F     0.20272   0.47433   0.33394   0.00000  Uiso   1.00
C77    C     0.50025   0.16497   0.25002   0.00000  Uiso   1.00
C78    C     0.49954   0.33508   0.24995   0.00000  Uiso   1.00
C79    C     0.52467   0.28381   0.05671   0.00000  Uiso   1.00
C80    C     0.45994   0.22996   0.44155   0.00000  Uiso   1.00
C81    C     0.52459   0.28297   0.10744   0.00000  Uiso   1.00
C82    C     0.46094   0.23002   0.39092   0.00000  Uiso   1.00
C83    C     0.47540   0.21705   0.10199   0.00000  Uiso   1.00
C84    C     0.53888   0.27018   0.39966   0.00000  Uiso   1.00
C85    C     0.47521   0.21627   0.05122   0.00000  Uiso   1.00
C86    C     0.53979   0.27026   0.45049   0.00000  Uiso   1.00
C87    C     0.49990   0.25006   0.02734   0.00000  Uiso   1.00
C88    C     0.49987   0.25009   0.47265   0.00000  Uiso   1.00
C89    C     0.40153   0.24911   0.23828   0.00000  Uiso   1.00
C90    C     0.59847   0.25097   0.26175   0.00000  Uiso   1.00
C91    C     0.34773   0.23915   0.23497   0.00000  Uiso   1.00
C92    C     0.65231   0.26077   0.26525   0.00000  Uiso   1.00
C93    C     0.47876   0.04737   0.28612   0.00000  Uiso   1.00
C94    C     0.48270   0.45248   0.20750   0.00000  Uiso   1.00
C95    C     0.47910   0.09334   0.28649   0.00000  Uiso   1.00
C96    C     0.48279   0.40651   0.20737   0.00000  Uiso   1.00
C97    C     0.50005   0.11677   0.24984   0.00000  Uiso   1.00
C98    C     0.49953   0.38335   0.25001   0.00000  Uiso   1.00
C99    C     0.52076   0.09392   0.21289   0.00000  Uiso   1.00
C100   C     0.51647   0.40662   0.29271   0.00000  Uiso   1.00
C101   C     0.52142   0.04793   0.21299   0.00000  Uiso   1.00
C102   C     0.51736   0.45261   0.29269   0.00000  Uiso   1.00
C103   C     0.50027   0.02436   0.24967   0.00000  Uiso   1.00
C104   C     0.50026   0.47584   0.25001   0.00000  Uiso   1.00
Cu105  Cu    0.50000   0.24999   0.29821   0.00000  Uiso   1.00
Cu106  Cu    0.50000   0.25000   0.20179   0.00000  Uiso   1.00
H107   H     0.46142   0.02974   0.31413   0.00000  Uiso   1.00
H108   H     0.46858   0.46984   0.17450   0.00000  Uiso   1.00
H109   H     0.46232   0.11055   0.31492   0.00000  Uiso   1.00
H110   H     0.46914   0.38909   0.17414   0.00000  Uiso   1.00
H111   H     0.53734   0.11167   0.18449   0.00000  Uiso   1.00
H112   H     0.53001   0.38924   0.32586   0.00000  Uiso   1.00
H113   H     0.54353   0.31121   0.04083   0.00000  Uiso   1.00
H114   H     0.42757   0.21468   0.45592   0.00000  Uiso   1.00
H115   H     0.54413   0.30900   0.12928   0.00000  Uiso   1.00
H116   H     0.43010   0.21414   0.36780   0.00000  Uiso   1.00
H117   H     0.45589   0.19100   0.11949   0.00000  Uiso   1.00
H118   H     0.56964   0.28626   0.38350   0.00000  Uiso   1.00
H119   H     0.45631   0.18890   0.03114   0.00000  Uiso   1.00
H120   H     0.57210   0.28563   0.47208   0.00000  Uiso   1.00
N121   N     0.50000   0.25001   0.12935   0.00000  Uiso   1.00
N122   N     0.50000   0.24999   0.37065   0.00000  Uiso   1.00
O123   O     0.50000   0.18572   0.29071   0.00000  Uiso   1.00
O124   O     0.50000   0.31427   0.20929   0.00000  Uiso   1.00
O125   O     0.50000   0.18573   0.20928   0.00000  Uiso   1.00
O126   O     0.50000   0.31427   0.29072   0.00000  Uiso   1.00
O127   O     0.42495   0.24999   0.28132   0.00000  Uiso   1.00
O128   O     0.57505   0.25000   0.21868   0.00000  Uiso   1.00
O129   O     0.42495   0.25000   0.19989   0.00000  Uiso   1.00
O130   O     0.57505   0.25000   0.30011   0.00000  Uiso   1.00
C131   C     0.66244   0.19897   0.20346   0.00000  Uiso   1.00
C132   C     0.36341   0.15838   0.21450   0.00000  Uiso   1.00
C133   C     0.33990   0.11680   0.18947   0.00000  Uiso   1.00
H134   H     0.63665   0.10812   0.20363   0.00000  Uiso   1.00
H135   H     0.66608   0.12201   0.14958   0.00000  Uiso   1.00
H136   H     0.36669   0.08875   0.19679   0.00000  Uiso   1.00
H137   H     0.40101   0.16437   0.20128   0.00000  Uiso   1.00
H138   H     0.36958   0.15247   0.25436   0.00000  Uiso   1.00
H139   H     0.62327   0.18800   0.20882   0.00000  Uiso   1.00
H140   H     0.66212   0.20813   0.16458   0.00000  Uiso   1.00
C141   C     0.33764   0.30053   0.29740   0.00000  Uiso   1.00
C142   C     0.63807   0.34176   0.28549   0.00000  Uiso   1.00
C143   C     0.66124   0.38255   0.31248   0.00000  Uiso   1.00
H144   H     0.66503   0.37685   0.35233   0.00000  Uiso   1.00
H145   H     0.36618   0.39034   0.30127   0.00000  Uiso   1.00
H146   H     0.63595   0.41138   0.30377   0.00000  Uiso   1.00
H147   H     0.63438   0.34834   0.24577   0.00000  Uiso   1.00
H148   H     0.59940   0.33613   0.29647   0.00000  Uiso   1.00
H149   H     0.33631   0.29130   0.33606   0.00000  Uiso   1.00
H150   H     0.37734   0.31089   0.29354   0.00000  Uiso   1.00
F151   F     0.54382   0.02657   0.17807   0.00000  Uiso   1.00
F152   F     0.53605   0.47433   0.33394   0.00000  Uiso   1.00
C153   C     0.83358   0.16497   0.25002   0.00000  Uiso   1.00
C154   C     0.83288   0.33508   0.24995   0.00000  Uiso   1.00
C155   C     0.85800   0.28381   0.05671   0.00000  Uiso   1.00
C156   C     0.79327   0.22996   0.44155   0.00000  Uiso   1.00
C157   C     0.85792   0.28297   0.10744   0.00000  Uiso   1.00
C158   C     0.79427   0.23002   0.39092   0.00000  Uiso   1.00
C159   C     0.80874   0.21705   0.10199   0.00000  Uiso   1.00
C160   C     0.87222   0.27018   0.39966   0.00000  Uiso   1.00
C161   C     0.80854   0.21627   0.05122   0.00000  Uiso   1.00
C162   C     0.87312   0.27026   0.45049   0.00000  Uiso   1.00
C163   C     0.83323   0.25006   0.02734   0.00000  Uiso   1.00
C164   C     0.83321   0.25009   0.47265   0.00000  Uiso   1.00
C165   C     0.73486   0.24911   0.23828   0.00000  Uiso   1.00
C166   C     0.93180   0.25097   0.26175   0.00000  Uiso   1.00
C167   C     0.68106   0.23915   0.23497   0.00000  Uiso   1.00
C168   C     0.98565   0.26077   0.26525   0.00000  Uiso   1.00
C169   C     0.81209   0.04737   0.28612   0.00000  Uiso   1.00
C170   C     0.81604   0.45248   0.20750   0.00000  Uiso   1.00
C171   C     0.81244   0.09334   0.28649   0.00000  Uiso   1.00
C172   C     0.81613   0.40651   0.20737   0.00000  Uiso   1.00
C173   C     0.83339   0.11677   0.24984   0.00000  Uiso   1.00
C174   C     0.83286   0.38335   0.25001   0.00000  Uiso   1.00
C175   C     0.85409   0.09392   0.21289   0.00000  Uiso   1.00
C176   C     0.84980   0.40662   0.29271   0.00000  Uiso   1.00
C177   C     0.85475   0.04793   0.21299   0.00000  Uiso   1.00
C178   C     0.85069   0.45261   0.29269   0.00000  Uiso   1.00
C179   C     0.83360   0.02436   0.24967   0.00000  Uiso   1.00
C180   C     0.83359   0.47584   0.25001   0.00000  Uiso   1.00
Cu181  Cu    0.83333   0.24999   0.29821   0.00000  Uiso   1.00
Cu182  Cu    0.83333   0.25000   0.20179   0.00000  Uiso   1.00
H183   H     0.79476   0.02974   0.31413   0.00000  Uiso   1.00
H184   H     0.80191   0.46984   0.17450   0.00000  Uiso   1.00
H185   H     0.79566   0.11055   0.31492   0.00000  Uiso   1.00
H186   H     0.80248   0.38909   0.17414   0.00000  Uiso   1.00
H187   H     0.87068   0.11167   0.18449   0.00000  Uiso   1.00
H188   H     0.86335   0.38924   0.32586   0.00000  Uiso   1.00
H189   H     0.87686   0.31121   0.04083   0.00000  Uiso   1.00
H190   H     0.76090   0.21468   0.45592   0.00000  Uiso   1.00
H191   H     0.87746   0.30900   0.12928   0.00000  Uiso   1.00
H192   H     0.76344   0.21414   0.36780   0.00000  Uiso   1.00
H193   H     0.78922   0.19100   0.11949   0.00000  Uiso   1.00
H194   H     0.90298   0.28626   0.38350   0.00000  Uiso   1.00
H195   H     0.78964   0.18890   0.03114   0.00000  Uiso   1.00
H196   H     0.90543   0.28563   0.47208   0.00000  Uiso   1.00
N197   N     0.83333   0.25001   0.12935   0.00000  Uiso   1.00
N198   N     0.83333   0.24999   0.37065   0.00000  Uiso   1.00
O199   O     0.83334   0.18572   0.29071   0.00000  Uiso   1.00
O200   O     0.83333   0.31427   0.20929   0.00000  Uiso   1.00
O201   O     0.83334   0.18573   0.20928   0.00000  Uiso   1.00
O202   O     0.83333   0.31427   0.29072   0.00000  Uiso   1.00
O203   O     0.75828   0.24999   0.28132   0.00000  Uiso   1.00
O204   O     0.90839   0.25000   0.21868   0.00000  Uiso   1.00
O205   O     0.75828   0.25000   0.19989   0.00000  Uiso   1.00
O206   O     0.90839   0.25000   0.30011   0.00000  Uiso   1.00
C207   C     0.99577   0.19897   0.20346   0.00000  Uiso   1.00
C208   C     0.69674   0.15838   0.21450   0.00000  Uiso   1.00
C209   C     0.67323   0.11680   0.18947   0.00000  Uiso   1.00
H210   H     0.96998   0.10812   0.20363   0.00000  Uiso   1.00
H211   H     0.99942   0.12201   0.14958   0.00000  Uiso   1.00
H212   H     0.70002   0.08875   0.19679   0.00000  Uiso   1.00
H213   H     0.73435   0.16437   0.20128   0.00000  Uiso   1.00
H214   H     0.70291   0.15247   0.25436   0.00000  Uiso   1.00
H215   H     0.95660   0.18800   0.20882   0.00000  Uiso   1.00
H216   H     0.99546   0.20813   0.16458   0.00000  Uiso   1.00
C217   C     0.67097   0.30053   0.29740   0.00000  Uiso   1.00
C218   C     0.97140   0.34176   0.28549   0.00000  Uiso   1.00
C219   C     0.99458   0.38255   0.31248   0.00000  Uiso   1.00
H220   H     0.99836   0.37685   0.35233   0.00000  Uiso   1.00
H221   H     0.69951   0.39034   0.30127   0.00000  Uiso   1.00
H222   H     0.96929   0.41138   0.30377   0.00000  Uiso   1.00
H223   H     0.96771   0.34834   0.24577   0.00000  Uiso   1.00
H224   H     0.93273   0.33613   0.29647   0.00000  Uiso   1.00
H225   H     0.66964   0.29130   0.33606   0.00000  Uiso   1.00
H226   H     0.71068   0.31089   0.29354   0.00000  Uiso   1.00
F227   F     0.87715   0.02657   0.17807   0.00000  Uiso   1.00
F228   F     0.86938   0.47433   0.33394   0.00000  Uiso   1.00
C229   C     0.16691   0.66497   0.25002   0.00000  Uiso   1.00
C230   C     0.16621   0.83508   0.24995   0.00000  Uiso   1.00
C231   C     0.19134   0.78381   0.05671   0.00000  Uiso   1.00
C232   C     0.12661   0.72996   0.44155   0.00000  Uiso   1.00
C233   C     0.19125   0.78297   0.10744   0.00000  Uiso   1.00
C234   C     0.12760   0.73002   0.39092   0.00000  Uiso   1.00
C235   C     0.14207   0.71705   0.10199   0.00000  Uiso   1.00
C236   C     0.20555   0.77018   0.39966   0.00000  Uiso   1.00
C237   C     0.14187   0.71627   0.05122   0.00000  Uiso   1.00
C238   C     0.20646   0.77026   0.45049   0.00000  Uiso   1.00
C239   C     0.16657   0.75006   0.02734   0.00000  Uiso   1.00
C240   C     0.16654   0.75009   0.47265   0.00000  Uiso   1.00
C241   C     0.06819   0.74911   0.23828   0.00000  Uiso   1.00
C242   C     0.26513   0.75097   0.26175   0.00000  Uiso   1.00
C243   C     0.01439   0.73915   0.23497   0.00000  Uiso   1.00
C244   C     0.31898   0.76077   0.26525   0.00000  Uiso   1.00
C245   C     0.14542   0.54737   0.28612   0.00000  Uiso   1.00
C246   C     0.14937   0.95248   0.20750   0.00000  Uiso   1.00
C247   C     0.14577   0.59334   0.28649   0.00000  Uiso   1.00
C248   C     0.14946   0.90651   0.20737   0.00000  Uiso   1.00
C249   C     0.16672   0.61677   0.24984   0.00000  Uiso   1.00
C250   C     0.16619   0.88335   0.25001   0.00000  Uiso   1.00
C251   C     0.18742   0.59392   0.21289   0.00000  Uiso   1.00
C252   C     0.18314   0.90662   0.29271   0.00000  Uiso   1.00
C253   C     0.18808   0.54793   0.21299   0.00000  Uiso   1.00
C254   C     0.18402   0.95261   0.29269   0.00000  Uiso   1.00
C255   C     0.16694   0.52436   0.24967   0.00000  Uiso   1.00
C256   C     0.16692   0.97584   0.25001   0.00000  Uiso   1.00
Cu257  Cu    0.16667   0.74999   0.29821   0.00000  Uiso   1.00
Cu258  Cu    0.16667   0.75000   0.20179   0.00000  Uiso   1.00
H259   H     0.12809   0.52974   0.31413   0.00000  Uiso   1.00
H260   H     0.13524   0.96984   0.17450   0.00000  Uiso   1.00
H261   H     0.12899   0.61055   0.31492   0.00000  Uiso   1.00
H262   H     0.13581   0.88909   0.17414   0.00000  Uiso   1.00
H263   H     0.20401   0.61167   0.18449   0.00000  Uiso   1.00
H264   H     0.19668   0.88924   0.32586   0.00000  Uiso   1.00
H265   H     0.21020   0.81121   0.04083   0.00000  Uiso   1.00
H266   H     0.09424   0.71468   0.45592   0.00000  Uiso   1.00
H267   H     0.21080   0.80900   0.12928   0.00000  Uiso   1.00
H268   H     0.09677   0.71414   0.36780   0.00000  Uiso   1.00
H269   H     0.12255   0.69100   0.11949   0.00000  Uiso   1.00
H270   H     0.23631   0.78626   0.38350   0.00000  Uiso   1.00
H271   H     0.12297   0.68890   0.03114   0.00000  Uiso   1.00
H272   H     0.23877   0.78563   0.47208   0.00000  Uiso   1.00
N273   N     0.16667   0.75001   0.12935   0.00000  Uiso   1.00
N274   N     0.16667   0.74999   0.37065   0.00000  Uiso   1.00
O275   O     0.16667   0.68572   0.29071   0.00000  Uiso   1.00
O276   O     0.16666   0.81427   0.20929   0.00000  Uiso   1.00
O277   O     0.16667   0.68573   0.20928   0.00000  Uiso   1.00
O278   O     0.16666   0.81427   0.29072   0.00000  Uiso   1.00
O279   O     0.09161   0.74999   0.28132   0.00000  Uiso   1.00
O280   O     0.24172   0.75000   0.21868   0.00000  Uiso   1.00
O281   O     0.09161   0.75000   0.19989   0.00000  Uiso   1.00
O282   O     0.24172   0.75000   0.30011   0.00000  Uiso   1.00
C283   C     0.32911   0.69897   0.20346   0.00000  Uiso   1.00
C284   C     0.03007   0.65838   0.21450   0.00000  Uiso   1.00
C285   C     0.00657   0.61680   0.18947   0.00000  Uiso   1.00
H286   H     0.30332   0.60812   0.20363   0.00000  Uiso   1.00
H287   H     0.33275   0.62201   0.14958   0.00000  Uiso   1.00
H288   H     0.03335   0.58875   0.19679   0.00000  Uiso   1.00
H289   H     0.06768   0.66437   0.20128   0.00000  Uiso   1.00
H290   H     0.03625   0.65247   0.25436   0.00000  Uiso   1.00
H291   H     0.28994   0.68800   0.20882   0.00000  Uiso   1.00
H292   H     0.32879   0.70813   0.16458   0.00000  Uiso   1.00
C293   C     0.00430   0.80053   0.29740   0.00000  Uiso   1.00
C294   C     0.30474   0.84176   0.28549   0.00000  Uiso   1.00
C295   C     0.32791   0.88255   0.31248   0.00000  Uiso   1.00
H296   H     0.33169   0.87685   0.35233   0.00000  Uiso   1.00
H297   H     0.03285   0.89034   0.30127   0.00000  Uiso   1.00
H298   H     0.30262   0.91138   0.30377   0.00000  Uiso   1.00
H299   H     0.30105   0.84834   0.24577   0.00000  Uiso   1.00
H300   H     0.26606   0.83613   0.29647   0.00000  Uiso   1.00
H301   H     0.00297   0.79130   0.33606   0.00000  Uiso   1.00
H302   H     0.04401   0.81089   0.29354   0.00000  Uiso   1.00
F303   F     0.21048   0.52657   0.17807   0.00000  Uiso   1.00
F304   F     0.20272   0.97433   0.33394   0.00000  Uiso   1.00
C305   C     0.50025   0.66497   0.25002   0.00000  Uiso   1.00
C306   C     0.49954   0.83508   0.24995   0.00000  Uiso   1.00
C307   C     0.52467   0.78381   0.05671   0.00000  Uiso   1.00
C308   C     0.45994   0.72996   0.44155   0.00000  Uiso   1.00
C309   C     0.52459   0.78297   0.10744   0.00000  Uiso   1.00
C310   C     0.46094   0.73002   0.39092   0.00000  Uiso   1.00
C311   C     0.47540   0.71705   0.10199   0.00000  Uiso   1.00
C312   C     0.53888   0.77018   0.39966   0.00000  Uiso   1.00
C313   C     0.47521   0.71627   0.05122   0.00000  Uiso   1.00
C314   C     0.53979   0.77026   0.45049   0.00000  Uiso   1.00
C315   C     0.49990   0.75006   0.02734   0.00000  Uiso   1.00
C316   C     0.49987   0.75009   0.47265   0.00000  Uiso   1.00
C317   C     0.40153   0.74911   0.23828   0.00000  Uiso   1.00
C318   C     0.59847   0.75097   0.26175   0.00000  Uiso   1.00
C319   C     0.34773   0.73915   0.23497   0.00000  Uiso   1.00
C320   C     0.65231   0.76077   0.26525   0.00000  Uiso   1.00
C321   C     0.47876   0.54737   0.28612   0.00000  Uiso   1.00
C322   C     0.48270   0.95248   0.20750   0.00000  Uiso   1.00
C323   C     0.47910   0.59334   0.28649   0.00000  Uiso   1.00
C324   C     0.48279   0.90651   0.20737   0.00000  Uiso   1.00
C325   C     0.50005   0.61677   0.24984   0.00000  Uiso   1.00
C326   C     0.49953   0.88335   0.25001   0.00000  Uiso   1.00
C327   C     0.52076   0.59392   0.21289   0.00000  Uiso   1.00
C328   C     0.51647   0.90662   0.29271   0.00000  Uiso   1.00
C329   C     0.52142   0.54793   0.21299   0.00000  Uiso   1.00
C330   C     0.51736   0.95261   0.29269   0.00000  Uiso   1.00
C331   C     0.50027   0.52436   0.24967   0.00000  Uiso   1.00
C332   C     0.50026   0.97584   0.25001   0.00000  Uiso   1.00
Cu333  Cu    0.50000   0.74999   0.29821   0.00000  Uiso   1.00
Cu334  Cu    0.50000   0.75000   0.20179   0.00000  Uiso   1.00
H335   H     0.46142   0.52974   0.31413   0.00000  Uiso   1.00
H336   H     0.46858   0.96984   0.17450   0.00000  Uiso   1.00
H337   H     0.46232   0.61055   0.31492   0.00000  Uiso   1.00
H338   H     0.46914   0.88909   0.17414   0.00000  Uiso   1.00
H339   H     0.53734   0.61167   0.18449   0.00000  Uiso   1.00
H340   H     0.53001   0.88924   0.32586   0.00000  Uiso   1.00
H341   H     0.54353   0.81121   0.04083   0.00000  Uiso   1.00
H342   H     0.42757   0.71468   0.45592   0.00000  Uiso   1.00
H343   H     0.54413   0.80900   0.12928   0.00000  Uiso   1.00
H344   H     0.43010   0.71414   0.36780   0.00000  Uiso   1.00
H345   H     0.45589   0.69100   0.11949   0.00000  Uiso   1.00
H346   H     0.56964   0.78626   0.38350   0.00000  Uiso   1.00
H347   H     0.45631   0.68890   0.03114   0.00000  Uiso   1.00
H348   H     0.57210   0.78563   0.47208   0.00000  Uiso   1.00
N349   N     0.50000   0.75001   0.12935   0.00000  Uiso   1.00
N350   N     0.50000   0.74999   0.37065   0.00000  Uiso   1.00
O351   O     0.50000   0.68572   0.29071   0.00000  Uiso   1.00
O352   O     0.50000   0.81427   0.20929   0.00000  Uiso   1.00
O353   O     0.50000   0.68573   0.20928   0.00000  Uiso   1.00
O354   O     0.50000   0.81427   0.29072   0.00000  Uiso   1.00
O355   O     0.42495   0.74999   0.28132   0.00000  Uiso   1.00
O356   O     0.57505   0.75000   0.21868   0.00000  Uiso   1.00
O357   O     0.42495   0.75000   0.19989   0.00000  Uiso   1.00
O358   O     0.57505   0.75000   0.30011   0.00000  Uiso   1.00
C359   C     0.66244   0.69897   0.20346   0.00000  Uiso   1.00
C360   C     0.36341   0.65838   0.21450   0.00000  Uiso   1.00
C361   C     0.33990   0.61680   0.18947   0.00000  Uiso   1.00
H362   H     0.63665   0.60812   0.20363   0.00000  Uiso   1.00
H363   H     0.66608   0.62201   0.14958   0.00000  Uiso   1.00
H364   H     0.36669   0.58875   0.19679   0.00000  Uiso   1.00
H365   H     0.40101   0.66437   0.20128   0.00000  Uiso   1.00
H366   H     0.36958   0.65247   0.25436   0.00000  Uiso   1.00
H367   H     0.62327   0.68800   0.20882   0.00000  Uiso   1.00
H368   H     0.66212   0.70813   0.16458   0.00000  Uiso   1.00
C369   C     0.33764   0.80053   0.29740   0.00000  Uiso   1.00
C370   C     0.63807   0.84176   0.28549   0.00000  Uiso   1.00
C371   C     0.66124   0.88255   0.31248   0.00000  Uiso   1.00
H372   H     0.66503   0.87685   0.35233   0.00000  Uiso   1.00
H373   H     0.36618   0.89034   0.30127   0.00000  Uiso   1.00
H374   H     0.63595   0.91138   0.30377   0.00000  Uiso   1.00
H375   H     0.63438   0.84834   0.24577   0.00000  Uiso   1.00
H376   H     0.59940   0.83613   0.29647   0.00000  Uiso   1.00
H377   H     0.33631   0.79130   0.33606   0.00000  Uiso   1.00
H378   H     0.37734   0.81089   0.29354   0.00000  Uiso   1.00
F379   F     0.54382   0.52657   0.17807   0.00000  Uiso   1.00
F380   F     0.53605   0.97433   0.33394   0.00000  Uiso   1.00
C381   C     0.83358   0.66497   0.25002   0.00000  Uiso   1.00
C382   C     0.83288   0.83508   0.24995   0.00000  Uiso   1.00
C383   C     0.85800   0.78381   0.05671   0.00000  Uiso   1.00
C384   C     0.79327   0.72996   0.44155   0.00000  Uiso   1.00
C385   C     0.85792   0.78297   0.10744   0.00000  Uiso   1.00
C386   C     0.79427   0.73002   0.39092   0.00000  Uiso   1.00
C387   C     0.80874   0.71705   0.10199   0.00000  Uiso   1.00
C388   C     0.87222   0.77018   0.39966   0.00000  Uiso   1.00
C389   C     0.80854   0.71627   0.05122   0.00000  Uiso   1.00
C390   C     0.87312   0.77026   0.45049   0.00000  Uiso   1.00
C391   C     0.83323   0.75006   0.02734   0.00000  Uiso   1.00
C392   C     0.83321   0.75009   0.47265   0.00000  Uiso   1.00
C393   C     0.73486   0.74911   0.23828   0.00000  Uiso   1.00
C394   C     0.93180   0.75097   0.26175   0.00000  Uiso   1.00
C395   C     0.68106   0.73915   0.23497   0.00000  Uiso   1.00
C396   C     0.98565   0.76077   0.26525   0.00000  Uiso   1.00
C397   C     0.81209   0.54737   0.28612   0.00000  Uiso   1.00
C398   C     0.81604   0.95248   0.20750   0.00000  Uiso   1.00
C399   C     0.81244   0.59334   0.28649   0.00000  Uiso   1.00
C400   C     0.81613   0.90651   0.20737   0.00000  Uiso   1.00
C401   C     0.83339   0.61677   0.24984   0.00000  Uiso   1.00
C402   C     0.83286   0.88335   0.25001   0.00000  Uiso   1.00
C403   C     0.85409   0.59392   0.21289   0.00000  Uiso   1.00
C404   C     0.84980   0.90662   0.29271   0.00000  Uiso   1.00
C405   C     0.85475   0.54793   0.21299   0.00000  Uiso   1.00
C406   C     0.85069   0.95261   0.29269   0.00000  Uiso   1.00
C407   C     0.83360   0.52436   0.24967   0.00000  Uiso   1.00
C408   C     0.83359   0.97584   0.25001   0.00000  Uiso   1.00
Cu409  Cu    0.83333   0.74999   0.29821   0.00000  Uiso   1.00
Cu410  Cu    0.83333   0.75000   0.20179   0.00000  Uiso   1.00
H411   H     0.79476   0.52974   0.31413   0.00000  Uiso   1.00
H412   H     0.80191   0.96984   0.17450   0.00000  Uiso   1.00
H413   H     0.79566   0.61055   0.31492   0.00000  Uiso   1.00
H414   H     0.80248   0.88909   0.17414   0.00000  Uiso   1.00
H415   H     0.87068   0.61167   0.18449   0.00000  Uiso   1.00
H416   H     0.86335   0.88924   0.32586   0.00000  Uiso   1.00
H417   H     0.87686   0.81121   0.04083   0.00000  Uiso   1.00
H418   H     0.76090   0.71468   0.45592   0.00000  Uiso   1.00
H419   H     0.87746   0.80900   0.12928   0.00000  Uiso   1.00
H420   H     0.76344   0.71414   0.36780   0.00000  Uiso   1.00
H421   H     0.78922   0.69100   0.11949   0.00000  Uiso   1.00
H422   H     0.90298   0.78626   0.38350   0.00000  Uiso   1.00
H423   H     0.78964   0.68890   0.03114   0.00000  Uiso   1.00
H424   H     0.90543   0.78563   0.47208   0.00000  Uiso   1.00
N425   N     0.83333   0.75001   0.12935   0.00000  Uiso   1.00
N426   N     0.83333   0.74999   0.37065   0.00000  Uiso   1.00
O427   O     0.83334   0.68572   0.29071   0.00000  Uiso   1.00
O428   O     0.83333   0.81427   0.20929   0.00000  Uiso   1.00
O429   O     0.83334   0.68573   0.20928   0.00000  Uiso   1.00
O430   O     0.83333   0.81427   0.29072   0.00000  Uiso   1.00
O431   O     0.75828   0.74999   0.28132   0.00000  Uiso   1.00
O432   O     0.90839   0.75000   0.21868   0.00000  Uiso   1.00
O433   O     0.75828   0.75000   0.19989   0.00000  Uiso   1.00
O434   O     0.90839   0.75000   0.30011   0.00000  Uiso   1.00
C435   C     0.99577   0.69897   0.20346   0.00000  Uiso   1.00
C436   C     0.69674   0.65838   0.21450   0.00000  Uiso   1.00
C437   C     0.67323   0.61680   0.18947   0.00000  Uiso   1.00
H438   H     0.96998   0.60812   0.20363   0.00000  Uiso   1.00
H439   H     0.99942   0.62201   0.14958   0.00000  Uiso   1.00
H440   H     0.70002   0.58875   0.19679   0.00000  Uiso   1.00
H441   H     0.73435   0.66437   0.20128   0.00000  Uiso   1.00
H442   H     0.70291   0.65247   0.25436   0.00000  Uiso   1.00
H443   H     0.95660   0.68800   0.20882   0.00000  Uiso   1.00
H444   H     0.99546   0.70813   0.16458   0.00000  Uiso   1.00
C445   C     0.67097   0.80053   0.29740   0.00000  Uiso   1.00
C446   C     0.97140   0.84176   0.28549   0.00000  Uiso   1.00
C447   C     0.99458   0.88255   0.31248   0.00000  Uiso   1.00
H448   H     0.99836   0.87685   0.35233   0.00000  Uiso   1.00
H449   H     0.69951   0.89034   0.30127   0.00000  Uiso   1.00
H450   H     0.96929   0.91138   0.30377   0.00000  Uiso   1.00
H451   H     0.96771   0.84834   0.24577   0.00000  Uiso   1.00
H452   H     0.93273   0.83613   0.29647   0.00000  Uiso   1.00
H453   H     0.66964   0.79130   0.33606   0.00000  Uiso   1.00
H454   H     0.71068   0.81089   0.29354   0.00000  Uiso   1.00
F455   F     0.87715   0.52657   0.17807   0.00000  Uiso   1.00
F456   F     0.86938   0.97433   0.33394   0.00000  Uiso   1.00
C457   C     0.16691   0.16497   0.75002   0.00000  Uiso   1.00
C458   C     0.16621   0.33508   0.74995   0.00000  Uiso   1.00
C459   C     0.19134   0.28381   0.55671   0.00000  Uiso   1.00
C460   C     0.12661   0.22996   0.94155   0.00000  Uiso   1.00
C461   C     0.19125   0.28297   0.60744   0.00000  Uiso   1.00
C462   C     0.12760   0.23002   0.89092   0.00000  Uiso   1.00
C463   C     0.14207   0.21705   0.60199   0.00000  Uiso   1.00
C464   C     0.20555   0.27018   0.89966   0.00000  Uiso   1.00
C465   C     0.14187   0.21627   0.55122   0.00000  Uiso   1.00
C466   C     0.20646   0.27026   0.95049   0.00000  Uiso   1.00
C467   C     0.16657   0.25006   0.52734   0.00000  Uiso   1.00
C468   C     0.16654   0.25009   0.97265   0.00000  Uiso   1.00
C469   C     0.06819   0.24911   0.73828   0.00000  Uiso   1.00
C470   C     0.26513   0.25097   0.76175   0.00000  Uiso   1.00
C471   C     0.01439   0.23915   0.73497   0.00000  Uiso   1.00
C472   C     0.31898   0.26077   0.76525   0.00000  Uiso   1.00
C473   C     0.14542   0.04737   0.78612   0.00000  Uiso   1.00
C474   C     0.14937   0.45248   0.70750   0.00000  Uiso   1.00
C475   C     0.14577   0.09334   0.78649   0.00000  Uiso   1.00
C476   C     0.14946   0.40651   0.70737   0.00000  Uiso   1.00
C477   C     0.16672   0.11677   0.74984   0.00000  Uiso   1.00
C478   C     0.16619   0.38335   0.75001   0.00000  Uiso   1.00
C479   C     0.18742   0.09392   0.71289   0.00000  Uiso   1.00
C480   C     0.18314   0.40662   0.79271   0.00000  Uiso   1.00
C481   C     0.18808   0.04793   0.71299   0.00000  Uiso   1.00
C482   C     0.18402   0.45261   0.79269   0.00000  Uiso   1.00
C483   C     0.16694   0.02436   0.74967   0.00000  Uiso   1.00
C484   C     0.16692   0.47584   0.75001   0.00000  Uiso   1.00
Cu485  Cu    0.16667   0.24999   0.79821   0.00000  Uiso   1.00
Cu486  Cu    0.16667   0.25000   0.70179   0.00000  Uiso   1.00
H487   H     0.12809   0.02974   0.81413   0.00000  Uiso   1.00
H488   H     0.13524   0.46984   0.67450   0.00000  Uiso   1.00
H489   H     0.12899   0.11055   0.81492   0.00000  Uiso   1.00
H490   H     0.13581   0.38909   0.67414   0.00000  Uiso   1.00
H491   H     0.20401   0.11167   0.68449   0.00000  Uiso   1.00
H492   H     0.19668   0.38924   0.82586   0.00000  Uiso   1.00
H493   H     0.21020   0.31121   0.54083   0.00000  Uiso   1.00
H494   H     0.09424   0.21468   0.95592   0.00000  Uiso   1.00
H495   H     0.21080   0.30900   0.62928   0.00000  Uiso   1.00
H496   H     0.09677   0.21414   0.86780   0.00000  Uiso   1.00
H497   H     0.12255   0.19100   0.61949   0.00000  Uiso   1.00
H498   H     0.23631   0.28626   0.88350   0.00000  Uiso   1.00
H499   H     0.12297   0.18890   0.53114   0.00000  Uiso   1.00
H500   H     0.23877   0.28563   0.97208   0.00000  Uiso   1.00
N501   N     0.16667   0.25001   0.62935   0.00000  Uiso   1.00
N502   N     0.16667   0.24999   0.87065   0.00000  Uiso   1.00
O503   O     0.16667   0.18572   0.79071   0.00000  Uiso   1.00
O504   O     0.16666   0.31427   0.70929   0.00000  Uiso   1.00
O505   O     0.16667   0.18573   0.70928   0.00000  Uiso   1.00
O506   O     0.16666   0.31427   0.79072   0.00000  Uiso   1.00
O507   O     0.09161   0.24999   0.78132   0.00000  Uiso   1.00
O508   O     0.24172   0.25000   0.71868   0.00000  Uiso   1.00
O509   O     0.09161   0.25000   0.69989   0.00000  Uiso   1.00
O510   O     0.24172   0.25000   0.80011   0.00000  Uiso   1.00
C511   C     0.32911   0.19897   0.70346   0.00000  Uiso   1.00
C512   C     0.03007   0.15838   0.71450   0.00000  Uiso   1.00
C513   C     0.00657   0.11680   0.68947   0.00000  Uiso   1.00
H514   H     0.30332   0.10812   0.70363   0.00000  Uiso   1.00
H515   H     0.33275   0.12201   0.64958   0.00000  Uiso   1.00
H516   H     0.03335   0.08875   0.69679   0.00000  Uiso   1.00
H517   H     0.06768   0.16437   0.70128   0.00000  Uiso   1.00
H518   H     0.03625   0.15247   0.75436   0.00000  Uiso   1.00
H519   H     0.28994   0.18800   0.70882   0.00000  Uiso   1.00
H520   H     0.32879   0.20813   0.66458   0.00000  Uiso   1.00
C521   C     0.00430   0.30053   0.79740   0.00000  Uiso   1.00
C522   C     0.30474   0.34176   0.78549   0.00000  Uiso   1.00
C523   C     0.32791   0.38255   0.81248   0.00000  Uiso   1.00
H524   H     0.33169   0.37685   0.85233   0.00000  Uiso   1.00
H525   H     0.03285   0.39034   0.80127   0.00000  Uiso   1.00
H526   H     0.30262   0.41138   0.80377   0.00000  Uiso   1.00
H527   H     0.30105   0.34834   0.74577   0.00000  Uiso   1.00
H528   H     0.26606   0.33613   0.79647   0.00000  Uiso   1.00
H529   H     0.00297   0.29130   0.83606   0.00000  Uiso   1.00
H530   H     0.04401   0.31089   0.79354   0.00000  Uiso   1.00
F531   F     0.21048   0.02657   0.67807   0.00000  Uiso   1.00
F532   F     0.20272   0.47433   0.83394   0.00000  Uiso   1.00
C533   C     0.50025   0.16497   0.75002   0.00000  Uiso   1.00
C534   C     0.49954   0.33508   0.74995   0.00000  Uiso   1.00
C535   C     0.52467   0.28381   0.55671   0.00000  Uiso   1.00
C536   C     0.45994   0.22996   0.94155   0.00000  Uiso   1.00
C537   C     0.52459   0.28297   0.60744   0.00000  Uiso   1.00
C538   C     0.46094   0.23002   0.89092   0.00000  Uiso   1.00
C539   C     0.47540   0.21705   0.60199   0.00000  Uiso   1.00
C540   C     0.53888   0.27018   0.89966   0.00000  Uiso   1.00
C541   C     0.47521   0.21627   0.55122   0.00000  Uiso   1.00
C542   C     0.53979   0.27026   0.95049   0.00000  Uiso   1.00
C543   C     0.49990   0.25006   0.52734   0.00000  Uiso   1.00
C544   C     0.49987   0.25009   0.97265   0.00000  Uiso   1.00
C545   C     0.40153   0.24911   0.73828   0.00000  Uiso   1.00
C546   C     0.59847   0.25097   0.76175   0.00000  Uiso   1.00
C547   C     0.34773   0.23915   0.73497   0.00000  Uiso   1.00
C548   C     0.65231   0.26077   0.76525   0.00000  Uiso   1.00
C549   C     0.47876   0.04737   0.78612   0.00000  Uiso   1.00
C550   C     0.48270   0.45248   0.70750   0.00000  Uiso   1.00
C551   C     0.47910   0.09334   0.78649   0.00000  Uiso   1.00
C552   C     0.48279   0.40651   0.70737   0.00000  Uiso   1.00
C553   C     0.50005   0.11677   0.74984   0.00000  Uiso   1.00
C554   C     0.49953   0.38335   0.75001   0.00000  Uiso   1.00
C555   C     0.52076   0.09392   0.71289   0.00000  Uiso   1.00
C556   C     0.51647   0.40662   0.79271   0.00000  Uiso   1.00
C557   C     0.52142   0.04793   0.71299   0.00000  Uiso   1.00
C558   C     0.51736   0.45261   0.79269   0.00000  Uiso   1.00
C559   C     0.50027   0.02436   0.74967   0.00000  Uiso   1.00
C560   C     0.50026   0.47584   0.75001   0.00000  Uiso   1.00
Cu561  Cu    0.50000   0.24999   0.79821   0.00000  Uiso   1.00
Cu562  Cu    0.50000   0.25000   0.70179   0.00000  Uiso   1.00
H563   H     0.46142   0.02974   0.81413   0.00000  Uiso   1.00
H564   H     0.46858   0.46984   0.67450   0.00000  Uiso   1.00
H565   H     0.46232   0.11055   0.81492   0.00000  Uiso   1.00
H566   H     0.46914   0.38909   0.67414   0.00000  Uiso   1.00
H567   H     0.53734   0.11167   0.68449   0.00000  Uiso   1.00
H568   H     0.53001   0.38924   0.82586   0.00000  Uiso   1.00
H569   H     0.54353   0.31121   0.54083   0.00000  Uiso   1.00
H570   H     0.42757   0.21468   0.95592   0.00000  Uiso   1.00
H571   H     0.54413   0.30900   0.62928   0.00000  Uiso   1.00
H572   H     0.43010   0.21414   0.86780   0.00000  Uiso   1.00
H573   H     0.45589   0.19100   0.61949   0.00000  Uiso   1.00
H574   H     0.56964   0.28626   0.88350   0.00000  Uiso   1.00
H575   H     0.45631   0.18890   0.53114   0.00000  Uiso   1.00
H576   H     0.57210   0.28563   0.97208   0.00000  Uiso   1.00
N577   N     0.50000   0.25001   0.62935   0.00000  Uiso   1.00
N578   N     0.50000   0.24999   0.87065   0.00000  Uiso   1.00
O579   O     0.50000   0.18572   0.79071   0.00000  Uiso   1.00
O580   O     0.50000   0.31427   0.70929   0.00000  Uiso   1.00
O581   O     0.50000   0.18573   0.70928   0.00000  Uiso   1.00
O582   O     0.50000   0.31427   0.79072   0.00000  Uiso   1.00
O583   O     0.42495   0.24999   0.78132   0.00000  Uiso   1.00
O584   O     0.57505   0.25000   0.71868   0.00000  Uiso   1.00
O585   O     0.42495   0.25000   0.69989   0.00000  Uiso   1.00
O586   O     0.57505   0.25000   0.80011   0.00000  Uiso   1.00
C587   C     0.66244   0.19897   0.70346   0.00000  Uiso   1.00
C588   C     0.36341   0.15838   0.71450   0.00000  Uiso   1.00
C589   C     0.33990   0.11680   0.68947   0.00000  Uiso   1.00
H590   H     0.63665   0.10812   0.70363   0.00000  Uiso   1.00
H591   H     0.66608   0.12201   0.64958   0.00000  Uiso   1.00
H592   H     0.36669   0.08875   0.69679   0.00000  Uiso   1.00
H593   H     0.40101   0.16437   0.70128   0.00000  Uiso   1.00
H594   H     0.36958   0.15247   0.75436   0.00000  Uiso   1.00
H595   H     0.62327   0.18800   0.70882   0.00000  Uiso   1.00
H596   H     0.66212   0.20813   0.66458   0.00000  Uiso   1.00
C597   C     0.33764   0.30053   0.79740   0.00000  Uiso   1.00
C598   C     0.63807   0.34176   0.78549   0.00000  Uiso   1.00
C599   C     0.66124   0.38255   0.81248   0.00000  Uiso   1.00
H600   H     0.66503   0.37685   0.85233   0.00000  Uiso   1.00
H601   H     0.36618   0.39034   0.80127   0.00000  Uiso   1.00
H602   H     0.63595   0.41138   0.80377   0.00000  Uiso   1.00
H603   H     0.63438   0.34834   0.74577   0.00000  Uiso   1.00
H604   H     0.59940   0.33613   0.79647   0.00000  Uiso   1.00
H605   H     0.33631   0.29130   0.83606   0.00000  Uiso   1.00
H606   H     0.37734   0.31089   0.79354   0.00000  Uiso   1.00
F607   F     0.54382   0.02657   0.67807   0.00000  Uiso   1.00
F608   F     0.53605   0.47433   0.83394   0.00000  Uiso   1.00
C609   C     0.83358   0.16497   0.75002   0.00000  Uiso   1.00
C610   C     0.83288   0.33508   0.74995   0.00000  Uiso   1.00
C611   C     0.85800   0.28381   0.55671   0.00000  Uiso   1.00
C612   C     0.79327   0.22996   0.94155   0.00000  Uiso   1.00
C613   C     0.85792   0.28297   0.60744   0.00000  Uiso   1.00
C614   C     0.79427   0.23002   0.89092   0.00000  Uiso   1.00
C615   C     0.80874   0.21705   0.60199   0.00000  Uiso   1.00
C616   C     0.87222   0.27018   0.89966   0.00000  Uiso   1.00
C617   C     0.80854   0.21627   0.55122   0.00000  Uiso   1.00
C618   C     0.87312   0.27026   0.95049   0.00000  Uiso   1.00
C619   C     0.83323   0.25006   0.52734   0.00000  Uiso   1.00
C620   C     0.83321   0.25009   0.97265   0.00000  Uiso   1.00
C621   C     0.73486   0.24911   0.73828   0.00000  Uiso   1.00
C622   C     0.93180   0.25097   0.76175   0.00000  Uiso   1.00
C623   C     0.68106   0.23915   0.73497   0.00000  Uiso   1.00
C624   C     0.98565   0.26077   0.76525   0.00000  Uiso   1.00
C625   C     0.81209   0.04737   0.78612   0.00000  Uiso   1.00
C626   C     0.81604   0.45248   0.70750   0.00000  Uiso   1.00
C627   C     0.81244   0.09334   0.78649   0.00000  Uiso   1.00
C628   C     0.81613   0.40651   0.70737   0.00000  Uiso   1.00
C629   C     0.83339   0.11677   0.74984   0.00000  Uiso   1.00
C630   C     0.83286   0.38335   0.75001   0.00000  Uiso   1.00
C631   C     0.85409   0.09392   0.71289   0.00000  Uiso   1.00
C632   C     0.84980   0.40662   0.79271   0.00000  Uiso   1.00
C633   C     0.85475   0.04793   0.71299   0.00000  Uiso   1.00
C634   C     0.85069   0.45261   0.79269   0.00000  Uiso   1.00
C635   C     0.83360   0.02436   0.74967   0.00000  Uiso   1.00
C636   C     0.83359   0.47584   0.75001   0.00000  Uiso   1.00
Cu637  Cu    0.83333   0.24999   0.79821   0.00000  Uiso   1.00
Cu638  Cu    0.83333   0.25000   0.70179   0.00000  Uiso   1.00
H639   H     0.79476   0.02974   0.81413   0.00000  Uiso   1.00
H640   H     0.80191   0.46984   0.67450   0.00000  Uiso   1.00
H641   H     0.79566   0.11055   0.81492   0.00000  Uiso   1.00
H642   H     0.80248   0.38909   0.67414   0.00000  Uiso   1.00
H643   H     0.87068   0.11167   0.68449   0.00000  Uiso   1.00
H644   H     0.86335   0.38924   0.82586   0.00000  Uiso   1.00
H645   H     0.87686   0.31121   0.54083   0.00000  Uiso   1.00
H646   H     0.76090   0.21468   0.95592   0.00000  Uiso   1.00
H647   H     0.87746   0.30900   0.62928   0.00000  Uiso   1.00
H648   H     0.76344   0.21414   0.86780   0.00000  Uiso   1.00
H649   H     0.78922   0.19100   0.61949   0.00000  Uiso   1.00
H650   H     0.90298   0.28626   0.88350   0.00000  Uiso   1.00
H651   H     0.78964   0.18890   0.53114   0.00000  Uiso   1.00
H652   H     0.90543   0.28563   0.97208   0.00000  Uiso   1.00
N653   N     0.83333   0.25001   0.62935   0.00000  Uiso   1.00
N654   N     0.83333   0.24999   0.87065   0.00000  Uiso   1.00
O655   O     0.83334   0.18572   0.79071   0.00000  Uiso   1.00
O656   O     0.83333   0.31427   0.70929   0.00000  Uiso   1.00
O657   O     0.83334   0.18573   0.70928   0.00000  Uiso   1.00
O658   O     0.83333   0.31427   0.79072   0.00000  Uiso   1.00
O659   O     0.75828   0.24999   0.78132   0.00000  Uiso   1.00
O660   O     0.90839   0.25000   0.71868   0.00000  Uiso   1.00
O661   O     0.75828   0.25000   0.69989   0.00000  Uiso   1.00
O662   O     0.90839   0.25000   0.80011   0.00000  Uiso   1.00
C663   C     0.99577   0.19897   0.70346   0.00000  Uiso   1.00
C664   C     0.69674   0.15838   0.71450   0.00000  Uiso   1.00
C665   C     0.67323   0.11680   0.68947   0.00000  Uiso   1.00
H666   H     0.96998   0.10812   0.70363   0.00000  Uiso   1.00
H667   H     0.99942   0.12201   0.64958   0.00000  Uiso   1.00
H668   H     0.70002   0.08875   0.69679   0.00000  Uiso   1.00
H669   H     0.73435   0.16437   0.70128   0.00000  Uiso   1.00
H670   H     0.70291   0.15247   0.75436   0.00000  Uiso   1.00
H671   H     0.95660   0.18800   0.70882   0.00000  Uiso   1.00
H672   H     0.99546   0.20813   0.66458   0.00000  Uiso   1.00
C673   C     0.67097   0.30053   0.79740   0.00000  Uiso   1.00
C674   C     0.97140   0.34176   0.78549   0.00000  Uiso   1.00
C675   C     0.99458   0.38255   0.81248   0.00000  Uiso   1.00
H676   H     0.99836   0.37685   0.85233   0.00000  Uiso   1.00
H677   H     0.69951   0.39034   0.80127   0.00000  Uiso   1.00
H678   H     0.96929   0.41138   0.80377   0.00000  Uiso   1.00
H679   H     0.96771   0.34834   0.74577   0.00000  Uiso   1.00
H680   H     0.93273   0.33613   0.79647   0.00000  Uiso   1.00
H681   H     0.66964   0.29130   0.83606   0.00000  Uiso   1.00
H682   H     0.71068   0.31089   0.79354   0.00000  Uiso   1.00
F683   F     0.87715   0.02657   0.67807   0.00000  Uiso   1.00
F684   F     0.86938   0.47433   0.83394   0.00000  Uiso   1.00
C685   C     0.16691   0.66497   0.75002   0.00000  Uiso   1.00
C686   C     0.16621   0.83508   0.74995   0.00000  Uiso   1.00
C687   C     0.19134   0.78381   0.55671   0.00000  Uiso   1.00
C688   C     0.12661   0.72996   0.94155   0.00000  Uiso   1.00
C689   C     0.19125   0.78297   0.60744   0.00000  Uiso   1.00
C690   C     0.12760   0.73002   0.89092   0.00000  Uiso   1.00
C691   C     0.14207   0.71705   0.60199   0.00000  Uiso   1.00
C692   C     0.20555   0.77018   0.89966   0.00000  Uiso   1.00
C693   C     0.14187   0.71627   0.55122   0.00000  Uiso   1.00
C694   C     0.20646   0.77026   0.95049   0.00000  Uiso   1.00
C695   C     0.16657   0.75006   0.52734   0.00000  Uiso   1.00
C696   C     0.16654   0.75009   0.97265   0.00000  Uiso   1.00
C697   C     0.06819   0.74911   0.73828   0.00000  Uiso   1.00
C698   C     0.26513   0.75097   0.76175   0.00000  Uiso   1.00
C699   C     0.01439   0.73915   0.73497   0.00000  Uiso   1.00
C700   C     0.31898   0.76077   0.76525   0.00000  Uiso   1.00
C701   C     0.14542   0.54737   0.78612   0.00000  Uiso   1.00
C702   C     0.14937   0.95248   0.70750   0.00000  Uiso   1.00
C703   C     0.14577   0.59334   0.78649   0.00000  Uiso   1.00
C704   C     0.14946   0.90651   0.70737   0.00000  Uiso   1.00
C705   C     0.16672   0.61677   0.74984   0.00000  Uiso   1.00
C706   C     0.16619   0.88335   0.75001   0.00000  Uiso   1.00
C707   C     0.18742   0.59392   0.71289   0.00000  Uiso   1.00
C708   C     0.18314   0.90662   0.79271   0.00000  Uiso   1.00
C709   C     0.18808   0.54793   0.71299   0.00000  Uiso   1.00
C710   C     0.18402   0.95261   0.79269   0.00000  Uiso   1.00
C711   C     0.16694   0.52436   0.74967   0.00000  Uiso   1.00
C712   C     0.16692   0.97584   0.75001   0.00000  Uiso   1.00
Cu713  Cu    0.16667   0.74999   0.79821   0.00000  Uiso   1.00
Cu714  Cu    0.16667   0.75000   0.70179   0.00000  Uiso   1.00
H715   H     0.12809   0.52974   0.81413   0.00000  Uiso   1.00
H716   H     0.13524   0.96984   0.67450   0.00000  Uiso   1.00
H717   H     0.12899   0.61055   0.81492   0.00000  Uiso   1.00
H718   H     0.13581   0.88909   0.67414   0.00000  Uiso   1.00
H719   H     0.20401   0.61167   0.68449   0.00000  Uiso   1.00
H720   H     0.19668   0.88924   0.82586   0.00000  Uiso   1.00
H721   H     0.21020   0.81121   0.54083   0.00000  Uiso   1.00
H722   H     0.09424   0.71468   0.95592   0.00000  Uiso   1.00
H723   H     0.21080   0.80900   0.62928   0.00000  Uiso   1.00
H724   H     0.09677   0.71414   0.86780   0.00000  Uiso   1.00
H725   H     0.12255   0.69100   0.61949   0.00000  Uiso   1.00
H726   H     0.23631   0.78626   0.88350   0.00000  Uiso   1.00
H727   H     0.12297   0.68890   0.53114   0.00000  Uiso   1.00
H728   H     0.23877   0.78563   0.97208   0.00000  Uiso   1.00
N729   N     0.16667   0.75001   0.62935   0.00000  Uiso   1.00
N730   N     0.16667   0.74999   0.87065   0.00000  Uiso   1.00
O731   O     0.16667   0.68572   0.79071   0.00000  Uiso   1.00
O732   O     0.16666   0.81427   0.70929   0.00000  Uiso   1.00
O733   O     0.16667   0.68573   0.70928   0.00000  Uiso   1.00
O734   O     0.16666   0.81427   0.79072   0.00000  Uiso   1.00
O735   O     0.09161   0.74999   0.78132   0.00000  Uiso   1.00
O736   O     0.24172   0.75000   0.71868   0.00000  Uiso   1.00
O737   O     0.09161   0.75000   0.69989   0.00000  Uiso   1.00
O738   O     0.24172   0.75000   0.80011   0.00000  Uiso   1.00
C739   C     0.32911   0.69897   0.70346   0.00000  Uiso   1.00
C740   C     0.03007   0.65838   0.71450   0.00000  Uiso   1.00
C741   C     0.00657   0.61680   0.68947   0.00000  Uiso   1.00
H742   H     0.30332   0.60812   0.70363   0.00000  Uiso   1.00
H743   H     0.33275   0.62201   0.64958   0.00000  Uiso   1.00
H744   H     0.03335   0.58875   0.69679   0.00000  Uiso   1.00
H745   H     0.06768   0.66437   0.70128   0.00000  Uiso   1.00
H746   H     0.03625   0.65247   0.75436   0.00000  Uiso   1.00
H747   H     0.28994   0.68800   0.70882   0.00000  Uiso   1.00
H748   H     0.32879   0.70813   0.66458   0.00000  Uiso   1.00
C749   C     0.00430   0.80053   0.79740   0.00000  Uiso   1.00
C750   C     0.30474   0.84176   0.78549   0.00000  Uiso   1.00
C751   C     0.32791   0.88255   0.81248   0.00000  Uiso   1.00
H752   H     0.33169   0.87685   0.85233   0.00000  Uiso   1.00
H753   H     0.03285   0.89034   0.80127   0.00000  Uiso   1.00
H754   H     0.30262   0.91138   0.80377   0.00000  Uiso   1.00
H755   H     0.30105   0.84834   0.74577   0.00000  Uiso   1.00
H756   H     0.26606   0.83613   0.79647   0.00000  Uiso   1.00
H757   H     0.00297   0.79130   0.83606   0.00000  Uiso   1.00
H758   H     0.04401   0.81089   0.79354   0.00000  Uiso   1.00
F759   F     0.21048   0.52657   0.67807   0.00000  Uiso   1.00
F760   F     0.20272   0.97433   0.83394   0.00000  Uiso   1.00
C761   C     0.50025   0.66497   0.75002   0.00000  Uiso   1.00
C762   C     0.49954   0.83508   0.74995   0.00000  Uiso   1.00
C763   C     0.52467   0.78381   0.55671   0.00000  Uiso   1.00
C764   C     0.45994   0.72996   0.94155   0.00000  Uiso   1.00
C765   C     0.52459   0.78297   0.60744   0.00000  Uiso   1.00
C766   C     0.46094   0.73002   0.89092   0.00000  Uiso   1.00
C767   C     0.47540   0.71705   0.60199   0.00000  Uiso   1.00
C768   C     0.53888   0.77018   0.89966   0.00000  Uiso   1.00
C769   C     0.47521   0.71627   0.55122   0.00000  Uiso   1.00
C770   C     0.53979   0.77026   0.95049   0.00000  Uiso   1.00
C771   C     0.49990   0.75006   0.52734   0.00000  Uiso   1.00
C772   C     0.49987   0.75009   0.97265   0.00000  Uiso   1.00
C773   C     0.40153   0.74911   0.73828   0.00000  Uiso   1.00
C774   C     0.59847   0.75097   0.76175   0.00000  Uiso   1.00
C775   C     0.34773   0.73915   0.73497   0.00000  Uiso   1.00
C776   C     0.65231   0.76077   0.76525   0.00000  Uiso   1.00
C777   C     0.47876   0.54737   0.78612   0.00000  Uiso   1.00
C778   C     0.48270   0.95248   0.70750   0.00000  Uiso   1.00
C779   C     0.47910   0.59334   0.78649   0.00000  Uiso   1.00
C780   C     0.48279   0.90651   0.70737   0.00000  Uiso   1.00
C781   C     0.50005   0.61677   0.74984   0.00000  Uiso   1.00
C782   C     0.49953   0.88335   0.75001   0.00000  Uiso   1.00
C783   C     0.52076   0.59392   0.71289   0.00000  Uiso   1.00
C784   C     0.51647   0.90662   0.79271   0.00000  Uiso   1.00
C785   C     0.52142   0.54793   0.71299   0.00000  Uiso   1.00
C786   C     0.51736   0.95261   0.79269   0.00000  Uiso   1.00
C787   C     0.50027   0.52436   0.74967   0.00000  Uiso   1.00
C788   C     0.50026   0.97584   0.75001   0.00000  Uiso   1.00
Cu789  Cu    0.50000   0.74999   0.79821   0.00000  Uiso   1.00
Cu790  Cu    0.50000   0.75000   0.70179   0.00000  Uiso   1.00
H791   H     0.46142   0.52974   0.81413   0.00000  Uiso   1.00
H792   H     0.46858   0.96984   0.67450   0.00000  Uiso   1.00
H793   H     0.46232   0.61055   0.81492   0.00000  Uiso   1.00
H794   H     0.46914   0.88909   0.67414   0.00000  Uiso   1.00
H795   H     0.53734   0.61167   0.68449   0.00000  Uiso   1.00
H796   H     0.53001   0.88924   0.82586   0.00000  Uiso   1.00
H797   H     0.54353   0.81121   0.54083   0.00000  Uiso   1.00
H798   H     0.42757   0.71468   0.95592   0.00000  Uiso   1.00
H799   H     0.54413   0.80900   0.62928   0.00000  Uiso   1.00
H800   H     0.43010   0.71414   0.86780   0.00000  Uiso   1.00
H801   H     0.45589   0.69100   0.61949   0.00000  Uiso   1.00
H802   H     0.56964   0.78626   0.88350   0.00000  Uiso   1.00
H803   H     0.45631   0.68890   0.53114   0.00000  Uiso   1.00
H804   H     0.57210   0.78563   0.97208   0.00000  Uiso   1.00
N805   N     0.50000   0.75001   0.62935   0.00000  Uiso   1.00
N806   N     0.50000   0.74999   0.87065   0.00000  Uiso   1.00
O807   O     0.50000   0.68572   0.79071   0.00000  Uiso   1.00
O808   O     0.50000   0.81427   0.70929   0.00000  Uiso   1.00
O809   O     0.50000   0.68573   0.70928   0.00000  Uiso   1.00
O810   O     0.50000   0.81427   0.79072   0.00000  Uiso   1.00
O811   O     0.42495   0.74999   0.78132   0.00000  Uiso   1.00
O812   O     0.57505   0.75000   0.71868   0.00000  Uiso   1.00
O813   O     0.42495   0.75000   0.69989   0.00000  Uiso   1.00
O814   O     0.57505   0.75000   0.80011   0.00000  Uiso   1.00
C815   C     0.66244   0.69897   0.70346   0.00000  Uiso   1.00
C816   C     0.36341   0.65838   0.71450   0.00000  Uiso   1.00
C817   C     0.33990   0.61680   0.68947   0.00000  Uiso   1.00
H818   H     0.63665   0.60812   0.70363   0.00000  Uiso   1.00
H819   H     0.66608   0.62201   0.64958   0.00000  Uiso   1.00
H820   H     0.36669   0.58875   0.69679   0.00000  Uiso   1.00
H821   H     0.40101   0.66437   0.70128   0.00000  Uiso   1.00
H822   H     0.36958   0.65247   0.75436   0.00000  Uiso   1.00
H823   H     0.62327   0.68800   0.70882   0.00000  Uiso   1.00
H824   H     0.66212   0.70813   0.66458   0.00000  Uiso   1.00
C825   C     0.33764   0.80053   0.79740   0.00000  Uiso   1.00
C826   C     0.63807   0.84176   0.78549   0.00000  Uiso   1.00
C827   C     0.66124   0.88255   0.81248   0.00000  Uiso   1.00
H828   H     0.66503   0.87685   0.85233   0.00000  Uiso   1.00
H829   H     0.36618   0.89034   0.80127   0.00000  Uiso   1.00
H830   H     0.63595   0.91138   0.80377   0.00000  Uiso   1.00
H831   H     0.63438   0.84834   0.74577   0.00000  Uiso   1.00
H832   H     0.59940   0.83613   0.79647   0.00000  Uiso   1.00
H833   H     0.33631   0.79130   0.83606   0.00000  Uiso   1.00
H834   H     0.37734   0.81089   0.79354   0.00000  Uiso   1.00
F835   F     0.54382   0.52657   0.67807   0.00000  Uiso   1.00
F836   F     0.53605   0.97433   0.83394   0.00000  Uiso   1.00
C837   C     0.83358   0.66497   0.75002   0.00000  Uiso   1.00
C838   C     0.83288   0.83508   0.74995   0.00000  Uiso   1.00
C839   C     0.85800   0.78381   0.55671   0.00000  Uiso   1.00
C840   C     0.79327   0.72996   0.94155   0.00000  Uiso   1.00
C841   C     0.85792   0.78297   0.60744   0.00000  Uiso   1.00
C842   C     0.79427   0.73002   0.89092   0.00000  Uiso   1.00
C843   C     0.80874   0.71705   0.60199   0.00000  Uiso   1.00
C844   C     0.87222   0.77018   0.89966   0.00000  Uiso   1.00
C845   C     0.80854   0.71627   0.55122   0.00000  Uiso   1.00
C846   C     0.87312   0.77026   0.95049   0.00000  Uiso   1.00
C847   C     0.83323   0.75006   0.52734   0.00000  Uiso   1.00
C848   C     0.83321   0.75009   0.97265   0.00000  Uiso   1.00
C849   C     0.73486   0.74911   0.73828   0.00000  Uiso   1.00
C850   C     0.93180   0.75097   0.76175   0.00000  Uiso   1.00
C851   C     0.68106   0.73915   0.73497   0.00000  Uiso   1.00
C852   C     0.98565   0.76077   0.76525   0.00000  Uiso   1.00
C853   C     0.81209   0.54737   0.78612   0.00000  Uiso   1.00
C854   C     0.81604   0.95248   0.70750   0.00000  Uiso   1.00
C855   C     0.81244   0.59334   0.78649   0.00000  Uiso   1.00
C856   C     0.81613   0.90651   0.70737   0.00000  Uiso   1.00
C857   C     0.83339   0.61677   0.74984   0.00000  Uiso   1.00
C858   C     0.83286   0.88335   0.75001   0.00000  Uiso   1.00
C859   C     0.85409   0.59392   0.71289   0.00000  Uiso   1.00
C860   C     0.84980   0.90662   0.79271   0.00000  Uiso   1.00
C861   C     0.85475   0.54793   0.71299   0.00000  Uiso   1.00
C862   C     0.85069   0.95261   0.79269   0.00000  Uiso   1.00
C863   C     0.83360   0.52436   0.74967   0.00000  Uiso   1.00
C864   C     0.83359   0.97584   0.75001   0.00000  Uiso   1.00
Cu865  Cu    0.83333   0.74999   0.79821   0.00000  Uiso   1.00
Cu866  Cu    0.83333   0.75000   0.70179   0.00000  Uiso   1.00
H867   H     0.79476   0.52974   0.81413   0.00000  Uiso   1.00
H868   H     0.80191   0.96984   0.67450   0.00000  Uiso   1.00
H869   H     0.79566   0.61055   0.81492   0.00000  Uiso   1.00
H870   H     0.80248   0.88909   0.67414   0.00000  Uiso   1.00
H871   H     0.87068   0.61167   0.68449   0.00000  Uiso   1.00
H872   H     0.86335   0.88924   0.82586   0.00000  Uiso   1.00
H873   H     0.87686   0.81121   0.54083   0.00000  Uiso   1.00
H874   H     0.76090   0.71468   0.95592   0.00000  Uiso   1.00
H875   H     0.87746   0.80900   0.62928   0.00000  Uiso   1.00
H876   H     0.76344   0.71414   0.86780   0.00000  Uiso   1.00
H877   H     0.78922   0.69100   0.61949   0.00000  Uiso   1.00
H878   H     0.90298   0.78626   0.88350   0.00000  Uiso   1.00
H879   H     0.78964   0.68890   0.53114   0.00000  Uiso   1.00
H880   H     0.90543   0.78563   0.97208   0.00000  Uiso   1.00
N881   N     0.83333   0.75001   0.62935   0.00000  Uiso   1.00
N882   N     0.83333   0.74999   0.87065   0.00000  Uiso   1.00
O883   O     0.83334   0.68572   0.79071   0.00000  Uiso   1.00
O884   O     0.83333   0.81427   0.70929   0.00000  Uiso   1.00
O885   O     0.83334   0.68573   0.70928   0.00000  Uiso   1.00
O886   O     0.83333   0.81427   0.79072   0.00000  Uiso   1.00
O887   O     0.75828   0.74999   0.78132   0.00000  Uiso   1.00
O888   O     0.90839   0.75000   0.71868   0.00000  Uiso   1.00
O889   O     0.75828   0.75000   0.69989   0.00000  Uiso   1.00
O890   O     0.90839   0.75000   0.80011   0.00000  Uiso   1.00
C891   C     0.99577   0.69897   0.70346   0.00000  Uiso   1.00
C892   C     0.69674   0.65838   0.71450   0.00000  Uiso   1.00
C893   C     0.67323   0.61680   0.68947   0.00000  Uiso   1.00
H894   H     0.96998   0.60812   0.70363   0.00000  Uiso   1.00
H895   H     0.99942   0.62201   0.64958   0.00000  Uiso   1.00
H896   H     0.70002   0.58875   0.69679   0.00000  Uiso   1.00
H897   H     0.73435   0.66437   0.70128   0.00000  Uiso   1.00
H898   H     0.70291   0.65247   0.75436   0.00000  Uiso   1.00
H899   H     0.95660   0.68800   0.70882   0.00000  Uiso   1.00
H900   H     0.99546   0.70813   0.66458   0.00000  Uiso   1.00
C901   C     0.67097   0.80053   0.79740   0.00000  Uiso   1.00
C902   C     0.97140   0.84176   0.78549   0.00000  Uiso   1.00
C903   C     0.99458   0.88255   0.81248   0.00000  Uiso   1.00
H904   H     0.99836   0.87685   0.85233   0.00000  Uiso   1.00
H905   H     0.69951   0.89034   0.80127   0.00000  Uiso   1.00
H906   H     0.96929   0.91138   0.80377   0.00000  Uiso   1.00
H907   H     0.96771   0.84834   0.74577   0.00000  Uiso   1.00
H908   H     0.93273   0.83613   0.79647   0.00000  Uiso   1.00
H909   H     0.66964   0.79130   0.83606   0.00000  Uiso   1.00
H910   H     0.71068   0.81089   0.79354   0.00000  Uiso   1.00
F911   F     0.87715   0.52657   0.67807   0.00000  Uiso   1.00
F912   F     0.86938   0.97433   0.83394   0.00000  Uiso   1.00
loop_
_geom_bond_atom_site_label_1
_geom_bond_atom_site_label_2
_geom_bond_distance
_geom_bond_site_symmetry_2
_ccdc_geom_bond_type
C1     C21     1.457   .     S
C1     O47     1.292   .     A
C1     O49     1.291   .     A
C2     O50     1.292   .     A
C2     C22     1.459   .     S
C2     O48     1.292   .     A
C3     C5      1.407   .     A
C3     C11     1.411   .     A
C3     H37     1.081   .     S
C4     C12     1.411   .     A
C4     C6      1.407   .     A
C4     H38     1.081   .     S
C5     N45     1.363   .     A
C5     H39     1.081   .     S
C6     H40     1.081   .     S
C6     N46     1.364   .     A
C7     N45     1.364   .     A
C7     H41     1.082   .     S
C7     C9      1.407   .     A
C8     H42     1.081   .     S
C8     N46     1.364   .     A
C8     C10     1.407   .     A
C9     H43     1.081   .     S
C9     C11     1.411   .     A
C10    H44     1.081   .     S
C10    C12     1.411   .     A
C11    C468    1.516   1_554 S
C12    C467    1.516   .     S
C13    O51     1.277   .     A
C13    O53     1.291   .     A
C13    C15     1.436   .     S
C14    O52     1.278   .     A
C14    O54     1.290   .     A
C14    C16     1.436   .     S
C15    C168    1.365   1_455 S
C15    C207    1.539   1_455 S
C16    C91     1.365   .     S
C16    C141    1.539   .     S
C17    C27     1.403   .     A
C17    H31     1.083   .     S
C17    C19     1.390   .     A
C18    C20     1.390   .     A
C18    C28     1.402   .     A
C18    H32     1.083   .     S
C19    C21     1.400   .     A
C19    H33     1.083   .     S
C20    H34     1.083   .     S
C20    C22     1.401   .     A
C21    C23     1.401   .     A
C22    C24     1.402   .     A
C23    H35     1.083   .     S
C23    C25     1.390   .     A
C24    H36     1.083   .     S
C24    C26     1.390   .     A
C25    C27     1.406   .     A
C25    F75     1.358   .     S
C26    F76     1.358   .     S
C26    C28     1.405   .     A
C27    C256    1.467   1_545 S
C28    C255    1.467   .     S
Cu29   O47     1.954   .     S
Cu29   O54     1.969   .     S
Cu29   O50     1.954   .     S
Cu29   Cu30    2.673   .     S
Cu29   O51     1.975   .     S
Cu29   N46     2.008   .     S
Cu30   N45     2.008   .     S
Cu30   O48     1.954   .     S
Cu30   O53     1.969   .     S
Cu30   O49     1.954   .     S
Cu30   O52     1.975   .     S
C55    H63     1.106   .     S
C55    H64     1.111   .     S
C55    C91     1.539   .     S
C55    C132    1.539   .     S
C56    C57     1.526   .     S
C56    H62     1.112   .     S
C56    H61     1.108   .     S
C56    C207    1.539   1_455 S
C57    H60     1.111   .     S
C57    H210    1.110   1_455 S
C57    H211    1.111   1_455 S
H58    C133    1.110   .     S
H59    C133    1.111   .     S
C65    H73     1.112   .     S
C65    H74     1.105   .     S
C65    C168    1.539   1_455 S
C65    C218    1.538   1_455 S
C66    C67     1.527   .     S
C66    H72     1.107   .     S
C66    H71     1.112   .     S
C66    C141    1.538   .     S
C67    H68     1.111   .     S
C67    H70     1.110   .     S
C67    H145    1.111   .     S
H69    C219    1.111   1_455 S
C77    C97     1.457   .     S
C77    O123    1.292   .     A
C77    O125    1.291   .     A
C78    O126    1.292   .     A
C78    C98     1.459   .     S
C78    O124    1.292   .     A
C79    C81     1.407   .     A
C79    C87     1.411   .     A
C79    H113    1.081   .     S
C80    C88     1.411   .     A
C80    C82     1.407   .     A
C80    H114    1.081   .     S
C81    N121    1.363   .     A
C81    H115    1.081   .     S
C82    H116    1.081   .     S
C82    N122    1.364   .     A
C83    N121    1.364   .     A
C83    H117    1.082   .     S
C83    C85     1.407   .     A
C84    H118    1.081   .     S
C84    N122    1.364   .     A
C84    C86     1.407   .     A
C85    H119    1.081   .     S
C85    C87     1.411   .     A
C86    H120    1.081   .     S
C86    C88     1.411   .     A
C87    C544    1.516   1_554 S
C88    C543    1.516   .     S
C89    O127    1.277   .     A
C89    O129    1.291   .     A
C89    C91     1.436   .     S
C90    O128    1.278   .     A
C90    O130    1.290   .     A
C90    C92     1.436   .     S
C92    C167    1.365   .     S
C92    C217    1.539   .     S
C93    C103    1.403   .     A
C93    H107    1.083   .     S
C93    C95     1.390   .     A
C94    C96     1.390   .     A
C94    C104    1.402   .     A
C94    H108    1.083   .     S
C95    C97     1.400   .     A
C95    H109    1.083   .     S
C96    H110    1.083   .     S
C96    C98     1.401   .     A
C97    C99     1.401   .     A
C98    C100    1.402   .     A
C99    H111    1.083   .     S
C99    C101    1.390   .     A
C100   H112    1.083   .     S
C100   C102    1.390   .     A
C101   C103    1.406   .     A
C101   F151    1.358   .     S
C102   F152    1.358   .     S
C102   C104    1.405   .     A
C103   C332    1.467   1_545 S
C104   C331    1.467   .     S
Cu105  O123    1.954   .     S
Cu105  O130    1.969   .     S
Cu105  O126    1.954   .     S
Cu105  Cu106   2.673   .     S
Cu105  O127    1.975   .     S
Cu105  N122    2.008   .     S
Cu106  N121    2.008   .     S
Cu106  O124    1.954   .     S
Cu106  O129    1.969   .     S
Cu106  O125    1.954   .     S
Cu106  O128    1.975   .     S
C131   H139    1.106   .     S
C131   H140    1.111   .     S
C131   C167    1.539   .     S
C131   C208    1.539   .     S
C132   C133    1.526   .     S
C132   H138    1.112   .     S
C132   H137    1.108   .     S
C133   H136    1.111   .     S
H134   C209    1.110   .     S
H135   C209    1.111   .     S
C141   H149    1.112   .     S
C141   H150    1.105   .     S
C142   C143    1.527   .     S
C142   H148    1.107   .     S
C142   H147    1.112   .     S
C142   C217    1.538   .     S
C143   H144    1.111   .     S
C143   H146    1.110   .     S
C143   H221    1.111   .     S
C153   C173    1.457   .     S
C153   O199    1.292   .     A
C153   O201    1.291   .     A
C154   O202    1.292   .     A
C154   C174    1.459   .     S
C154   O200    1.292   .     A
C155   C157    1.407   .     A
C155   C163    1.411   .     A
C155   H189    1.081   .     S
C156   C164    1.411   .     A
C156   C158    1.407   .     A
C156   H190    1.081   .     S
C157   N197    1.363   .     A
C157   H191    1.081   .     S
C158   H192    1.081   .     S
C158   N198    1.364   .     A
C159   N197    1.364   .     A
C159   H193    1.082   .     S
C159   C161    1.407   .     A
C160   H194    1.081   .     S
C160   N198    1.364   .     A
C160   C162    1.407   .     A
C161   H195    1.081   .     S
C161   C163    1.411   .     A
C162   H196    1.081   .     S
C162   C164    1.411   .     A
C163   C620    1.516   1_554 S
C164   C619    1.516   .     S
C165   O203    1.277   .     A
C165   O205    1.291   .     A
C165   C167    1.436   .     S
C166   O204    1.278   .     A
C166   O206    1.290   .     A
C166   C168    1.436   .     S
C168   C15     1.365   1_655 S
C168   C65     1.539   1_655 S
C169   C179    1.403   .     A
C169   H183    1.083   .     S
C169   C171    1.390   .     A
C170   C172    1.390   .     A
C170   C180    1.402   .     A
C170   H184    1.083   .     S
C171   C173    1.400   .     A
C171   H185    1.083   .     S
C172   H186    1.083   .     S
C172   C174    1.401   .     A
C173   C175    1.401   .     A
C174   C176    1.402   .     A
C175   H187    1.083   .     S
C175   C177    1.390   .     A
C176   H188    1.083   .     S
C176   C178    1.390   .     A
C177   C179    1.406   .     A
C177   F227    1.358   .     S
C178   F228    1.358   .     S
C178   C180    1.405   .     A
C179   C408    1.467   1_545 S
C180   C407    1.467   .     S
Cu181  O199    1.954   .     S
Cu181  O206    1.969   .     S
Cu181  O202    1.954   .     S
Cu181  Cu182   2.673   .     S
Cu181  O203    1.975   .     S
Cu181  N198    2.008   .     S
Cu182  N197    2.008   .     S
Cu182  O200    1.954   .     S
Cu182  O205    1.969   .     S
Cu182  O201    1.954   .     S
Cu182  O204    1.975   .     S
C207   H215    1.106   .     S
C207   H216    1.111   .     S
C207   C15     1.539   1_655 S
C207   C56     1.539   1_655 S
C208   C209    1.526   .     S
C208   H214    1.112   .     S
C208   H213    1.108   .     S
C209   H212    1.111   .     S
H210   C57     1.110   1_655 S
H211   C57     1.111   1_655 S
C217   H225    1.112   .     S
C217   H226    1.105   .     S
C218   C219    1.527   .     S
C218   H224    1.107   .     S
C218   H223    1.112   .     S
C218   C65     1.538   1_655 S
C219   H220    1.111   .     S
C219   H222    1.110   .     S
C219   H69     1.111   1_655 S
C229   C249    1.457   .     S
C229   O275    1.292   .     A
C229   O277    1.291   .     A
C230   O278    1.292   .     A
C230   C250    1.459   .     S
C230   O276    1.292   .     A
C231   C233    1.407   .     A
C231   C239    1.411   .     A
C231   H265    1.081   .     S
C232   C240    1.411   .     A
C232   C234    1.407   .     A
C232   H266    1.081   .     S
C233   N273    1.363   .     A
C233   H267    1.081   .     S
C234   H268    1.081   .     S
C234   N274    1.364   .     A
C235   N273    1.364   .     A
C235   H269    1.082   .     S
C235   C237    1.407   .     A
C236   H270    1.081   .     S
C236   N274    1.364   .     A
C236   C238    1.407   .     A
C237   H271    1.081   .     S
C237   C239    1.411   .     A
C238   H272    1.081   .     S
C238   C240    1.411   .     A
C239   C696    1.516   1_554 S
C240   C695    1.516   .     S
C241   O279    1.277   .     A
C241   O281    1.291   .     A
C241   C243    1.436   .     S
C242   O280    1.278   .     A
C242   O282    1.290   .     A
C242   C244    1.436   .     S
C243   C396    1.365   1_455 S
C243   C435    1.539   1_455 S
C244   C319    1.365   .     S
C244   C369    1.539   .     S
C245   C255    1.403   .     A
C245   H259    1.083   .     S
C245   C247    1.390   .     A
C246   C248    1.390   .     A
C246   C256    1.402   .     A
C246   H260    1.083   .     S
C247   C249    1.400   .     A
C247   H261    1.083   .     S
C248   H262    1.083   .     S
C248   C250    1.401   .     A
C249   C251    1.401   .     A
C250   C252    1.402   .     A
C251   H263    1.083   .     S
C251   C253    1.390   .     A
C252   H264    1.083   .     S
C252   C254    1.390   .     A
C253   C255    1.406   .     A
C253   F303    1.358   .     S
C254   F304    1.358   .     S
C254   C256    1.405   .     A
C256   C27     1.467   1_565 S
Cu257  O275    1.954   .     S
Cu257  O282    1.969   .     S
Cu257  O278    1.954   .     S
Cu257  Cu258   2.673   .     S
Cu257  O279    1.975   .     S
Cu257  N274    2.008   .     S
Cu258  N273    2.008   .     S
Cu258  O276    1.954   .     S
Cu258  O281    1.969   .     S
Cu258  O277    1.954   .     S
Cu258  O280    1.975   .     S
C283   H291    1.106   .     S
C283   H292    1.111   .     S
C283   C319    1.539   .     S
C283   C360    1.539   .     S
C284   C285    1.526   .     S
C284   H290    1.112   .     S
C284   H289    1.108   .     S
C284   C435    1.539   1_455 S
C285   H288    1.111   .     S
C285   H438    1.110   1_455 S
C285   H439    1.111   1_455 S
H286   C361    1.110   .     S
H287   C361    1.111   .     S
C293   H301    1.112   .     S
C293   H302    1.105   .     S
C293   C396    1.539   1_455 S
C293   C446    1.538   1_455 S
C294   C295    1.527   .     S
C294   H300    1.107   .     S
C294   H299    1.112   .     S
C294   C369    1.538   .     S
C295   H296    1.111   .     S
C295   H298    1.110   .     S
C295   H373    1.111   .     S
H297   C447    1.111   1_455 S
C305   C325    1.457   .     S
C305   O351    1.292   .     A
C305   O353    1.291   .     A
C306   O354    1.292   .     A
C306   C326    1.459   .     S
C306   O352    1.292   .     A
C307   C309    1.407   .     A
C307   C315    1.411   .     A
C307   H341    1.081   .     S
C308   C316    1.411   .     A
C308   C310    1.407   .     A
C308   H342    1.081   .     S
C309   N349    1.363   .     A
C309   H343    1.081   .     S
C310   H344    1.081   .     S
C310   N350    1.364   .     A
C311   N349    1.364   .     A
C311   H345    1.082   .     S
C311   C313    1.407   .     A
C312   H346    1.081   .     S
C312   N350    1.364   .     A
C312   C314    1.407   .     A
C313   H347    1.081   .     S
C313   C315    1.411   .     A
C314   H348    1.081   .     S
C314   C316    1.411   .     A
C315   C772    1.516   1_554 S
C316   C771    1.516   .     S
C317   O355    1.277   .     A
C317   O357    1.291   .     A
C317   C319    1.436   .     S
C318   O356    1.278   .     A
C318   O358    1.290   .     A
C318   C320    1.436   .     S
C320   C395    1.365   .     S
C320   C445    1.539   .     S
C321   C331    1.403   .     A
C321   H335    1.083   .     S
C321   C323    1.390   .     A
C322   C324    1.390   .     A
C322   C332    1.402   .     A
C322   H336    1.083   .     S
C323   C325    1.400   .     A
C323   H337    1.083   .     S
C324   H338    1.083   .     S
C324   C326    1.401   .     A
C325   C327    1.401   .     A
C326   C328    1.402   .     A
C327   H339    1.083   .     S
C327   C329    1.390   .     A
C328   H340    1.083   .     S
C328   C330    1.390   .     A
C329   C331    1.406   .     A
C329   F379    1.358   .     S
C330   F380    1.358   .     S
C330   C332    1.405   .     A
C332   C103    1.467   1_565 S
Cu333  O351    1.954   .     S
Cu333  O358    1.969   .     S
Cu333  O354    1.954   .     S
Cu333  Cu334   2.673   .     S
Cu333  O355    1.975   .     S
Cu333  N350    2.008   .     S
Cu334  N349    2.008   .     S
Cu334  O352    1.954   .     S
Cu334  O357    1.969   .     S
Cu334  O353    1.954   .     S
Cu334  O356    1.975   .     S
C359   H367    1.106   .     S
C359   H368    1.111   .     S
C359   C395    1.539   .     S
C359   C436    1.539   .     S
C360   C361    1.526   .     S
C360   H366    1.112   .     S
C360   H365    1.108   .     S
C361   H364    1.111   .     S
H362   C437    1.110   .     S
H363   C437    1.111   .     S
C369   H377    1.112   .     S
C369   H378    1.105   .     S
C370   C371    1.527   .     S
C370   H376    1.107   .     S
C370   H375    1.112   .     S
C370   C445    1.538   .     S
C371   H372    1.111   .     S
C371   H374    1.110   .     S
C371   H449    1.111   .     S
C381   C401    1.457   .     S
C381   O427    1.292   .     A
C381   O429    1.291   .     A
C382   O430    1.292   .     A
C382   C402    1.459   .     S
C382   O428    1.292   .     A
C383   C385    1.407   .     A
C383   C391    1.411   .     A
C383   H417    1.081   .     S
C384   C392    1.411   .     A
C384   C386    1.407   .     A
C384   H418    1.081   .     S
C385   N425    1.363   .     A
C385   H419    1.081   .     S
C386   H420    1.081   .     S
C386   N426    1.364   .     A
C387   N425    1.364   .     A
C387   H421    1.082   .     S
C387   C389    1.407   .     A
C388   H422    1.081   .     S
C388   N426    1.364   .     A
C388   C390    1.407   .     A
C389   H423    1.081   .     S
C389   C391    1.411   .     A
C390   H424    1.081   .     S
C390   C392    1.411   .     A
C391   C848    1.516   1_554 S
C392   C847    1.516   .     S
C393   O431    1.277   .     A
C393   O433    1.291   .     A
C393   C395    1.436   .     S
C394   O432    1.278   .     A
C394   O434    1.290   .     A
C394   C396    1.436   .     S
C396   C243    1.365   1_655 S
C396   C293    1.539   1_655 S
C397   C407    1.403   .     A
C397   H411    1.083   .     S
C397   C399    1.390   .     A
C398   C400    1.390   .     A
C398   C408    1.402   .     A
C398   H412    1.083   .     S
C399   C401    1.400   .     A
C399   H413    1.083   .     S
C400   H414    1.083   .     S
C400   C402    1.401   .     A
C401   C403    1.401   .     A
C402   C404    1.402   .     A
C403   H415    1.083   .     S
C403   C405    1.390   .     A
C404   H416    1.083   .     S
C404   C406    1.390   .     A
C405   C407    1.406   .     A
C405   F455    1.358   .     S
C406   F456    1.358   .     S
C406   C408    1.405   .     A
C408   C179    1.467   1_565 S
Cu409  O427    1.954   .     S
Cu409  O434    1.969   .     S
Cu409  O430    1.954   .     S
Cu409  Cu410   2.673   .     S
Cu409  O431    1.975   .     S
Cu409  N426    2.008   .     S
Cu410  N425    2.008   .     S
Cu410  O428    1.954   .     S
Cu410  O433    1.969   .     S
Cu410  O429    1.954   .     S
Cu410  O432    1.975   .     S
C435   H443    1.106   .     S
C435   H444    1.111   .     S
C435   C243    1.539   1_655 S
C435   C284    1.539   1_655 S
C436   C437    1.526   .     S
C436   H442    1.112   .     S
C436   H441    1.108   .     S
C437   H440    1.111   .     S
H438   C285    1.110   1_655 S
H439   C285    1.111   1_655 S
C445   H453    1.112   .     S
C445   H454    1.105   .     S
C446   C447    1.527   .     S
C446   H452    1.107   .     S
C446   H451    1.112   .     S
C446   C293    1.538   1_655 S
C447   H448    1.111   .     S
C447   H450    1.110   .     S
C447   H297    1.111   1_655 S
C457   C477    1.457   .     S
C457   O503    1.292   .     A
C457   O505    1.291   .     A
C458   O506    1.292   .     A
C458   C478    1.459   .     S
C458   O504    1.292   .     A
C459   C461    1.407   .     A
C459   C467    1.411   .     A
C459   H493    1.081   .     S
C460   C468    1.411   .     A
C460   C462    1.407   .     A
C460   H494    1.081   .     S
C461   N501    1.363   .     A
C461   H495    1.081   .     S
C462   H496    1.081   .     S
C462   N502    1.364   .     A
C463   N501    1.364   .     A
C463   H497    1.082   .     S
C463   C465    1.407   .     A
C464   H498    1.081   .     S
C464   N502    1.364   .     A
C464   C466    1.407   .     A
C465   H499    1.081   .     S
C465   C467    1.411   .     A
C466   H500    1.081   .     S
C466   C468    1.411   .     A
C468   C11     1.516   1_556 S
C469   O507    1.277   .     A
C469   O509    1.291   .     A
C469   C471    1.436   .     S
C470   O508    1.278   .     A
C470   O510    1.290   .     A
C470   C472    1.436   .     S
C471   C624    1.365   1_455 S
C471   C663    1.539   1_455 S
C472   C547    1.365   .     S
C472   C597    1.539   .     S
C473   C483    1.403   .     A
C473   H487    1.083   .     S
C473   C475    1.390   .     A
C474   C476    1.390   .     A
C474   C484    1.402   .     A
C474   H488    1.083   .     S
C475   C477    1.400   .     A
C475   H489    1.083   .     S
C476   H490    1.083   .     S
C476   C478    1.401   .     A
C477   C479    1.401   .     A
C478   C480    1.402   .     A
C479   H491    1.083   .     S
C479   C481    1.390   .     A
C480   H492    1.083   .     S
C480   C482    1.390   .     A
C481   C483    1.406   .     A
C481   F531    1.358   .     S
C482   F532    1.358   .     S
C482   C484    1.405   .     A
C483   C712    1.467   1_545 S
C484   C711    1.467   .     S
Cu485  O503    1.954   .     S
Cu485  O510    1.969   .     S
Cu485  O506    1.954   .     S
Cu485  Cu486   2.673   .     S
Cu485  O507    1.975   .     S
Cu485  N502    2.008   .     S
Cu486  N501    2.008   .     S
Cu486  O504    1.954   .     S
Cu486  O509    1.969   .     S
Cu486  O505    1.954   .     S
Cu486  O508    1.975   .     S
C511   H519    1.106   .     S
C511   H520    1.111   .     S
C511   C547    1.539   .     S
C511   C588    1.539   .     S
C512   C513    1.526   .     S
C512   H518    1.112   .     S
C512   H517    1.108   .     S
C512   C663    1.539   1_455 S
C513   H516    1.111   .     S
C513   H666    1.110   1_455 S
C513   H667    1.111   1_455 S
H514   C589    1.110   .     S
H515   C589    1.111   .     S
C521   H529    1.112   .     S
C521   H530    1.105   .     S
C521   C624    1.539   1_455 S
C521   C674    1.538   1_455 S
C522   C523    1.527   .     S
C522   H528    1.107   .     S
C522   H527    1.112   .     S
C522   C597    1.538   .     S
C523   H524    1.111   .     S
C523   H526    1.110   .     S
C523   H601    1.111   .     S
H525   C675    1.111   1_455 S
C533   C553    1.457   .     S
C533   O579    1.292   .     A
C533   O581    1.291   .     A
C534   O582    1.292   .     A
C534   C554    1.459   .     S
C534   O580    1.292   .     A
C535   C537    1.407   .     A
C535   C543    1.411   .     A
C535   H569    1.081   .     S
C536   C544    1.411   .     A
C536   C538    1.407   .     A
C536   H570    1.081   .     S
C537   N577    1.363   .     A
C537   H571    1.081   .     S
C538   H572    1.081   .     S
C538   N578    1.364   .     A
C539   N577    1.364   .     A
C539   H573    1.082   .     S
C539   C541    1.407   .     A
C540   H574    1.081   .     S
C540   N578    1.364   .     A
C540   C542    1.407   .     A
C541   H575    1.081   .     S
C541   C543    1.411   .     A
C542   H576    1.081   .     S
C542   C544    1.411   .     A
C544   C87     1.516   1_556 S
C545   O583    1.277   .     A
C545   O585    1.291   .     A
C545   C547    1.436   .     S
C546   O584    1.278   .     A
C546   O586    1.290   .     A
C546   C548    1.436   .     S
C548   C623    1.365   .     S
C548   C673    1.539   .     S
C549   C559    1.403   .     A
C549   H563    1.083   .     S
C549   C551    1.390   .     A
C550   C552    1.390   .     A
C550   C560    1.402   .     A
C550   H564    1.083   .     S
C551   C553    1.400   .     A
C551   H565    1.083   .     S
C552   H566    1.083   .     S
C552   C554    1.401   .     A
C553   C555    1.401   .     A
C554   C556    1.402   .     A
C555   H567    1.083   .     S
C555   C557    1.390   .     A
C556   H568    1.083   .     S
C556   C558    1.390   .     A
C557   C559    1.406   .     A
C557   F607    1.358   .     S
C558   F608    1.358   .     S
C558   C560    1.405   .     A
C559   C788    1.467   1_545 S
C560   C787    1.467   .     S
Cu561  O579    1.954   .     S
Cu561  O586    1.969   .     S
Cu561  O582    1.954   .     S
Cu561  Cu562   2.673   .     S
Cu561  O583    1.975   .     S
Cu561  N578    2.008   .     S
Cu562  N577    2.008   .     S
Cu562  O580    1.954   .     S
Cu562  O585    1.969   .     S
Cu562  O581    1.954   .     S
Cu562  O584    1.975   .     S
C587   H595    1.106   .     S
C587   H596    1.111   .     S
C587   C623    1.539   .     S
C587   C664    1.539   .     S
C588   C589    1.526   .     S
C588   H594    1.112   .     S
C588   H593    1.108   .     S
C589   H592    1.111   .     S
H590   C665    1.110   .     S
H591   C665    1.111   .     S
C597   H605    1.112   .     S
C597   H606    1.105   .     S
C598   C599    1.527   .     S
C598   H604    1.107   .     S
C598   H603    1.112   .     S
C598   C673    1.538   .     S
C599   H600    1.111   .     S
C599   H602    1.110   .     S
C599   H677    1.111   .     S
C609   C629    1.457   .     S
C609   O655    1.292   .     A
C609   O657    1.291   .     A
C610   O658    1.292   .     A
C610   C630    1.459   .     S
C610   O656    1.292   .     A
C611   C613    1.407   .     A
C611   C619    1.411   .     A
C611   H645    1.081   .     S
C612   C620    1.411   .     A
C612   C614    1.407   .     A
C612   H646    1.081   .     S
C613   N653    1.363   .     A
C613   H647    1.081   .     S
C614   H648    1.081   .     S
C614   N654    1.364   .     A
C615   N653    1.364   .     A
C615   H649    1.082   .     S
C615   C617    1.407   .     A
C616   H650    1.081   .     S
C616   N654    1.364   .     A
C616   C618    1.407   .     A
C617   H651    1.081   .     S
C617   C619    1.411   .     A
C618   H652    1.081   .     S
C618   C620    1.411   .     A
C620   C163    1.516   1_556 S
C621   O659    1.277   .     A
C621   O661    1.291   .     A
C621   C623    1.436   .     S
C622   O660    1.278   .     A
C622   O662    1.290   .     A
C622   C624    1.436   .     S
C624   C471    1.365   1_655 S
C624   C521    1.539   1_655 S
C625   C635    1.403   .     A
C625   H639    1.083   .     S
C625   C627    1.390   .     A
C626   C628    1.390   .     A
C626   C636    1.402   .     A
C626   H640    1.083   .     S
C627   C629    1.400   .     A
C627   H641    1.083   .     S
C628   H642    1.083   .     S
C628   C630    1.401   .     A
C629   C631    1.401   .     A
C630   C632    1.402   .     A
C631   H643    1.083   .     S
C631   C633    1.390   .     A
C632   H644    1.083   .     S
C632   C634    1.390   .     A
C633   C635    1.406   .     A
C633   F683    1.358   .     S
C634   F684    1.358   .     S
C634   C636    1.405   .     A
C635   C864    1.467   1_545 S
C636   C863    1.467   .     S
Cu637  O655    1.954   .     S
Cu637  O662    1.969   .     S
Cu637  O658    1.954   .     S
Cu637  Cu638   2.673   .     S
Cu637  O659    1.975   .     S
Cu637  N654    2.008   .     S
Cu638  N653    2.008   .     S
Cu638  O656    1.954   .     S
Cu638  O661    1.969   .     S
Cu638  O657    1.954   .     S
Cu638  O660    1.975   .     S
C663   H671    1.106   .     S
C663   H672    1.111   .     S
C663   C471    1.539   1_655 S
C663   C512    1.539   1_655 S
C664   C665    1.526   .     S
C664   H670    1.112   .     S
C664   H669    1.108   .     S
C665   H668    1.111   .     S
H666   C513    1.110   1_655 S
H667   C513    1.111   1_655 S
C673   H681    1.112   .     S
C673   H682    1.105   .     S
C674   C675    1.527   .     S
C674   H680    1.107   .     S
C674   H679    1.112   .     S
C674   C521    1.538   1_655 S
C675   H676    1.111   .     S
C675   H678    1.110   .     S
C675   H525    1.111   1_655 S
C685   C705    1.457   .     S
C685   O731    1.292   .     A
C685   O733    1.291   .     A
C686   O734    1.292   .     A
C686   C706    1.459   .     S
C686   O732    1.292   .     A
C687   C689    1.407   .     A
C687   C695    1.411   .     A
C687   H721    1.081   .     S
C688   C696    1.411   .     A
C688   C690    1.407   .     A
C688   H722    1.081   .     S
C689   N729    1.363   .     A
C689   H723    1.081   .     S
C690   H724    1.081   .     S
C690   N730    1.364   .     A
C691   N729    1.364   .     A
C691   H725    1.082   .     S
C691   C693    1.407   .     A
C692   H726    1.081   .     S
C692   N730    1.364   .     A
C692   C694    1.407   .     A
C693   H727    1.081   .     S
C693   C695    1.411   .     A
C694   H728    1.081   .     S
C694   C696    1.411   .     A
C696   C239    1.516   1_556 S
C697   O735    1.277   .     A
C697   O737    1.291   .     A
C697   C699    1.436   .     S
C698   O736    1.278   .     A
C698   O738    1.290   .     A
C698   C700    1.436   .     S
C699   C852    1.365   1_455 S
C699   C891    1.539   1_455 S
C700   C775    1.365   .     S
C700   C825    1.539   .     S
C701   C711    1.403   .     A
C701   H715    1.083   .     S
C701   C703    1.390   .     A
C702   C704    1.390   .     A
C702   C712    1.402   .     A
C702   H716    1.083   .     S
C703   C705    1.400   .     A
C703   H717    1.083   .     S
C704   H718    1.083   .     S
C704   C706    1.401   .     A
C705   C707    1.401   .     A
C706   C708    1.402   .     A
C707   H719    1.083   .     S
C707   C709    1.390   .     A
C708   H720    1.083   .     S
C708   C710    1.390   .     A
C709   C711    1.406   .     A
C709   F759    1.358   .     S
C710   F760    1.358   .     S
C710   C712    1.405   .     A
C712   C483    1.467   1_565 S
Cu713  O731    1.954   .     S
Cu713  O738    1.969   .     S
Cu713  O734    1.954   .     S
Cu713  Cu714   2.673   .     S
Cu713  O735    1.975   .     S
Cu713  N730    2.008   .     S
Cu714  N729    2.008   .     S
Cu714  O732    1.954   .     S
Cu714  O737    1.969   .     S
Cu714  O733    1.954   .     S
Cu714  O736    1.975   .     S
C739   H747    1.106   .     S
C739   H748    1.111   .     S
C739   C775    1.539   .     S
C739   C816    1.539   .     S
C740   C741    1.526   .     S
C740   H746    1.112   .     S
C740   H745    1.108   .     S
C740   C891    1.539   1_455 S
C741   H744    1.111   .     S
C741   H894    1.110   1_455 S
C741   H895    1.111   1_455 S
H742   C817    1.110   .     S
H743   C817    1.111   .     S
C749   H757    1.112   .     S
C749   H758    1.105   .     S
C749   C852    1.539   1_455 S
C749   C902    1.538   1_455 S
C750   C751    1.527   .     S
C750   H756    1.107   .     S
C750   H755    1.112   .     S
C750   C825    1.538   .     S
C751   H752    1.111   .     S
C751   H754    1.110   .     S
C751   H829    1.111   .     S
H753   C903    1.111   1_455 S
C761   C781    1.457   .     S
C761   O807    1.292   .     A
C761   O809    1.291   .     A
C762   O810    1.292   .     A
C762   C782    1.459   .     S
C762   O808    1.292   .     A
C763   C765    1.407   .     A
C763   C771    1.411   .     A
C763   H797    1.081   .     S
C764   C772    1.411   .     A
C764   C766    1.407   .     A
C764   H798    1.081   .     S
C765   N805    1.363   .     A
C765   H799    1.081   .     S
C766   H800    1.081   .     S
C766   N806    1.364   .     A
C767   N805    1.364   .     A
C767   H801    1.082   .     S
C767   C769    1.407   .     A
C768   H802    1.081   .     S
C768   N806    1.364   .     A
C768   C770    1.407   .     A
C769   H803    1.081   .     S
C769   C771    1.411   .     A
C770   H804    1.081   .     S
C770   C772    1.411   .     A
C772   C315    1.516   1_556 S
C773   O811    1.277   .     A
C773   O813    1.291   .     A
C773   C775    1.436   .     S
C774   O812    1.278   .     A
C774   O814    1.290   .     A
C774   C776    1.436   .     S
C776   C851    1.365   .     S
C776   C901    1.539   .     S
C777   C787    1.403   .     A
C777   H791    1.083   .     S
C777   C779    1.390   .     A
C778   C780    1.390   .     A
C778   C788    1.402   .     A
C778   H792    1.083   .     S
C779   C781    1.400   .     A
C779   H793    1.083   .     S
C780   H794    1.083   .     S
C780   C782    1.401   .     A
C781   C783    1.401   .     A
C782   C784    1.402   .     A
C783   H795    1.083   .     S
C783   C785    1.390   .     A
C784   H796    1.083   .     S
C784   C786    1.390   .     A
C785   C787    1.406   .     A
C785   F835    1.358   .     S
C786   F836    1.358   .     S
C786   C788    1.405   .     A
C788   C559    1.467   1_565 S
Cu789  O807    1.954   .     S
Cu789  O814    1.969   .     S
Cu789  O810    1.954   .     S
Cu789  Cu790   2.673   .     S
Cu789  O811    1.975   .     S
Cu789  N806    2.008   .     S
Cu790  N805    2.008   .     S
Cu790  O808    1.954   .     S
Cu790  O813    1.969   .     S
Cu790  O809    1.954   .     S
Cu790  O812    1.975   .     S
C815   H823    1.106   .     S
C815   H824    1.111   .     S
C815   C851    1.539   .     S
C815   C892    1.539   .     S
C816   C817    1.526   .     S
C816   H822    1.112   .     S
C816   H821    1.108   .     S
C817   H820    1.111   .     S
H818   C893    1.110   .     S
H819   C893    1.111   .     S
C825   H833    1.112   .     S
C825   H834    1.105   .     S
C826   C827    1.527   .     S
C826   H832    1.107   .     S
C826   H831    1.112   .     S
C826   C901    1.538   .     S
C827   H828    1.111   .     S
C827   H830    1.110   .     S
C827   H905    1.111   .     S
C837   C857    1.457   .     S
C837   O883    1.292   .     A
C837   O885    1.291   .     A
C838   O886    1.292   .     A
C838   C858    1.459   .     S
C838   O884    1.292   .     A
C839   C841    1.407   .     A
C839   C847    1.411   .     A
C839   H873    1.081   .     S
C840   C848    1.411   .     A
C840   C842    1.407   .     A
C840   H874    1.081   .     S
C841   N881    1.363   .     A
C841   H875    1.081   .     S
C842   H876    1.081   .     S
C842   N882    1.364   .     A
C843   N881    1.364   .     A
C843   H877    1.082   .     S
C843   C845    1.407   .     A
C844   H878    1.081   .     S
C844   N882    1.364   .     A
C844   C846    1.407   .     A
C845   H879    1.081   .     S
C845   C847    1.411   .     A
C846   H880    1.081   .     S
C846   C848    1.411   .     A
C848   C391    1.516   1_556 S
C849   O887    1.277   .     A
C849   O889    1.291   .     A
C849   C851    1.436   .     S
C850   O888    1.278   .     A
C850   O890    1.290   .     A
C850   C852    1.436   .     S
C852   C699    1.365   1_655 S
C852   C749    1.539   1_655 S
C853   C863    1.403   .     A
C853   H867    1.083   .     S
C853   C855    1.390   .     A
C854   C856    1.390   .     A
C854   C864    1.402   .     A
C854   H868    1.083   .     S
C855   C857    1.400   .     A
C855   H869    1.083   .     S
C856   H870    1.083   .     S
C856   C858    1.401   .     A
C857   C859    1.401   .     A
C858   C860    1.402   .     A
C859   H871    1.083   .     S
C859   C861    1.390   .     A
C860   H872    1.083   .     S
C860   C862    1.390   .     A
C861   C863    1.406   .     A
C861   F911    1.358   .     S
C862   F912    1.358   .     S
C862   C864    1.405   .     A
C864   C635    1.467   1_565 S
Cu865  O883    1.954   .     S
Cu865  O890    1.969   .     S
Cu865  O886    1.954   .     S
Cu865  Cu866   2.673   .     S
Cu865  O887    1.975   .     S
Cu865  N882    2.008   .     S
Cu866  N881    2.008   .     S
Cu866  O884    1.954   .     S
Cu866  O889    1.969   .     S
Cu866  O885    1.954   .     S
Cu866  O888    1.975   .     S
C891   H899    1.106   .     S
C891   H900    1.111   .     S
C891   C699    1.539   1_655 S
C891   C740    1.539   1_655 S
C892   C893    1.526   .     S
C892   H898    1.112   .     S
C892   H897    1.108   .     S
C893   H896    1.111   .     S
H894   C741    1.110   1_655 S
H895   C741    1.111   1_655 S
C901   H909    1.112   .     S
C901   H910    1.105   .     S
C902   C903    1.527   .     S
C902   H908    1.107   .     S
C902   H907    1.112   .     S
C902   C749    1.538   1_655 S
C903   H904    1.111   .     S
C903   H906    1.110   .     S
C903   H753    1.111   1_655 S
