data_str_m3_o1_o16_pcu_sym.35
_audit_creation_date              2020-01-03
_audit_creation_method            'Materials Studio'
_symmetry_space_group_name_H-M    'P1'
_symmetry_Int_Tables_number       1
_symmetry_cell_setting            triclinic
loop_
_symmetry_equiv_pos_as_xyz
  x,y,z
_cell_length_a                    29.5529
_cell_length_b                    31.9697
_cell_length_c                    26.2759
_cell_angle_alpha                 90.1528
_cell_angle_beta                  69.9898
_cell_angle_gamma                 90.0945
loop_
_atom_site_label
_atom_site_type_symbol
_atom_site_fract_x
_atom_site_fract_y
_atom_site_fract_z
_atom_site_U_iso_or_equiv
_atom_site_adp_type
_atom_site_occupancy
C1     C     0.16734   0.24661   0.24791   0.00000  Uiso   1.00
C2     C     0.12254   0.16092   0.41097   0.00000  Uiso   1.00
C3     C     0.18959   0.31171   0.27802   0.00000  Uiso   1.00
C4     C     0.13998   0.16438   0.35206   0.00000  Uiso   1.00
C5     C     0.18925   0.02118   0.27938   0.00000  Uiso   1.00
C6     C     0.16698   0.04268   0.24855   0.00000  Uiso   1.00
C7     C     0.14620   0.02231   0.21506   0.00000  Uiso   1.00
C8     C     0.14756   0.31244   0.21185   0.00000  Uiso   1.00
C9     C     0.16837   0.29083   0.24514   0.00000  Uiso   1.00
C10    C     0.32033   0.14281   0.21374   0.00000  Uiso   1.00
C11    C     0.03493   0.14280   0.21377   0.00000  Uiso   1.00
C12    C     0.14358   0.15786   0.49229   0.00000  Uiso   1.00
C13    C     0.01299   0.19051   0.28628   0.00000  Uiso   1.00
C14    C     0.29839   0.19051   0.28626   0.00000  Uiso   1.00
C15    C     0.16661   0.08672   0.25001   0.00000  Uiso   1.00
C16    C     0.19337   0.16655   0.14785   0.00000  Uiso   1.00
C17    C     0.25882   0.12433   0.00935   0.00000  Uiso   1.00
C18    C     0.20947   0.16079   0.08962   0.00000  Uiso   1.00
C19    C     0.07717   0.17727   0.44086   0.00000  Uiso   1.00
C20    C     0.06403   0.18217   0.49655   0.00000  Uiso   1.00
C21    C     0.09722   0.17374   0.02209   0.00000  Uiso   1.00
C22    C     0.12969   0.29098   0.17204   0.00000  Uiso   1.00
C23    C     0.15350   0.14646   0.43780   0.00000  Uiso   1.00
C24    C     0.18044   0.15285   0.01469   0.00000  Uiso   1.00
C25    C     0.22303   0.13040   0.48610   0.00000  Uiso   1.00
C26    C     0.22875   0.11374   0.43528   0.00000  Uiso   1.00
C27    C     0.19439   0.12157   0.41137   0.00000  Uiso   1.00
C28    C     0.17643   0.17037   0.06448   0.00000  Uiso   1.00
C29    C     0.25160   0.13881   0.06165   0.00000  Uiso   1.00
H30    H     0.27752   0.13113   0.08101   0.00000  Uiso   1.00
H31    H     0.14657   0.19042   0.08579   0.00000  Uiso   1.00
H32    H     0.05247   0.18745   0.42099   0.00000  Uiso   1.00
H33    H     0.08525   0.17885   0.06528   0.00000  Uiso   1.00
H34    H     0.02877   0.19431   0.01968   0.00000  Uiso   1.00
H35    H     0.19991   0.10746   0.37224   0.00000  Uiso   1.00
H36    H     0.20558   0.29484   0.30338   0.00000  Uiso   1.00
H37    H     0.13866   0.25856   0.16101   0.00000  Uiso   1.00
H38    H     0.20534   0.03749   0.30520   0.00000  Uiso   1.00
H39    H     0.13060   0.04030   0.19025   0.00000  Uiso   1.00
H40    H     0.31097   0.12374   0.18473   0.00000  Uiso   1.00
H41    H     0.06183   0.12367   0.18478   0.00000  Uiso   1.00
H42    H     0.02235   0.20957   0.31529   0.00000  Uiso   1.00
H43    H     0.27149   0.20963   0.31525   0.00000  Uiso   1.00
H44    H     0.26017   0.09525   0.41357   0.00000  Uiso   1.00
H45    H     0.29129   0.10699   0.48802   0.00000  Uiso   1.00
N46    N     0.04760   0.16668   0.25001   0.00000  Uiso   1.00
N47    N     0.28573   0.16665   0.25000   0.00000  Uiso   1.00
O48    O     0.12846   0.22775   0.25000   0.00000  Uiso   1.00
O49    O     0.20490   0.22774   0.25000   0.00000  Uiso   1.00
O50    O     0.10947   0.16666   0.32681   0.00000  Uiso   1.00
O51    O     0.18591   0.16665   0.32681   0.00000  Uiso   1.00
O52    O     0.12843   0.10559   0.24999   0.00000  Uiso   1.00
O53    O     0.20488   0.10558   0.24999   0.00000  Uiso   1.00
O54    O     0.14742   0.16668   0.17319   0.00000  Uiso   1.00
O55    O     0.22387   0.16667   0.17319   0.00000  Uiso   1.00
O56    O     0.10519   0.30957   0.15026   0.00000  Uiso   1.00
Zn57   Zn    0.11562   0.16667   0.25000   0.00000  Uiso   1.00
Zn58   Zn    0.21771   0.16666   0.25000   0.00000  Uiso   1.00
C59    C     0.50067   0.24661   0.24791   0.00000  Uiso   1.00
C60    C     0.45588   0.16092   0.41097   0.00000  Uiso   1.00
C61    C     0.52292   0.31171   0.27802   0.00000  Uiso   1.00
C62    C     0.47331   0.16438   0.35206   0.00000  Uiso   1.00
C63    C     0.52259   0.02118   0.27938   0.00000  Uiso   1.00
C64    C     0.50032   0.04268   0.24855   0.00000  Uiso   1.00
C65    C     0.47953   0.02231   0.21506   0.00000  Uiso   1.00
C66    C     0.48089   0.31244   0.21185   0.00000  Uiso   1.00
C67    C     0.50170   0.29083   0.24514   0.00000  Uiso   1.00
C68    C     0.65367   0.14281   0.21374   0.00000  Uiso   1.00
C69    C     0.36827   0.14280   0.21377   0.00000  Uiso   1.00
C70    C     0.47691   0.15786   0.49229   0.00000  Uiso   1.00
C71    C     0.34632   0.19051   0.28628   0.00000  Uiso   1.00
C72    C     0.63172   0.19051   0.28626   0.00000  Uiso   1.00
C73    C     0.49995   0.08672   0.25001   0.00000  Uiso   1.00
C74    C     0.52670   0.16655   0.14785   0.00000  Uiso   1.00
C75    C     0.59215   0.12433   0.00935   0.00000  Uiso   1.00
C76    C     0.54280   0.16079   0.08962   0.00000  Uiso   1.00
C77    C     0.41051   0.17727   0.44086   0.00000  Uiso   1.00
C78    C     0.39736   0.18217   0.49655   0.00000  Uiso   1.00
C79    C     0.43056   0.17374   0.02209   0.00000  Uiso   1.00
C80    C     0.46302   0.29098   0.17204   0.00000  Uiso   1.00
C81    C     0.48683   0.14646   0.43780   0.00000  Uiso   1.00
C82    C     0.51377   0.15285   0.01469   0.00000  Uiso   1.00
C83    C     0.55636   0.13040   0.48610   0.00000  Uiso   1.00
C84    C     0.56208   0.11374   0.43528   0.00000  Uiso   1.00
C85    C     0.52772   0.12157   0.41137   0.00000  Uiso   1.00
C86    C     0.50976   0.17037   0.06448   0.00000  Uiso   1.00
C87    C     0.58494   0.13881   0.06165   0.00000  Uiso   1.00
H88    H     0.61085   0.13113   0.08101   0.00000  Uiso   1.00
H89    H     0.47991   0.19042   0.08579   0.00000  Uiso   1.00
H90    H     0.38581   0.18745   0.42099   0.00000  Uiso   1.00
H91    H     0.41858   0.17885   0.06528   0.00000  Uiso   1.00
H92    H     0.36210   0.19431   0.01968   0.00000  Uiso   1.00
H93    H     0.53324   0.10746   0.37224   0.00000  Uiso   1.00
H94    H     0.53891   0.29484   0.30338   0.00000  Uiso   1.00
H95    H     0.47199   0.25856   0.16101   0.00000  Uiso   1.00
H96    H     0.53867   0.03749   0.30520   0.00000  Uiso   1.00
H97    H     0.46393   0.04030   0.19025   0.00000  Uiso   1.00
H98    H     0.64431   0.12374   0.18473   0.00000  Uiso   1.00
H99    H     0.39516   0.12367   0.18478   0.00000  Uiso   1.00
H100   H     0.35568   0.20957   0.31529   0.00000  Uiso   1.00
H101   H     0.60483   0.20963   0.31525   0.00000  Uiso   1.00
H102   H     0.59351   0.09525   0.41357   0.00000  Uiso   1.00
H103   H     0.62463   0.10699   0.48802   0.00000  Uiso   1.00
N104   N     0.38093   0.16668   0.25001   0.00000  Uiso   1.00
N105   N     0.61906   0.16665   0.25000   0.00000  Uiso   1.00
O106   O     0.46179   0.22775   0.25000   0.00000  Uiso   1.00
O107   O     0.53823   0.22774   0.25000   0.00000  Uiso   1.00
O108   O     0.44280   0.16666   0.32681   0.00000  Uiso   1.00
O109   O     0.51924   0.16665   0.32681   0.00000  Uiso   1.00
O110   O     0.46177   0.10559   0.24999   0.00000  Uiso   1.00
O111   O     0.53821   0.10558   0.24999   0.00000  Uiso   1.00
O112   O     0.48076   0.16668   0.17319   0.00000  Uiso   1.00
O113   O     0.55720   0.16667   0.17319   0.00000  Uiso   1.00
O114   O     0.43852   0.30957   0.15026   0.00000  Uiso   1.00
Zn115  Zn    0.44896   0.16667   0.25000   0.00000  Uiso   1.00
Zn116  Zn    0.55104   0.16666   0.25000   0.00000  Uiso   1.00
C117   C     0.83401   0.24661   0.24791   0.00000  Uiso   1.00
C118   C     0.78921   0.16092   0.41097   0.00000  Uiso   1.00
C119   C     0.85626   0.31171   0.27802   0.00000  Uiso   1.00
C120   C     0.80665   0.16438   0.35206   0.00000  Uiso   1.00
C121   C     0.85592   0.02118   0.27938   0.00000  Uiso   1.00
C122   C     0.83365   0.04268   0.24855   0.00000  Uiso   1.00
C123   C     0.81286   0.02231   0.21506   0.00000  Uiso   1.00
C124   C     0.81422   0.31244   0.21185   0.00000  Uiso   1.00
C125   C     0.83504   0.29083   0.24514   0.00000  Uiso   1.00
C126   C     0.98700   0.14281   0.21374   0.00000  Uiso   1.00
C127   C     0.70160   0.14280   0.21377   0.00000  Uiso   1.00
C128   C     0.81024   0.15786   0.49229   0.00000  Uiso   1.00
C129   C     0.67965   0.19051   0.28628   0.00000  Uiso   1.00
C130   C     0.96505   0.19051   0.28626   0.00000  Uiso   1.00
C131   C     0.83328   0.08672   0.25001   0.00000  Uiso   1.00
C132   C     0.86003   0.16655   0.14785   0.00000  Uiso   1.00
C133   C     0.92549   0.12433   0.00935   0.00000  Uiso   1.00
C134   C     0.87614   0.16079   0.08962   0.00000  Uiso   1.00
C135   C     0.74384   0.17727   0.44086   0.00000  Uiso   1.00
C136   C     0.73070   0.18217   0.49655   0.00000  Uiso   1.00
C137   C     0.76389   0.17374   0.02209   0.00000  Uiso   1.00
C138   C     0.79635   0.29098   0.17204   0.00000  Uiso   1.00
C139   C     0.82016   0.14646   0.43780   0.00000  Uiso   1.00
C140   C     0.84711   0.15285   0.01469   0.00000  Uiso   1.00
C141   C     0.88969   0.13040   0.48610   0.00000  Uiso   1.00
C142   C     0.89541   0.11374   0.43528   0.00000  Uiso   1.00
C143   C     0.86105   0.12157   0.41137   0.00000  Uiso   1.00
C144   C     0.84310   0.17037   0.06448   0.00000  Uiso   1.00
C145   C     0.91827   0.13881   0.06165   0.00000  Uiso   1.00
H146   H     0.94418   0.13113   0.08101   0.00000  Uiso   1.00
H147   H     0.81324   0.19042   0.08579   0.00000  Uiso   1.00
H148   H     0.71914   0.18745   0.42099   0.00000  Uiso   1.00
H149   H     0.75192   0.17885   0.06528   0.00000  Uiso   1.00
H150   H     0.69544   0.19431   0.01968   0.00000  Uiso   1.00
H151   H     0.86658   0.10746   0.37224   0.00000  Uiso   1.00
H152   H     0.87224   0.29484   0.30338   0.00000  Uiso   1.00
H153   H     0.80532   0.25856   0.16101   0.00000  Uiso   1.00
H154   H     0.87201   0.03749   0.30520   0.00000  Uiso   1.00
H155   H     0.79726   0.04030   0.19025   0.00000  Uiso   1.00
H156   H     0.97764   0.12374   0.18473   0.00000  Uiso   1.00
H157   H     0.72849   0.12367   0.18478   0.00000  Uiso   1.00
H158   H     0.68902   0.20957   0.31529   0.00000  Uiso   1.00
H159   H     0.93816   0.20963   0.31525   0.00000  Uiso   1.00
H160   H     0.92684   0.09525   0.41357   0.00000  Uiso   1.00
H161   H     0.95796   0.10699   0.48802   0.00000  Uiso   1.00
N162   N     0.71426   0.16668   0.25001   0.00000  Uiso   1.00
N163   N     0.95239   0.16665   0.25000   0.00000  Uiso   1.00
O164   O     0.79512   0.22775   0.25000   0.00000  Uiso   1.00
O165   O     0.87157   0.22774   0.25000   0.00000  Uiso   1.00
O166   O     0.77613   0.16666   0.32681   0.00000  Uiso   1.00
O167   O     0.85258   0.16665   0.32681   0.00000  Uiso   1.00
O168   O     0.79510   0.10559   0.24999   0.00000  Uiso   1.00
O169   O     0.87154   0.10558   0.24999   0.00000  Uiso   1.00
O170   O     0.81409   0.16668   0.17319   0.00000  Uiso   1.00
O171   O     0.89053   0.16667   0.17319   0.00000  Uiso   1.00
O172   O     0.77185   0.30957   0.15026   0.00000  Uiso   1.00
Zn173  Zn    0.78229   0.16667   0.25000   0.00000  Uiso   1.00
Zn174  Zn    0.88438   0.16666   0.25000   0.00000  Uiso   1.00
C175   C     0.16734   0.57994   0.24791   0.00000  Uiso   1.00
C176   C     0.12254   0.49426   0.41097   0.00000  Uiso   1.00
C177   C     0.18959   0.64505   0.27802   0.00000  Uiso   1.00
C178   C     0.13998   0.49771   0.35206   0.00000  Uiso   1.00
C179   C     0.18925   0.35452   0.27938   0.00000  Uiso   1.00
C180   C     0.16698   0.37601   0.24855   0.00000  Uiso   1.00
C181   C     0.14620   0.35564   0.21506   0.00000  Uiso   1.00
C182   C     0.14756   0.64578   0.21185   0.00000  Uiso   1.00
C183   C     0.16837   0.62416   0.24514   0.00000  Uiso   1.00
C184   C     0.32033   0.47614   0.21374   0.00000  Uiso   1.00
C185   C     0.03493   0.47613   0.21377   0.00000  Uiso   1.00
C186   C     0.14358   0.49120   0.49229   0.00000  Uiso   1.00
C187   C     0.01299   0.52384   0.28628   0.00000  Uiso   1.00
C188   C     0.29839   0.52384   0.28626   0.00000  Uiso   1.00
C189   C     0.16661   0.42005   0.25001   0.00000  Uiso   1.00
C190   C     0.19337   0.49989   0.14785   0.00000  Uiso   1.00
C191   C     0.25882   0.45766   0.00935   0.00000  Uiso   1.00
C192   C     0.20947   0.49412   0.08962   0.00000  Uiso   1.00
C193   C     0.07717   0.51060   0.44086   0.00000  Uiso   1.00
C194   C     0.06403   0.51550   0.49655   0.00000  Uiso   1.00
C195   C     0.09722   0.50707   0.02209   0.00000  Uiso   1.00
C196   C     0.12969   0.62431   0.17204   0.00000  Uiso   1.00
C197   C     0.15350   0.47980   0.43780   0.00000  Uiso   1.00
C198   C     0.18044   0.48618   0.01469   0.00000  Uiso   1.00
C199   C     0.22303   0.46374   0.48610   0.00000  Uiso   1.00
C200   C     0.22875   0.44708   0.43528   0.00000  Uiso   1.00
C201   C     0.19439   0.45491   0.41137   0.00000  Uiso   1.00
C202   C     0.17643   0.50370   0.06448   0.00000  Uiso   1.00
C203   C     0.25160   0.47214   0.06165   0.00000  Uiso   1.00
H204   H     0.27752   0.46446   0.08101   0.00000  Uiso   1.00
H205   H     0.14657   0.52375   0.08579   0.00000  Uiso   1.00
H206   H     0.05247   0.52078   0.42099   0.00000  Uiso   1.00
H207   H     0.08525   0.51218   0.06528   0.00000  Uiso   1.00
H208   H     0.02877   0.52765   0.01968   0.00000  Uiso   1.00
H209   H     0.19991   0.44079   0.37224   0.00000  Uiso   1.00
H210   H     0.20558   0.62818   0.30338   0.00000  Uiso   1.00
H211   H     0.13866   0.59189   0.16101   0.00000  Uiso   1.00
H212   H     0.20534   0.37082   0.30520   0.00000  Uiso   1.00
H213   H     0.13060   0.37363   0.19025   0.00000  Uiso   1.00
H214   H     0.31097   0.45708   0.18473   0.00000  Uiso   1.00
H215   H     0.06183   0.45701   0.18478   0.00000  Uiso   1.00
H216   H     0.02235   0.54291   0.31529   0.00000  Uiso   1.00
H217   H     0.27149   0.54296   0.31525   0.00000  Uiso   1.00
H218   H     0.26017   0.42859   0.41357   0.00000  Uiso   1.00
H219   H     0.29129   0.44032   0.48802   0.00000  Uiso   1.00
N220   N     0.04760   0.50001   0.25001   0.00000  Uiso   1.00
N221   N     0.28573   0.49998   0.25000   0.00000  Uiso   1.00
O222   O     0.12846   0.56108   0.25000   0.00000  Uiso   1.00
O223   O     0.20490   0.56107   0.25000   0.00000  Uiso   1.00
O224   O     0.10947   0.50000   0.32681   0.00000  Uiso   1.00
O225   O     0.18591   0.49999   0.32681   0.00000  Uiso   1.00
O226   O     0.12843   0.43893   0.24999   0.00000  Uiso   1.00
O227   O     0.20488   0.43892   0.24999   0.00000  Uiso   1.00
O228   O     0.14742   0.50001   0.17319   0.00000  Uiso   1.00
O229   O     0.22387   0.50000   0.17319   0.00000  Uiso   1.00
O230   O     0.10519   0.64291   0.15026   0.00000  Uiso   1.00
Zn231  Zn    0.11562   0.50001   0.25000   0.00000  Uiso   1.00
Zn232  Zn    0.21771   0.49999   0.25000   0.00000  Uiso   1.00
C233   C     0.50067   0.57994   0.24791   0.00000  Uiso   1.00
C234   C     0.45588   0.49426   0.41097   0.00000  Uiso   1.00
C235   C     0.52292   0.64505   0.27802   0.00000  Uiso   1.00
C236   C     0.47331   0.49771   0.35206   0.00000  Uiso   1.00
C237   C     0.52259   0.35452   0.27938   0.00000  Uiso   1.00
C238   C     0.50032   0.37601   0.24855   0.00000  Uiso   1.00
C239   C     0.47953   0.35564   0.21506   0.00000  Uiso   1.00
C240   C     0.48089   0.64578   0.21185   0.00000  Uiso   1.00
C241   C     0.50170   0.62416   0.24514   0.00000  Uiso   1.00
C242   C     0.65367   0.47614   0.21374   0.00000  Uiso   1.00
C243   C     0.36827   0.47613   0.21377   0.00000  Uiso   1.00
C244   C     0.47691   0.49120   0.49229   0.00000  Uiso   1.00
C245   C     0.34632   0.52384   0.28628   0.00000  Uiso   1.00
C246   C     0.63172   0.52384   0.28626   0.00000  Uiso   1.00
C247   C     0.49995   0.42005   0.25001   0.00000  Uiso   1.00
C248   C     0.52670   0.49989   0.14785   0.00000  Uiso   1.00
C249   C     0.59215   0.45766   0.00935   0.00000  Uiso   1.00
C250   C     0.54280   0.49412   0.08962   0.00000  Uiso   1.00
C251   C     0.41051   0.51060   0.44086   0.00000  Uiso   1.00
C252   C     0.39736   0.51550   0.49655   0.00000  Uiso   1.00
C253   C     0.43056   0.50707   0.02209   0.00000  Uiso   1.00
C254   C     0.46302   0.62431   0.17204   0.00000  Uiso   1.00
C255   C     0.48683   0.47980   0.43780   0.00000  Uiso   1.00
C256   C     0.51377   0.48618   0.01469   0.00000  Uiso   1.00
C257   C     0.55636   0.46374   0.48610   0.00000  Uiso   1.00
C258   C     0.56208   0.44708   0.43528   0.00000  Uiso   1.00
C259   C     0.52772   0.45491   0.41137   0.00000  Uiso   1.00
C260   C     0.50976   0.50370   0.06448   0.00000  Uiso   1.00
C261   C     0.58494   0.47214   0.06165   0.00000  Uiso   1.00
H262   H     0.61085   0.46446   0.08101   0.00000  Uiso   1.00
H263   H     0.47991   0.52375   0.08579   0.00000  Uiso   1.00
H264   H     0.38581   0.52078   0.42099   0.00000  Uiso   1.00
H265   H     0.41858   0.51218   0.06528   0.00000  Uiso   1.00
H266   H     0.36210   0.52765   0.01968   0.00000  Uiso   1.00
H267   H     0.53324   0.44079   0.37224   0.00000  Uiso   1.00
H268   H     0.53891   0.62818   0.30338   0.00000  Uiso   1.00
H269   H     0.47199   0.59189   0.16101   0.00000  Uiso   1.00
H270   H     0.53867   0.37082   0.30520   0.00000  Uiso   1.00
H271   H     0.46393   0.37363   0.19025   0.00000  Uiso   1.00
H272   H     0.64431   0.45708   0.18473   0.00000  Uiso   1.00
H273   H     0.39516   0.45701   0.18478   0.00000  Uiso   1.00
H274   H     0.35568   0.54291   0.31529   0.00000  Uiso   1.00
H275   H     0.60483   0.54296   0.31525   0.00000  Uiso   1.00
H276   H     0.59351   0.42859   0.41357   0.00000  Uiso   1.00
H277   H     0.62463   0.44032   0.48802   0.00000  Uiso   1.00
N278   N     0.38093   0.50001   0.25001   0.00000  Uiso   1.00
N279   N     0.61906   0.49998   0.25000   0.00000  Uiso   1.00
O280   O     0.46179   0.56108   0.25000   0.00000  Uiso   1.00
O281   O     0.53823   0.56107   0.25000   0.00000  Uiso   1.00
O282   O     0.44280   0.50000   0.32681   0.00000  Uiso   1.00
O283   O     0.51924   0.49999   0.32681   0.00000  Uiso   1.00
O284   O     0.46177   0.43893   0.24999   0.00000  Uiso   1.00
O285   O     0.53821   0.43892   0.24999   0.00000  Uiso   1.00
O286   O     0.48076   0.50001   0.17319   0.00000  Uiso   1.00
O287   O     0.55720   0.50000   0.17319   0.00000  Uiso   1.00
O288   O     0.43852   0.64291   0.15026   0.00000  Uiso   1.00
Zn289  Zn    0.44896   0.50001   0.25000   0.00000  Uiso   1.00
Zn290  Zn    0.55104   0.49999   0.25000   0.00000  Uiso   1.00
C291   C     0.83401   0.57994   0.24791   0.00000  Uiso   1.00
C292   C     0.78921   0.49426   0.41097   0.00000  Uiso   1.00
C293   C     0.85626   0.64505   0.27802   0.00000  Uiso   1.00
C294   C     0.80665   0.49771   0.35206   0.00000  Uiso   1.00
C295   C     0.85592   0.35452   0.27938   0.00000  Uiso   1.00
C296   C     0.83365   0.37601   0.24855   0.00000  Uiso   1.00
C297   C     0.81286   0.35564   0.21506   0.00000  Uiso   1.00
C298   C     0.81422   0.64578   0.21185   0.00000  Uiso   1.00
C299   C     0.83504   0.62416   0.24514   0.00000  Uiso   1.00
C300   C     0.98700   0.47614   0.21374   0.00000  Uiso   1.00
C301   C     0.70160   0.47613   0.21377   0.00000  Uiso   1.00
C302   C     0.81024   0.49120   0.49229   0.00000  Uiso   1.00
C303   C     0.67965   0.52384   0.28628   0.00000  Uiso   1.00
C304   C     0.96505   0.52384   0.28626   0.00000  Uiso   1.00
C305   C     0.83328   0.42005   0.25001   0.00000  Uiso   1.00
C306   C     0.86003   0.49989   0.14785   0.00000  Uiso   1.00
C307   C     0.92549   0.45766   0.00935   0.00000  Uiso   1.00
C308   C     0.87614   0.49412   0.08962   0.00000  Uiso   1.00
C309   C     0.74384   0.51060   0.44086   0.00000  Uiso   1.00
C310   C     0.73070   0.51550   0.49655   0.00000  Uiso   1.00
C311   C     0.76389   0.50707   0.02209   0.00000  Uiso   1.00
C312   C     0.79635   0.62431   0.17204   0.00000  Uiso   1.00
C313   C     0.82016   0.47980   0.43780   0.00000  Uiso   1.00
C314   C     0.84711   0.48618   0.01469   0.00000  Uiso   1.00
C315   C     0.88969   0.46374   0.48610   0.00000  Uiso   1.00
C316   C     0.89541   0.44708   0.43528   0.00000  Uiso   1.00
C317   C     0.86105   0.45491   0.41137   0.00000  Uiso   1.00
C318   C     0.84310   0.50370   0.06448   0.00000  Uiso   1.00
C319   C     0.91827   0.47214   0.06165   0.00000  Uiso   1.00
H320   H     0.94418   0.46446   0.08101   0.00000  Uiso   1.00
H321   H     0.81324   0.52375   0.08579   0.00000  Uiso   1.00
H322   H     0.71914   0.52078   0.42099   0.00000  Uiso   1.00
H323   H     0.75192   0.51218   0.06528   0.00000  Uiso   1.00
H324   H     0.69544   0.52765   0.01968   0.00000  Uiso   1.00
H325   H     0.86658   0.44079   0.37224   0.00000  Uiso   1.00
H326   H     0.87224   0.62818   0.30338   0.00000  Uiso   1.00
H327   H     0.80532   0.59189   0.16101   0.00000  Uiso   1.00
H328   H     0.87201   0.37082   0.30520   0.00000  Uiso   1.00
H329   H     0.79726   0.37363   0.19025   0.00000  Uiso   1.00
H330   H     0.97764   0.45708   0.18473   0.00000  Uiso   1.00
H331   H     0.72849   0.45701   0.18478   0.00000  Uiso   1.00
H332   H     0.68902   0.54291   0.31529   0.00000  Uiso   1.00
H333   H     0.93816   0.54296   0.31525   0.00000  Uiso   1.00
H334   H     0.92684   0.42859   0.41357   0.00000  Uiso   1.00
H335   H     0.95796   0.44032   0.48802   0.00000  Uiso   1.00
N336   N     0.71426   0.50001   0.25001   0.00000  Uiso   1.00
N337   N     0.95239   0.49998   0.25000   0.00000  Uiso   1.00
O338   O     0.79512   0.56108   0.25000   0.00000  Uiso   1.00
O339   O     0.87157   0.56107   0.25000   0.00000  Uiso   1.00
O340   O     0.77613   0.50000   0.32681   0.00000  Uiso   1.00
O341   O     0.85258   0.49999   0.32681   0.00000  Uiso   1.00
O342   O     0.79510   0.43893   0.24999   0.00000  Uiso   1.00
O343   O     0.87154   0.43892   0.24999   0.00000  Uiso   1.00
O344   O     0.81409   0.50001   0.17319   0.00000  Uiso   1.00
O345   O     0.89053   0.50000   0.17319   0.00000  Uiso   1.00
O346   O     0.77185   0.64291   0.15026   0.00000  Uiso   1.00
Zn347  Zn    0.78229   0.50001   0.25000   0.00000  Uiso   1.00
Zn348  Zn    0.88438   0.49999   0.25000   0.00000  Uiso   1.00
C349   C     0.16734   0.91328   0.24791   0.00000  Uiso   1.00
C350   C     0.12254   0.82759   0.41097   0.00000  Uiso   1.00
C351   C     0.18959   0.97838   0.27802   0.00000  Uiso   1.00
C352   C     0.13998   0.83105   0.35206   0.00000  Uiso   1.00
C353   C     0.18925   0.68785   0.27938   0.00000  Uiso   1.00
C354   C     0.16698   0.70934   0.24855   0.00000  Uiso   1.00
C355   C     0.14620   0.68897   0.21506   0.00000  Uiso   1.00
C356   C     0.14756   0.97911   0.21185   0.00000  Uiso   1.00
C357   C     0.16837   0.95749   0.24514   0.00000  Uiso   1.00
C358   C     0.32033   0.80947   0.21374   0.00000  Uiso   1.00
C359   C     0.03493   0.80946   0.21377   0.00000  Uiso   1.00
C360   C     0.14358   0.82453   0.49229   0.00000  Uiso   1.00
C361   C     0.01299   0.85717   0.28628   0.00000  Uiso   1.00
C362   C     0.29839   0.85718   0.28626   0.00000  Uiso   1.00
C363   C     0.16661   0.75338   0.25001   0.00000  Uiso   1.00
C364   C     0.19337   0.83322   0.14785   0.00000  Uiso   1.00
C365   C     0.25882   0.79100   0.00935   0.00000  Uiso   1.00
C366   C     0.20947   0.82746   0.08962   0.00000  Uiso   1.00
C367   C     0.07717   0.84393   0.44086   0.00000  Uiso   1.00
C368   C     0.06403   0.84884   0.49655   0.00000  Uiso   1.00
C369   C     0.09722   0.84041   0.02209   0.00000  Uiso   1.00
C370   C     0.12969   0.95765   0.17204   0.00000  Uiso   1.00
C371   C     0.15350   0.81313   0.43780   0.00000  Uiso   1.00
C372   C     0.18044   0.81951   0.01469   0.00000  Uiso   1.00
C373   C     0.22303   0.79707   0.48610   0.00000  Uiso   1.00
C374   C     0.22875   0.78041   0.43528   0.00000  Uiso   1.00
C375   C     0.19439   0.78824   0.41137   0.00000  Uiso   1.00
C376   C     0.17643   0.83703   0.06448   0.00000  Uiso   1.00
C377   C     0.25160   0.80547   0.06165   0.00000  Uiso   1.00
H378   H     0.27752   0.79779   0.08101   0.00000  Uiso   1.00
H379   H     0.14657   0.85709   0.08579   0.00000  Uiso   1.00
H380   H     0.05247   0.85412   0.42099   0.00000  Uiso   1.00
H381   H     0.08525   0.84552   0.06528   0.00000  Uiso   1.00
H382   H     0.02877   0.86098   0.01968   0.00000  Uiso   1.00
H383   H     0.19991   0.77413   0.37224   0.00000  Uiso   1.00
H384   H     0.20558   0.96151   0.30338   0.00000  Uiso   1.00
H385   H     0.13866   0.92523   0.16101   0.00000  Uiso   1.00
H386   H     0.20534   0.70415   0.30520   0.00000  Uiso   1.00
H387   H     0.13060   0.70696   0.19025   0.00000  Uiso   1.00
H388   H     0.31097   0.79041   0.18473   0.00000  Uiso   1.00
H389   H     0.06183   0.79034   0.18478   0.00000  Uiso   1.00
H390   H     0.02235   0.87624   0.31529   0.00000  Uiso   1.00
H391   H     0.27149   0.87629   0.31525   0.00000  Uiso   1.00
H392   H     0.26017   0.76192   0.41357   0.00000  Uiso   1.00
H393   H     0.29129   0.77366   0.48802   0.00000  Uiso   1.00
N394   N     0.04760   0.83334   0.25001   0.00000  Uiso   1.00
N395   N     0.28573   0.83331   0.25000   0.00000  Uiso   1.00
O396   O     0.12846   0.89442   0.25000   0.00000  Uiso   1.00
O397   O     0.20490   0.89441   0.25000   0.00000  Uiso   1.00
O398   O     0.10947   0.83333   0.32681   0.00000  Uiso   1.00
O399   O     0.18591   0.83332   0.32681   0.00000  Uiso   1.00
O400   O     0.12843   0.77226   0.24999   0.00000  Uiso   1.00
O401   O     0.20488   0.77225   0.24999   0.00000  Uiso   1.00
O402   O     0.14742   0.83335   0.17319   0.00000  Uiso   1.00
O403   O     0.22387   0.83334   0.17319   0.00000  Uiso   1.00
O404   O     0.10519   0.97624   0.15026   0.00000  Uiso   1.00
Zn405  Zn    0.11562   0.83334   0.25000   0.00000  Uiso   1.00
Zn406  Zn    0.21771   0.83333   0.25000   0.00000  Uiso   1.00
C407   C     0.50067   0.91328   0.24791   0.00000  Uiso   1.00
C408   C     0.45588   0.82759   0.41097   0.00000  Uiso   1.00
C409   C     0.52292   0.97838   0.27802   0.00000  Uiso   1.00
C410   C     0.47331   0.83105   0.35206   0.00000  Uiso   1.00
C411   C     0.52259   0.68785   0.27938   0.00000  Uiso   1.00
C412   C     0.50032   0.70934   0.24855   0.00000  Uiso   1.00
C413   C     0.47953   0.68897   0.21506   0.00000  Uiso   1.00
C414   C     0.48089   0.97911   0.21185   0.00000  Uiso   1.00
C415   C     0.50170   0.95749   0.24514   0.00000  Uiso   1.00
C416   C     0.65367   0.80947   0.21374   0.00000  Uiso   1.00
C417   C     0.36827   0.80946   0.21377   0.00000  Uiso   1.00
C418   C     0.47691   0.82453   0.49229   0.00000  Uiso   1.00
C419   C     0.34632   0.85717   0.28628   0.00000  Uiso   1.00
C420   C     0.63172   0.85718   0.28626   0.00000  Uiso   1.00
C421   C     0.49995   0.75338   0.25001   0.00000  Uiso   1.00
C422   C     0.52670   0.83322   0.14785   0.00000  Uiso   1.00
C423   C     0.59215   0.79100   0.00935   0.00000  Uiso   1.00
C424   C     0.54280   0.82746   0.08962   0.00000  Uiso   1.00
C425   C     0.41051   0.84393   0.44086   0.00000  Uiso   1.00
C426   C     0.39736   0.84884   0.49655   0.00000  Uiso   1.00
C427   C     0.43056   0.84041   0.02209   0.00000  Uiso   1.00
C428   C     0.46302   0.95765   0.17204   0.00000  Uiso   1.00
C429   C     0.48683   0.81313   0.43780   0.00000  Uiso   1.00
C430   C     0.51377   0.81951   0.01469   0.00000  Uiso   1.00
C431   C     0.55636   0.79707   0.48610   0.00000  Uiso   1.00
C432   C     0.56208   0.78041   0.43528   0.00000  Uiso   1.00
C433   C     0.52772   0.78824   0.41137   0.00000  Uiso   1.00
C434   C     0.50976   0.83703   0.06448   0.00000  Uiso   1.00
C435   C     0.58494   0.80547   0.06165   0.00000  Uiso   1.00
H436   H     0.61085   0.79779   0.08101   0.00000  Uiso   1.00
H437   H     0.47991   0.85709   0.08579   0.00000  Uiso   1.00
H438   H     0.38581   0.85412   0.42099   0.00000  Uiso   1.00
H439   H     0.41858   0.84552   0.06528   0.00000  Uiso   1.00
H440   H     0.36210   0.86098   0.01968   0.00000  Uiso   1.00
H441   H     0.53324   0.77413   0.37224   0.00000  Uiso   1.00
H442   H     0.53891   0.96151   0.30338   0.00000  Uiso   1.00
H443   H     0.47199   0.92523   0.16101   0.00000  Uiso   1.00
H444   H     0.53867   0.70415   0.30520   0.00000  Uiso   1.00
H445   H     0.46393   0.70696   0.19025   0.00000  Uiso   1.00
H446   H     0.64431   0.79041   0.18473   0.00000  Uiso   1.00
H447   H     0.39516   0.79034   0.18478   0.00000  Uiso   1.00
H448   H     0.35568   0.87624   0.31529   0.00000  Uiso   1.00
H449   H     0.60483   0.87629   0.31525   0.00000  Uiso   1.00
H450   H     0.59351   0.76192   0.41357   0.00000  Uiso   1.00
H451   H     0.62463   0.77366   0.48802   0.00000  Uiso   1.00
N452   N     0.38093   0.83334   0.25001   0.00000  Uiso   1.00
N453   N     0.61906   0.83331   0.25000   0.00000  Uiso   1.00
O454   O     0.46179   0.89442   0.25000   0.00000  Uiso   1.00
O455   O     0.53823   0.89441   0.25000   0.00000  Uiso   1.00
O456   O     0.44280   0.83333   0.32681   0.00000  Uiso   1.00
O457   O     0.51924   0.83332   0.32681   0.00000  Uiso   1.00
O458   O     0.46177   0.77226   0.24999   0.00000  Uiso   1.00
O459   O     0.53821   0.77225   0.24999   0.00000  Uiso   1.00
O460   O     0.48076   0.83335   0.17319   0.00000  Uiso   1.00
O461   O     0.55720   0.83334   0.17319   0.00000  Uiso   1.00
O462   O     0.43852   0.97624   0.15026   0.00000  Uiso   1.00
Zn463  Zn    0.44896   0.83334   0.25000   0.00000  Uiso   1.00
Zn464  Zn    0.55104   0.83333   0.25000   0.00000  Uiso   1.00
C465   C     0.83401   0.91328   0.24791   0.00000  Uiso   1.00
C466   C     0.78921   0.82759   0.41097   0.00000  Uiso   1.00
C467   C     0.85626   0.97838   0.27802   0.00000  Uiso   1.00
C468   C     0.80665   0.83105   0.35206   0.00000  Uiso   1.00
C469   C     0.85592   0.68785   0.27938   0.00000  Uiso   1.00
C470   C     0.83365   0.70934   0.24855   0.00000  Uiso   1.00
C471   C     0.81286   0.68897   0.21506   0.00000  Uiso   1.00
C472   C     0.81422   0.97911   0.21185   0.00000  Uiso   1.00
C473   C     0.83504   0.95749   0.24514   0.00000  Uiso   1.00
C474   C     0.98700   0.80947   0.21374   0.00000  Uiso   1.00
C475   C     0.70160   0.80946   0.21377   0.00000  Uiso   1.00
C476   C     0.81024   0.82453   0.49229   0.00000  Uiso   1.00
C477   C     0.67965   0.85717   0.28628   0.00000  Uiso   1.00
C478   C     0.96505   0.85718   0.28626   0.00000  Uiso   1.00
C479   C     0.83328   0.75338   0.25001   0.00000  Uiso   1.00
C480   C     0.86003   0.83322   0.14785   0.00000  Uiso   1.00
C481   C     0.92549   0.79100   0.00935   0.00000  Uiso   1.00
C482   C     0.87614   0.82746   0.08962   0.00000  Uiso   1.00
C483   C     0.74384   0.84393   0.44086   0.00000  Uiso   1.00
C484   C     0.73070   0.84884   0.49655   0.00000  Uiso   1.00
C485   C     0.76389   0.84041   0.02209   0.00000  Uiso   1.00
C486   C     0.79635   0.95765   0.17204   0.00000  Uiso   1.00
C487   C     0.82016   0.81313   0.43780   0.00000  Uiso   1.00
C488   C     0.84711   0.81951   0.01469   0.00000  Uiso   1.00
C489   C     0.88969   0.79707   0.48610   0.00000  Uiso   1.00
C490   C     0.89541   0.78041   0.43528   0.00000  Uiso   1.00
C491   C     0.86105   0.78824   0.41137   0.00000  Uiso   1.00
C492   C     0.84310   0.83703   0.06448   0.00000  Uiso   1.00
C493   C     0.91827   0.80547   0.06165   0.00000  Uiso   1.00
H494   H     0.94418   0.79779   0.08101   0.00000  Uiso   1.00
H495   H     0.81324   0.85709   0.08579   0.00000  Uiso   1.00
H496   H     0.71914   0.85412   0.42099   0.00000  Uiso   1.00
H497   H     0.75192   0.84552   0.06528   0.00000  Uiso   1.00
H498   H     0.69544   0.86098   0.01968   0.00000  Uiso   1.00
H499   H     0.86658   0.77413   0.37224   0.00000  Uiso   1.00
H500   H     0.87224   0.96151   0.30338   0.00000  Uiso   1.00
H501   H     0.80532   0.92523   0.16101   0.00000  Uiso   1.00
H502   H     0.87201   0.70415   0.30520   0.00000  Uiso   1.00
H503   H     0.79726   0.70696   0.19025   0.00000  Uiso   1.00
H504   H     0.97764   0.79041   0.18473   0.00000  Uiso   1.00
H505   H     0.72849   0.79034   0.18478   0.00000  Uiso   1.00
H506   H     0.68902   0.87624   0.31529   0.00000  Uiso   1.00
H507   H     0.93816   0.87629   0.31525   0.00000  Uiso   1.00
H508   H     0.92684   0.76192   0.41357   0.00000  Uiso   1.00
H509   H     0.95796   0.77366   0.48802   0.00000  Uiso   1.00
N510   N     0.71426   0.83334   0.25001   0.00000  Uiso   1.00
N511   N     0.95239   0.83331   0.25000   0.00000  Uiso   1.00
O512   O     0.79512   0.89442   0.25000   0.00000  Uiso   1.00
O513   O     0.87157   0.89441   0.25000   0.00000  Uiso   1.00
O514   O     0.77613   0.83333   0.32681   0.00000  Uiso   1.00
O515   O     0.85258   0.83332   0.32681   0.00000  Uiso   1.00
O516   O     0.79510   0.77226   0.24999   0.00000  Uiso   1.00
O517   O     0.87154   0.77225   0.24999   0.00000  Uiso   1.00
O518   O     0.81409   0.83335   0.17319   0.00000  Uiso   1.00
O519   O     0.89053   0.83334   0.17319   0.00000  Uiso   1.00
O520   O     0.77185   0.97624   0.15026   0.00000  Uiso   1.00
Zn521  Zn    0.78229   0.83334   0.25000   0.00000  Uiso   1.00
Zn522  Zn    0.88438   0.83333   0.25000   0.00000  Uiso   1.00
C523   C     0.16734   0.24661   0.74791   0.00000  Uiso   1.00
C524   C     0.12254   0.16092   0.91097   0.00000  Uiso   1.00
C525   C     0.18959   0.31171   0.77802   0.00000  Uiso   1.00
C526   C     0.13998   0.16438   0.85206   0.00000  Uiso   1.00
C527   C     0.18925   0.02118   0.77938   0.00000  Uiso   1.00
C528   C     0.16698   0.04268   0.74855   0.00000  Uiso   1.00
C529   C     0.14620   0.02231   0.71506   0.00000  Uiso   1.00
C530   C     0.14756   0.31244   0.71185   0.00000  Uiso   1.00
C531   C     0.16837   0.29083   0.74514   0.00000  Uiso   1.00
C532   C     0.32033   0.14281   0.71374   0.00000  Uiso   1.00
C533   C     0.03493   0.14280   0.71377   0.00000  Uiso   1.00
C534   C     0.14358   0.15786   0.99229   0.00000  Uiso   1.00
C535   C     0.01299   0.19051   0.78628   0.00000  Uiso   1.00
C536   C     0.29839   0.19051   0.78626   0.00000  Uiso   1.00
C537   C     0.16661   0.08672   0.75001   0.00000  Uiso   1.00
C538   C     0.19337   0.16655   0.64785   0.00000  Uiso   1.00
C539   C     0.25882   0.12433   0.50935   0.00000  Uiso   1.00
C540   C     0.20947   0.16079   0.58962   0.00000  Uiso   1.00
C541   C     0.07717   0.17727   0.94086   0.00000  Uiso   1.00
C542   C     0.06403   0.18217   0.99655   0.00000  Uiso   1.00
C543   C     0.09722   0.17374   0.52209   0.00000  Uiso   1.00
C544   C     0.12969   0.29098   0.67204   0.00000  Uiso   1.00
C545   C     0.15350   0.14646   0.93780   0.00000  Uiso   1.00
C546   C     0.18044   0.15285   0.51469   0.00000  Uiso   1.00
C547   C     0.22303   0.13040   0.98610   0.00000  Uiso   1.00
C548   C     0.22875   0.11374   0.93528   0.00000  Uiso   1.00
C549   C     0.19439   0.12157   0.91137   0.00000  Uiso   1.00
C550   C     0.17643   0.17037   0.56448   0.00000  Uiso   1.00
C551   C     0.25160   0.13881   0.56165   0.00000  Uiso   1.00
H552   H     0.27752   0.13113   0.58101   0.00000  Uiso   1.00
H553   H     0.14657   0.19042   0.58579   0.00000  Uiso   1.00
H554   H     0.05247   0.18745   0.92099   0.00000  Uiso   1.00
H555   H     0.08525   0.17885   0.56528   0.00000  Uiso   1.00
H556   H     0.02877   0.19431   0.51968   0.00000  Uiso   1.00
H557   H     0.19991   0.10746   0.87224   0.00000  Uiso   1.00
H558   H     0.20558   0.29484   0.80338   0.00000  Uiso   1.00
H559   H     0.13866   0.25856   0.66101   0.00000  Uiso   1.00
H560   H     0.20534   0.03749   0.80520   0.00000  Uiso   1.00
H561   H     0.13060   0.04030   0.69025   0.00000  Uiso   1.00
H562   H     0.31097   0.12374   0.68473   0.00000  Uiso   1.00
H563   H     0.06183   0.12367   0.68478   0.00000  Uiso   1.00
H564   H     0.02235   0.20957   0.81529   0.00000  Uiso   1.00
H565   H     0.27149   0.20963   0.81525   0.00000  Uiso   1.00
H566   H     0.26017   0.09525   0.91357   0.00000  Uiso   1.00
H567   H     0.29129   0.10699   0.98802   0.00000  Uiso   1.00
N568   N     0.04760   0.16668   0.75001   0.00000  Uiso   1.00
N569   N     0.28573   0.16665   0.75000   0.00000  Uiso   1.00
O570   O     0.12846   0.22775   0.75000   0.00000  Uiso   1.00
O571   O     0.20490   0.22774   0.75000   0.00000  Uiso   1.00
O572   O     0.10947   0.16666   0.82681   0.00000  Uiso   1.00
O573   O     0.18591   0.16665   0.82681   0.00000  Uiso   1.00
O574   O     0.12843   0.10559   0.74999   0.00000  Uiso   1.00
O575   O     0.20488   0.10558   0.74999   0.00000  Uiso   1.00
O576   O     0.14742   0.16668   0.67319   0.00000  Uiso   1.00
O577   O     0.22387   0.16667   0.67319   0.00000  Uiso   1.00
O578   O     0.10519   0.30957   0.65026   0.00000  Uiso   1.00
Zn579  Zn    0.11562   0.16667   0.75000   0.00000  Uiso   1.00
Zn580  Zn    0.21771   0.16666   0.75000   0.00000  Uiso   1.00
C581   C     0.50067   0.24661   0.74791   0.00000  Uiso   1.00
C582   C     0.45588   0.16092   0.91097   0.00000  Uiso   1.00
C583   C     0.52292   0.31171   0.77802   0.00000  Uiso   1.00
C584   C     0.47331   0.16438   0.85206   0.00000  Uiso   1.00
C585   C     0.52259   0.02118   0.77938   0.00000  Uiso   1.00
C586   C     0.50032   0.04268   0.74855   0.00000  Uiso   1.00
C587   C     0.47953   0.02231   0.71506   0.00000  Uiso   1.00
C588   C     0.48089   0.31244   0.71185   0.00000  Uiso   1.00
C589   C     0.50170   0.29083   0.74514   0.00000  Uiso   1.00
C590   C     0.65367   0.14281   0.71374   0.00000  Uiso   1.00
C591   C     0.36827   0.14280   0.71377   0.00000  Uiso   1.00
C592   C     0.47691   0.15786   0.99229   0.00000  Uiso   1.00
C593   C     0.34632   0.19051   0.78628   0.00000  Uiso   1.00
C594   C     0.63172   0.19051   0.78626   0.00000  Uiso   1.00
C595   C     0.49995   0.08672   0.75001   0.00000  Uiso   1.00
C596   C     0.52670   0.16655   0.64785   0.00000  Uiso   1.00
C597   C     0.59215   0.12433   0.50935   0.00000  Uiso   1.00
C598   C     0.54280   0.16079   0.58962   0.00000  Uiso   1.00
C599   C     0.41051   0.17727   0.94086   0.00000  Uiso   1.00
C600   C     0.39736   0.18217   0.99655   0.00000  Uiso   1.00
C601   C     0.43056   0.17374   0.52209   0.00000  Uiso   1.00
C602   C     0.46302   0.29098   0.67204   0.00000  Uiso   1.00
C603   C     0.48683   0.14646   0.93780   0.00000  Uiso   1.00
C604   C     0.51377   0.15285   0.51469   0.00000  Uiso   1.00
C605   C     0.55636   0.13040   0.98610   0.00000  Uiso   1.00
C606   C     0.56208   0.11374   0.93528   0.00000  Uiso   1.00
C607   C     0.52772   0.12157   0.91137   0.00000  Uiso   1.00
C608   C     0.50976   0.17037   0.56448   0.00000  Uiso   1.00
C609   C     0.58494   0.13881   0.56165   0.00000  Uiso   1.00
H610   H     0.61085   0.13113   0.58101   0.00000  Uiso   1.00
H611   H     0.47991   0.19042   0.58579   0.00000  Uiso   1.00
H612   H     0.38581   0.18745   0.92099   0.00000  Uiso   1.00
H613   H     0.41858   0.17885   0.56528   0.00000  Uiso   1.00
H614   H     0.36210   0.19431   0.51968   0.00000  Uiso   1.00
H615   H     0.53324   0.10746   0.87224   0.00000  Uiso   1.00
H616   H     0.53891   0.29484   0.80338   0.00000  Uiso   1.00
H617   H     0.47199   0.25856   0.66101   0.00000  Uiso   1.00
H618   H     0.53867   0.03749   0.80520   0.00000  Uiso   1.00
H619   H     0.46393   0.04030   0.69025   0.00000  Uiso   1.00
H620   H     0.64431   0.12374   0.68473   0.00000  Uiso   1.00
H621   H     0.39516   0.12367   0.68478   0.00000  Uiso   1.00
H622   H     0.35568   0.20957   0.81529   0.00000  Uiso   1.00
H623   H     0.60483   0.20963   0.81525   0.00000  Uiso   1.00
H624   H     0.59351   0.09525   0.91357   0.00000  Uiso   1.00
H625   H     0.62463   0.10699   0.98802   0.00000  Uiso   1.00
N626   N     0.38093   0.16668   0.75001   0.00000  Uiso   1.00
N627   N     0.61906   0.16665   0.75000   0.00000  Uiso   1.00
O628   O     0.46179   0.22775   0.75000   0.00000  Uiso   1.00
O629   O     0.53823   0.22774   0.75000   0.00000  Uiso   1.00
O630   O     0.44280   0.16666   0.82681   0.00000  Uiso   1.00
O631   O     0.51924   0.16665   0.82681   0.00000  Uiso   1.00
O632   O     0.46177   0.10559   0.74999   0.00000  Uiso   1.00
O633   O     0.53821   0.10558   0.74999   0.00000  Uiso   1.00
O634   O     0.48076   0.16668   0.67319   0.00000  Uiso   1.00
O635   O     0.55720   0.16667   0.67319   0.00000  Uiso   1.00
O636   O     0.43852   0.30957   0.65026   0.00000  Uiso   1.00
Zn637  Zn    0.44896   0.16667   0.75000   0.00000  Uiso   1.00
Zn638  Zn    0.55104   0.16666   0.75000   0.00000  Uiso   1.00
C639   C     0.83401   0.24661   0.74791   0.00000  Uiso   1.00
C640   C     0.78921   0.16092   0.91097   0.00000  Uiso   1.00
C641   C     0.85626   0.31171   0.77802   0.00000  Uiso   1.00
C642   C     0.80665   0.16438   0.85206   0.00000  Uiso   1.00
C643   C     0.85592   0.02118   0.77938   0.00000  Uiso   1.00
C644   C     0.83365   0.04268   0.74855   0.00000  Uiso   1.00
C645   C     0.81286   0.02231   0.71506   0.00000  Uiso   1.00
C646   C     0.81422   0.31244   0.71185   0.00000  Uiso   1.00
C647   C     0.83504   0.29083   0.74514   0.00000  Uiso   1.00
C648   C     0.98700   0.14281   0.71374   0.00000  Uiso   1.00
C649   C     0.70160   0.14280   0.71377   0.00000  Uiso   1.00
C650   C     0.81024   0.15786   0.99229   0.00000  Uiso   1.00
C651   C     0.67965   0.19051   0.78628   0.00000  Uiso   1.00
C652   C     0.96505   0.19051   0.78626   0.00000  Uiso   1.00
C653   C     0.83328   0.08672   0.75001   0.00000  Uiso   1.00
C654   C     0.86003   0.16655   0.64785   0.00000  Uiso   1.00
C655   C     0.92549   0.12433   0.50935   0.00000  Uiso   1.00
C656   C     0.87614   0.16079   0.58962   0.00000  Uiso   1.00
C657   C     0.74384   0.17727   0.94086   0.00000  Uiso   1.00
C658   C     0.73070   0.18217   0.99655   0.00000  Uiso   1.00
C659   C     0.76389   0.17374   0.52209   0.00000  Uiso   1.00
C660   C     0.79635   0.29098   0.67204   0.00000  Uiso   1.00
C661   C     0.82016   0.14646   0.93780   0.00000  Uiso   1.00
C662   C     0.84711   0.15285   0.51469   0.00000  Uiso   1.00
C663   C     0.88969   0.13040   0.98610   0.00000  Uiso   1.00
C664   C     0.89541   0.11374   0.93528   0.00000  Uiso   1.00
C665   C     0.86105   0.12157   0.91137   0.00000  Uiso   1.00
C666   C     0.84310   0.17037   0.56448   0.00000  Uiso   1.00
C667   C     0.91827   0.13881   0.56165   0.00000  Uiso   1.00
H668   H     0.94418   0.13113   0.58101   0.00000  Uiso   1.00
H669   H     0.81324   0.19042   0.58579   0.00000  Uiso   1.00
H670   H     0.71914   0.18745   0.92099   0.00000  Uiso   1.00
H671   H     0.75192   0.17885   0.56528   0.00000  Uiso   1.00
H672   H     0.69544   0.19431   0.51968   0.00000  Uiso   1.00
H673   H     0.86658   0.10746   0.87224   0.00000  Uiso   1.00
H674   H     0.87224   0.29484   0.80338   0.00000  Uiso   1.00
H675   H     0.80532   0.25856   0.66101   0.00000  Uiso   1.00
H676   H     0.87201   0.03749   0.80520   0.00000  Uiso   1.00
H677   H     0.79726   0.04030   0.69025   0.00000  Uiso   1.00
H678   H     0.97764   0.12374   0.68473   0.00000  Uiso   1.00
H679   H     0.72849   0.12367   0.68478   0.00000  Uiso   1.00
H680   H     0.68902   0.20957   0.81529   0.00000  Uiso   1.00
H681   H     0.93816   0.20963   0.81525   0.00000  Uiso   1.00
H682   H     0.92684   0.09525   0.91357   0.00000  Uiso   1.00
H683   H     0.95796   0.10699   0.98802   0.00000  Uiso   1.00
N684   N     0.71426   0.16668   0.75001   0.00000  Uiso   1.00
N685   N     0.95239   0.16665   0.75000   0.00000  Uiso   1.00
O686   O     0.79512   0.22775   0.75000   0.00000  Uiso   1.00
O687   O     0.87157   0.22774   0.75000   0.00000  Uiso   1.00
O688   O     0.77613   0.16666   0.82681   0.00000  Uiso   1.00
O689   O     0.85258   0.16665   0.82681   0.00000  Uiso   1.00
O690   O     0.79510   0.10559   0.74999   0.00000  Uiso   1.00
O691   O     0.87154   0.10558   0.74999   0.00000  Uiso   1.00
O692   O     0.81409   0.16668   0.67319   0.00000  Uiso   1.00
O693   O     0.89053   0.16667   0.67319   0.00000  Uiso   1.00
O694   O     0.77185   0.30957   0.65026   0.00000  Uiso   1.00
Zn695  Zn    0.78229   0.16667   0.75000   0.00000  Uiso   1.00
Zn696  Zn    0.88438   0.16666   0.75000   0.00000  Uiso   1.00
C697   C     0.16734   0.57994   0.74791   0.00000  Uiso   1.00
C698   C     0.12254   0.49426   0.91097   0.00000  Uiso   1.00
C699   C     0.18959   0.64505   0.77802   0.00000  Uiso   1.00
C700   C     0.13998   0.49771   0.85206   0.00000  Uiso   1.00
C701   C     0.18925   0.35452   0.77938   0.00000  Uiso   1.00
C702   C     0.16698   0.37601   0.74855   0.00000  Uiso   1.00
C703   C     0.14620   0.35564   0.71506   0.00000  Uiso   1.00
C704   C     0.14756   0.64578   0.71185   0.00000  Uiso   1.00
C705   C     0.16837   0.62416   0.74514   0.00000  Uiso   1.00
C706   C     0.32033   0.47614   0.71374   0.00000  Uiso   1.00
C707   C     0.03493   0.47613   0.71377   0.00000  Uiso   1.00
C708   C     0.14358   0.49120   0.99229   0.00000  Uiso   1.00
C709   C     0.01299   0.52384   0.78628   0.00000  Uiso   1.00
C710   C     0.29839   0.52384   0.78626   0.00000  Uiso   1.00
C711   C     0.16661   0.42005   0.75001   0.00000  Uiso   1.00
C712   C     0.19337   0.49989   0.64785   0.00000  Uiso   1.00
C713   C     0.25882   0.45766   0.50935   0.00000  Uiso   1.00
C714   C     0.20947   0.49412   0.58962   0.00000  Uiso   1.00
C715   C     0.07717   0.51060   0.94086   0.00000  Uiso   1.00
C716   C     0.06403   0.51550   0.99655   0.00000  Uiso   1.00
C717   C     0.09722   0.50707   0.52209   0.00000  Uiso   1.00
C718   C     0.12969   0.62431   0.67204   0.00000  Uiso   1.00
C719   C     0.15350   0.47980   0.93780   0.00000  Uiso   1.00
C720   C     0.18044   0.48618   0.51469   0.00000  Uiso   1.00
C721   C     0.22303   0.46374   0.98610   0.00000  Uiso   1.00
C722   C     0.22875   0.44708   0.93528   0.00000  Uiso   1.00
C723   C     0.19439   0.45491   0.91137   0.00000  Uiso   1.00
C724   C     0.17643   0.50370   0.56448   0.00000  Uiso   1.00
C725   C     0.25160   0.47214   0.56165   0.00000  Uiso   1.00
H726   H     0.27752   0.46446   0.58101   0.00000  Uiso   1.00
H727   H     0.14657   0.52375   0.58579   0.00000  Uiso   1.00
H728   H     0.05247   0.52078   0.92099   0.00000  Uiso   1.00
H729   H     0.08525   0.51218   0.56528   0.00000  Uiso   1.00
H730   H     0.02877   0.52765   0.51968   0.00000  Uiso   1.00
H731   H     0.19991   0.44079   0.87224   0.00000  Uiso   1.00
H732   H     0.20558   0.62818   0.80338   0.00000  Uiso   1.00
H733   H     0.13866   0.59189   0.66101   0.00000  Uiso   1.00
H734   H     0.20534   0.37082   0.80520   0.00000  Uiso   1.00
H735   H     0.13060   0.37363   0.69025   0.00000  Uiso   1.00
H736   H     0.31097   0.45708   0.68473   0.00000  Uiso   1.00
H737   H     0.06183   0.45701   0.68478   0.00000  Uiso   1.00
H738   H     0.02235   0.54291   0.81529   0.00000  Uiso   1.00
H739   H     0.27149   0.54296   0.81525   0.00000  Uiso   1.00
H740   H     0.26017   0.42859   0.91357   0.00000  Uiso   1.00
H741   H     0.29129   0.44032   0.98802   0.00000  Uiso   1.00
N742   N     0.04760   0.50001   0.75001   0.00000  Uiso   1.00
N743   N     0.28573   0.49998   0.75000   0.00000  Uiso   1.00
O744   O     0.12846   0.56108   0.75000   0.00000  Uiso   1.00
O745   O     0.20490   0.56107   0.75000   0.00000  Uiso   1.00
O746   O     0.10947   0.50000   0.82681   0.00000  Uiso   1.00
O747   O     0.18591   0.49999   0.82681   0.00000  Uiso   1.00
O748   O     0.12843   0.43893   0.74999   0.00000  Uiso   1.00
O749   O     0.20488   0.43892   0.74999   0.00000  Uiso   1.00
O750   O     0.14742   0.50001   0.67319   0.00000  Uiso   1.00
O751   O     0.22387   0.50000   0.67319   0.00000  Uiso   1.00
O752   O     0.10519   0.64291   0.65026   0.00000  Uiso   1.00
Zn753  Zn    0.11562   0.50001   0.75000   0.00000  Uiso   1.00
Zn754  Zn    0.21771   0.49999   0.75000   0.00000  Uiso   1.00
C755   C     0.50067   0.57994   0.74791   0.00000  Uiso   1.00
C756   C     0.45588   0.49426   0.91097   0.00000  Uiso   1.00
C757   C     0.52292   0.64505   0.77802   0.00000  Uiso   1.00
C758   C     0.47331   0.49771   0.85206   0.00000  Uiso   1.00
C759   C     0.52259   0.35452   0.77938   0.00000  Uiso   1.00
C760   C     0.50032   0.37601   0.74855   0.00000  Uiso   1.00
C761   C     0.47953   0.35564   0.71506   0.00000  Uiso   1.00
C762   C     0.48089   0.64578   0.71185   0.00000  Uiso   1.00
C763   C     0.50170   0.62416   0.74514   0.00000  Uiso   1.00
C764   C     0.65367   0.47614   0.71374   0.00000  Uiso   1.00
C765   C     0.36827   0.47613   0.71377   0.00000  Uiso   1.00
C766   C     0.47691   0.49120   0.99229   0.00000  Uiso   1.00
C767   C     0.34632   0.52384   0.78628   0.00000  Uiso   1.00
C768   C     0.63172   0.52384   0.78626   0.00000  Uiso   1.00
C769   C     0.49995   0.42005   0.75001   0.00000  Uiso   1.00
C770   C     0.52670   0.49989   0.64785   0.00000  Uiso   1.00
C771   C     0.59215   0.45766   0.50935   0.00000  Uiso   1.00
C772   C     0.54280   0.49412   0.58962   0.00000  Uiso   1.00
C773   C     0.41051   0.51060   0.94086   0.00000  Uiso   1.00
C774   C     0.39736   0.51550   0.99655   0.00000  Uiso   1.00
C775   C     0.43056   0.50707   0.52209   0.00000  Uiso   1.00
C776   C     0.46302   0.62431   0.67204   0.00000  Uiso   1.00
C777   C     0.48683   0.47980   0.93780   0.00000  Uiso   1.00
C778   C     0.51377   0.48618   0.51469   0.00000  Uiso   1.00
C779   C     0.55636   0.46374   0.98610   0.00000  Uiso   1.00
C780   C     0.56208   0.44708   0.93528   0.00000  Uiso   1.00
C781   C     0.52772   0.45491   0.91137   0.00000  Uiso   1.00
C782   C     0.50976   0.50370   0.56448   0.00000  Uiso   1.00
C783   C     0.58494   0.47214   0.56165   0.00000  Uiso   1.00
H784   H     0.61085   0.46446   0.58101   0.00000  Uiso   1.00
H785   H     0.47991   0.52375   0.58579   0.00000  Uiso   1.00
H786   H     0.38581   0.52078   0.92099   0.00000  Uiso   1.00
H787   H     0.41858   0.51218   0.56528   0.00000  Uiso   1.00
H788   H     0.36210   0.52765   0.51968   0.00000  Uiso   1.00
H789   H     0.53324   0.44079   0.87224   0.00000  Uiso   1.00
H790   H     0.53891   0.62818   0.80338   0.00000  Uiso   1.00
H791   H     0.47199   0.59189   0.66101   0.00000  Uiso   1.00
H792   H     0.53867   0.37082   0.80520   0.00000  Uiso   1.00
H793   H     0.46393   0.37363   0.69025   0.00000  Uiso   1.00
H794   H     0.64431   0.45708   0.68473   0.00000  Uiso   1.00
H795   H     0.39516   0.45701   0.68478   0.00000  Uiso   1.00
H796   H     0.35568   0.54291   0.81529   0.00000  Uiso   1.00
H797   H     0.60483   0.54296   0.81525   0.00000  Uiso   1.00
H798   H     0.59351   0.42859   0.91357   0.00000  Uiso   1.00
H799   H     0.62463   0.44032   0.98802   0.00000  Uiso   1.00
N800   N     0.38093   0.50001   0.75001   0.00000  Uiso   1.00
N801   N     0.61906   0.49998   0.75000   0.00000  Uiso   1.00
O802   O     0.46179   0.56108   0.75000   0.00000  Uiso   1.00
O803   O     0.53823   0.56107   0.75000   0.00000  Uiso   1.00
O804   O     0.44280   0.50000   0.82681   0.00000  Uiso   1.00
O805   O     0.51924   0.49999   0.82681   0.00000  Uiso   1.00
O806   O     0.46177   0.43893   0.74999   0.00000  Uiso   1.00
O807   O     0.53821   0.43892   0.74999   0.00000  Uiso   1.00
O808   O     0.48076   0.50001   0.67319   0.00000  Uiso   1.00
O809   O     0.55720   0.50000   0.67319   0.00000  Uiso   1.00
O810   O     0.43852   0.64291   0.65026   0.00000  Uiso   1.00
Zn811  Zn    0.44896   0.50001   0.75000   0.00000  Uiso   1.00
Zn812  Zn    0.55104   0.49999   0.75000   0.00000  Uiso   1.00
C813   C     0.83401   0.57994   0.74791   0.00000  Uiso   1.00
C814   C     0.78921   0.49426   0.91097   0.00000  Uiso   1.00
C815   C     0.85626   0.64505   0.77802   0.00000  Uiso   1.00
C816   C     0.80665   0.49771   0.85206   0.00000  Uiso   1.00
C817   C     0.85592   0.35452   0.77938   0.00000  Uiso   1.00
C818   C     0.83365   0.37601   0.74855   0.00000  Uiso   1.00
C819   C     0.81286   0.35564   0.71506   0.00000  Uiso   1.00
C820   C     0.81422   0.64578   0.71185   0.00000  Uiso   1.00
C821   C     0.83504   0.62416   0.74514   0.00000  Uiso   1.00
C822   C     0.98700   0.47614   0.71374   0.00000  Uiso   1.00
C823   C     0.70160   0.47613   0.71377   0.00000  Uiso   1.00
C824   C     0.81024   0.49120   0.99229   0.00000  Uiso   1.00
C825   C     0.67965   0.52384   0.78628   0.00000  Uiso   1.00
C826   C     0.96505   0.52384   0.78626   0.00000  Uiso   1.00
C827   C     0.83328   0.42005   0.75001   0.00000  Uiso   1.00
C828   C     0.86003   0.49989   0.64785   0.00000  Uiso   1.00
C829   C     0.92549   0.45766   0.50935   0.00000  Uiso   1.00
C830   C     0.87614   0.49412   0.58962   0.00000  Uiso   1.00
C831   C     0.74384   0.51060   0.94086   0.00000  Uiso   1.00
C832   C     0.73070   0.51550   0.99655   0.00000  Uiso   1.00
C833   C     0.76389   0.50707   0.52209   0.00000  Uiso   1.00
C834   C     0.79635   0.62431   0.67204   0.00000  Uiso   1.00
C835   C     0.82016   0.47980   0.93780   0.00000  Uiso   1.00
C836   C     0.84711   0.48618   0.51469   0.00000  Uiso   1.00
C837   C     0.88969   0.46374   0.98610   0.00000  Uiso   1.00
C838   C     0.89541   0.44708   0.93528   0.00000  Uiso   1.00
C839   C     0.86105   0.45491   0.91137   0.00000  Uiso   1.00
C840   C     0.84310   0.50370   0.56448   0.00000  Uiso   1.00
C841   C     0.91827   0.47214   0.56165   0.00000  Uiso   1.00
H842   H     0.94418   0.46446   0.58101   0.00000  Uiso   1.00
H843   H     0.81324   0.52375   0.58579   0.00000  Uiso   1.00
H844   H     0.71914   0.52078   0.92099   0.00000  Uiso   1.00
H845   H     0.75192   0.51218   0.56528   0.00000  Uiso   1.00
H846   H     0.69544   0.52765   0.51968   0.00000  Uiso   1.00
H847   H     0.86658   0.44079   0.87224   0.00000  Uiso   1.00
H848   H     0.87224   0.62818   0.80338   0.00000  Uiso   1.00
H849   H     0.80532   0.59189   0.66101   0.00000  Uiso   1.00
H850   H     0.87201   0.37082   0.80520   0.00000  Uiso   1.00
H851   H     0.79726   0.37363   0.69025   0.00000  Uiso   1.00
H852   H     0.97764   0.45708   0.68473   0.00000  Uiso   1.00
H853   H     0.72849   0.45701   0.68478   0.00000  Uiso   1.00
H854   H     0.68902   0.54291   0.81529   0.00000  Uiso   1.00
H855   H     0.93816   0.54296   0.81525   0.00000  Uiso   1.00
H856   H     0.92684   0.42859   0.91357   0.00000  Uiso   1.00
H857   H     0.95796   0.44032   0.98802   0.00000  Uiso   1.00
N858   N     0.71426   0.50001   0.75001   0.00000  Uiso   1.00
N859   N     0.95239   0.49998   0.75000   0.00000  Uiso   1.00
O860   O     0.79512   0.56108   0.75000   0.00000  Uiso   1.00
O861   O     0.87157   0.56107   0.75000   0.00000  Uiso   1.00
O862   O     0.77613   0.50000   0.82681   0.00000  Uiso   1.00
O863   O     0.85258   0.49999   0.82681   0.00000  Uiso   1.00
O864   O     0.79510   0.43893   0.74999   0.00000  Uiso   1.00
O865   O     0.87154   0.43892   0.74999   0.00000  Uiso   1.00
O866   O     0.81409   0.50001   0.67319   0.00000  Uiso   1.00
O867   O     0.89053   0.50000   0.67319   0.00000  Uiso   1.00
O868   O     0.77185   0.64291   0.65026   0.00000  Uiso   1.00
Zn869  Zn    0.78229   0.50001   0.75000   0.00000  Uiso   1.00
Zn870  Zn    0.88438   0.49999   0.75000   0.00000  Uiso   1.00
C871   C     0.16734   0.91328   0.74791   0.00000  Uiso   1.00
C872   C     0.12254   0.82759   0.91097   0.00000  Uiso   1.00
C873   C     0.18959   0.97838   0.77802   0.00000  Uiso   1.00
C874   C     0.13998   0.83105   0.85206   0.00000  Uiso   1.00
C875   C     0.18925   0.68785   0.77938   0.00000  Uiso   1.00
C876   C     0.16698   0.70934   0.74855   0.00000  Uiso   1.00
C877   C     0.14620   0.68897   0.71506   0.00000  Uiso   1.00
C878   C     0.14756   0.97911   0.71185   0.00000  Uiso   1.00
C879   C     0.16837   0.95749   0.74514   0.00000  Uiso   1.00
C880   C     0.32033   0.80947   0.71374   0.00000  Uiso   1.00
C881   C     0.03493   0.80946   0.71377   0.00000  Uiso   1.00
C882   C     0.14358   0.82453   0.99229   0.00000  Uiso   1.00
C883   C     0.01299   0.85717   0.78628   0.00000  Uiso   1.00
C884   C     0.29839   0.85718   0.78626   0.00000  Uiso   1.00
C885   C     0.16661   0.75338   0.75001   0.00000  Uiso   1.00
C886   C     0.19337   0.83322   0.64785   0.00000  Uiso   1.00
C887   C     0.25882   0.79100   0.50935   0.00000  Uiso   1.00
C888   C     0.20947   0.82746   0.58962   0.00000  Uiso   1.00
C889   C     0.07717   0.84393   0.94086   0.00000  Uiso   1.00
C890   C     0.06403   0.84884   0.99655   0.00000  Uiso   1.00
C891   C     0.09722   0.84041   0.52209   0.00000  Uiso   1.00
C892   C     0.12969   0.95765   0.67204   0.00000  Uiso   1.00
C893   C     0.15350   0.81313   0.93780   0.00000  Uiso   1.00
C894   C     0.18044   0.81951   0.51469   0.00000  Uiso   1.00
C895   C     0.22303   0.79707   0.98610   0.00000  Uiso   1.00
C896   C     0.22875   0.78041   0.93528   0.00000  Uiso   1.00
C897   C     0.19439   0.78824   0.91137   0.00000  Uiso   1.00
C898   C     0.17643   0.83703   0.56448   0.00000  Uiso   1.00
C899   C     0.25160   0.80547   0.56165   0.00000  Uiso   1.00
H900   H     0.27752   0.79779   0.58101   0.00000  Uiso   1.00
H901   H     0.14657   0.85709   0.58579   0.00000  Uiso   1.00
H902   H     0.05247   0.85412   0.92099   0.00000  Uiso   1.00
H903   H     0.08525   0.84552   0.56528   0.00000  Uiso   1.00
H904   H     0.02877   0.86098   0.51968   0.00000  Uiso   1.00
H905   H     0.19991   0.77413   0.87224   0.00000  Uiso   1.00
H906   H     0.20558   0.96151   0.80338   0.00000  Uiso   1.00
H907   H     0.13866   0.92523   0.66101   0.00000  Uiso   1.00
H908   H     0.20534   0.70415   0.80520   0.00000  Uiso   1.00
H909   H     0.13060   0.70696   0.69025   0.00000  Uiso   1.00
H910   H     0.31097   0.79041   0.68473   0.00000  Uiso   1.00
H911   H     0.06183   0.79034   0.68478   0.00000  Uiso   1.00
H912   H     0.02235   0.87624   0.81529   0.00000  Uiso   1.00
H913   H     0.27149   0.87629   0.81525   0.00000  Uiso   1.00
H914   H     0.26017   0.76192   0.91357   0.00000  Uiso   1.00
H915   H     0.29129   0.77366   0.98802   0.00000  Uiso   1.00
N916   N     0.04760   0.83334   0.75001   0.00000  Uiso   1.00
N917   N     0.28573   0.83331   0.75000   0.00000  Uiso   1.00
O918   O     0.12846   0.89442   0.75000   0.00000  Uiso   1.00
O919   O     0.20490   0.89441   0.75000   0.00000  Uiso   1.00
O920   O     0.10947   0.83333   0.82681   0.00000  Uiso   1.00
O921   O     0.18591   0.83332   0.82681   0.00000  Uiso   1.00
O922   O     0.12843   0.77226   0.74999   0.00000  Uiso   1.00
O923   O     0.20488   0.77225   0.74999   0.00000  Uiso   1.00
O924   O     0.14742   0.83335   0.67319   0.00000  Uiso   1.00
O925   O     0.22387   0.83334   0.67319   0.00000  Uiso   1.00
O926   O     0.10519   0.97624   0.65026   0.00000  Uiso   1.00
Zn927  Zn    0.11562   0.83334   0.75000   0.00000  Uiso   1.00
Zn928  Zn    0.21771   0.83333   0.75000   0.00000  Uiso   1.00
C929   C     0.50067   0.91328   0.74791   0.00000  Uiso   1.00
C930   C     0.45588   0.82759   0.91097   0.00000  Uiso   1.00
C931   C     0.52292   0.97838   0.77802   0.00000  Uiso   1.00
C932   C     0.47331   0.83105   0.85206   0.00000  Uiso   1.00
C933   C     0.52259   0.68785   0.77938   0.00000  Uiso   1.00
C934   C     0.50032   0.70934   0.74855   0.00000  Uiso   1.00
C935   C     0.47953   0.68897   0.71506   0.00000  Uiso   1.00
C936   C     0.48089   0.97911   0.71185   0.00000  Uiso   1.00
C937   C     0.50170   0.95749   0.74514   0.00000  Uiso   1.00
C938   C     0.65367   0.80947   0.71374   0.00000  Uiso   1.00
C939   C     0.36827   0.80946   0.71377   0.00000  Uiso   1.00
C940   C     0.47691   0.82453   0.99229   0.00000  Uiso   1.00
C941   C     0.34632   0.85717   0.78628   0.00000  Uiso   1.00
C942   C     0.63172   0.85718   0.78626   0.00000  Uiso   1.00
C943   C     0.49995   0.75338   0.75001   0.00000  Uiso   1.00
C944   C     0.52670   0.83322   0.64785   0.00000  Uiso   1.00
C945   C     0.59215   0.79100   0.50935   0.00000  Uiso   1.00
C946   C     0.54280   0.82746   0.58962   0.00000  Uiso   1.00
C947   C     0.41051   0.84393   0.94086   0.00000  Uiso   1.00
C948   C     0.39736   0.84884   0.99655   0.00000  Uiso   1.00
C949   C     0.43056   0.84041   0.52209   0.00000  Uiso   1.00
C950   C     0.46302   0.95765   0.67204   0.00000  Uiso   1.00
C951   C     0.48683   0.81313   0.93780   0.00000  Uiso   1.00
C952   C     0.51377   0.81951   0.51469   0.00000  Uiso   1.00
C953   C     0.55636   0.79707   0.98610   0.00000  Uiso   1.00
C954   C     0.56208   0.78041   0.93528   0.00000  Uiso   1.00
C955   C     0.52772   0.78824   0.91137   0.00000  Uiso   1.00
C956   C     0.50976   0.83703   0.56448   0.00000  Uiso   1.00
C957   C     0.58494   0.80547   0.56165   0.00000  Uiso   1.00
H958   H     0.61085   0.79779   0.58101   0.00000  Uiso   1.00
H959   H     0.47991   0.85709   0.58579   0.00000  Uiso   1.00
H960   H     0.38581   0.85412   0.92099   0.00000  Uiso   1.00
H961   H     0.41858   0.84552   0.56528   0.00000  Uiso   1.00
H962   H     0.36210   0.86098   0.51968   0.00000  Uiso   1.00
H963   H     0.53324   0.77413   0.87224   0.00000  Uiso   1.00
H964   H     0.53891   0.96151   0.80338   0.00000  Uiso   1.00
H965   H     0.47199   0.92523   0.66101   0.00000  Uiso   1.00
H966   H     0.53867   0.70415   0.80520   0.00000  Uiso   1.00
H967   H     0.46393   0.70696   0.69025   0.00000  Uiso   1.00
H968   H     0.64431   0.79041   0.68473   0.00000  Uiso   1.00
H969   H     0.39516   0.79034   0.68478   0.00000  Uiso   1.00
H970   H     0.35568   0.87624   0.81529   0.00000  Uiso   1.00
H971   H     0.60483   0.87629   0.81525   0.00000  Uiso   1.00
H972   H     0.59351   0.76192   0.91357   0.00000  Uiso   1.00
H973   H     0.62463   0.77366   0.98802   0.00000  Uiso   1.00
N974   N     0.38093   0.83334   0.75001   0.00000  Uiso   1.00
N975   N     0.61906   0.83331   0.75000   0.00000  Uiso   1.00
O976   O     0.46179   0.89442   0.75000   0.00000  Uiso   1.00
O977   O     0.53823   0.89441   0.75000   0.00000  Uiso   1.00
O978   O     0.44280   0.83333   0.82681   0.00000  Uiso   1.00
O979   O     0.51924   0.83332   0.82681   0.00000  Uiso   1.00
O980   O     0.46177   0.77226   0.74999   0.00000  Uiso   1.00
O981   O     0.53821   0.77225   0.74999   0.00000  Uiso   1.00
O982   O     0.48076   0.83335   0.67319   0.00000  Uiso   1.00
O983   O     0.55720   0.83334   0.67319   0.00000  Uiso   1.00
O984   O     0.43852   0.97624   0.65026   0.00000  Uiso   1.00
Zn985  Zn    0.44896   0.83334   0.75000   0.00000  Uiso   1.00
Zn986  Zn    0.55104   0.83333   0.75000   0.00000  Uiso   1.00
C987   C     0.83401   0.91328   0.74791   0.00000  Uiso   1.00
C988   C     0.78921   0.82759   0.91097   0.00000  Uiso   1.00
C989   C     0.85626   0.97838   0.77802   0.00000  Uiso   1.00
C990   C     0.80665   0.83105   0.85206   0.00000  Uiso   1.00
C991   C     0.85592   0.68785   0.77938   0.00000  Uiso   1.00
C992   C     0.83365   0.70934   0.74855   0.00000  Uiso   1.00
C993   C     0.81286   0.68897   0.71506   0.00000  Uiso   1.00
C994   C     0.81422   0.97911   0.71185   0.00000  Uiso   1.00
C995   C     0.83504   0.95749   0.74514   0.00000  Uiso   1.00
C996   C     0.98700   0.80947   0.71374   0.00000  Uiso   1.00
C997   C     0.70160   0.80946   0.71377   0.00000  Uiso   1.00
C998   C     0.81024   0.82453   0.99229   0.00000  Uiso   1.00
C999   C     0.67965   0.85717   0.78628   0.00000  Uiso   1.00
C1000  C     0.96505   0.85718   0.78626   0.00000  Uiso   1.00
C1001  C     0.83328   0.75338   0.75001   0.00000  Uiso   1.00
C1002  C     0.86003   0.83322   0.64785   0.00000  Uiso   1.00
C1003  C     0.92549   0.79100   0.50935   0.00000  Uiso   1.00
C1004  C     0.87614   0.82746   0.58962   0.00000  Uiso   1.00
C1005  C     0.74384   0.84393   0.94086   0.00000  Uiso   1.00
C1006  C     0.73070   0.84884   0.99655   0.00000  Uiso   1.00
C1007  C     0.76389   0.84041   0.52209   0.00000  Uiso   1.00
C1008  C     0.79635   0.95765   0.67204   0.00000  Uiso   1.00
C1009  C     0.82016   0.81313   0.93780   0.00000  Uiso   1.00
C1010  C     0.84711   0.81951   0.51469   0.00000  Uiso   1.00
C1011  C     0.88969   0.79707   0.98610   0.00000  Uiso   1.00
C1012  C     0.89541   0.78041   0.93528   0.00000  Uiso   1.00
C1013  C     0.86105   0.78824   0.91137   0.00000  Uiso   1.00
C1014  C     0.84310   0.83703   0.56448   0.00000  Uiso   1.00
C1015  C     0.91827   0.80547   0.56165   0.00000  Uiso   1.00
H1016  H     0.94418   0.79779   0.58101   0.00000  Uiso   1.00
H1017  H     0.81324   0.85709   0.58579   0.00000  Uiso   1.00
H1018  H     0.71914   0.85412   0.92099   0.00000  Uiso   1.00
H1019  H     0.75192   0.84552   0.56528   0.00000  Uiso   1.00
H1020  H     0.69544   0.86098   0.51968   0.00000  Uiso   1.00
H1021  H     0.86658   0.77413   0.87224   0.00000  Uiso   1.00
H1022  H     0.87224   0.96151   0.80338   0.00000  Uiso   1.00
H1023  H     0.80532   0.92523   0.66101   0.00000  Uiso   1.00
H1024  H     0.87201   0.70415   0.80520   0.00000  Uiso   1.00
H1025  H     0.79726   0.70696   0.69025   0.00000  Uiso   1.00
H1026  H     0.97764   0.79041   0.68473   0.00000  Uiso   1.00
H1027  H     0.72849   0.79034   0.68478   0.00000  Uiso   1.00
H1028  H     0.68902   0.87624   0.81529   0.00000  Uiso   1.00
H1029  H     0.93816   0.87629   0.81525   0.00000  Uiso   1.00
H1030  H     0.92684   0.76192   0.91357   0.00000  Uiso   1.00
H1031  H     0.95796   0.77366   0.98802   0.00000  Uiso   1.00
N1032  N     0.71426   0.83334   0.75001   0.00000  Uiso   1.00
N1033  N     0.95239   0.83331   0.75000   0.00000  Uiso   1.00
O1034  O     0.79512   0.89442   0.75000   0.00000  Uiso   1.00
O1035  O     0.87157   0.89441   0.75000   0.00000  Uiso   1.00
O1036  O     0.77613   0.83333   0.82681   0.00000  Uiso   1.00
O1037  O     0.85258   0.83332   0.82681   0.00000  Uiso   1.00
O1038  O     0.79510   0.77226   0.74999   0.00000  Uiso   1.00
O1039  O     0.87154   0.77225   0.74999   0.00000  Uiso   1.00
O1040  O     0.81409   0.83335   0.67319   0.00000  Uiso   1.00
O1041  O     0.89053   0.83334   0.67319   0.00000  Uiso   1.00
O1042  O     0.77185   0.97624   0.65026   0.00000  Uiso   1.00
Zn1043 Zn    0.78229   0.83334   0.75000   0.00000  Uiso   1.00
Zn1044 Zn    0.88438   0.83333   0.75000   0.00000  Uiso   1.00
loop_
_geom_bond_atom_site_label_1
_geom_bond_atom_site_label_2
_geom_bond_distance
_geom_bond_site_symmetry_2
_ccdc_geom_bond_type
C1     O48     1.281   .     A
C1     C9      1.415   .     S
C1     O49     1.282   .     A
C2     C4      1.459   .     S
C2     C23     1.411   .     A
C2     C19     1.403   .     A
C3     C9      1.397   .     A
C3     H36     1.085   .     S
C3     C179    1.369   .     S
C4     O51     1.293   .     A
C4     O50     1.292   .     A
C5     H38     1.084   .     S
C5     C6      1.390   .     A
C5     C351    1.369   1_545 S
C6     C7      1.393   .     A
C6     C15     1.408   .     S
C7     H39     1.085   .     S
C7     C356    1.383   1_545 S
C8     C22     1.489   .     S
C8     C9      1.412   .     A
C8     C181    1.383   .     S
C10    H40     1.082   .     S
C10    N47     1.366   .     A
C10    C69     1.417   .     S
C11    H41     1.082   .     S
C11    N46     1.367   .     A
C11    C126    1.417   1_455 S
C12    C23     1.407   .     A
C12    C543    1.419   .     S
C12    C546    1.414   .     S
C13    H42     1.082   .     S
C13    N46     1.366   .     A
C13    C130    1.417   1_455 S
C14    N47     1.367   .     A
C14    H43     1.082   .     S
C14    C71     1.417   .     S
C15    O52     1.281   .     A
C15    O53     1.281   .     A
C16    O55     1.291   .     A
C16    O54     1.292   .     A
C16    C18     1.450   .     S
C17    C29     1.395   .     A
C17    C547    1.405   1_554 S
C17    H567    1.084   1_554 S
C18    C28     1.388   .     A
C18    C29     1.399   .     A
C19    C20     1.388   .     A
C19    H32     1.083   .     S
C20    C543    1.392   .     S
C20    H556    1.083   .     S
C21    H33     1.079   .     S
C21    C534    1.419   1_554 S
C21    C542    1.392   1_554 S
C22    H37     1.084   .     S
C22    O56     1.222   .     D
C23    C27     1.415   .     A
C24    C28     1.389   .     A
C24    C534    1.414   1_554 S
C24    C547    1.420   1_554 S
C25    C26     1.392   .     A
C25    C539    1.405   .     S
C25    C546    1.420   .     S
C26    H44     1.084   .     S
C26    C27     1.388   .     A
C27    H35     1.082   .     S
C28    H31     1.079   .     S
C29    H30     1.083   .     S
H34    C542    1.083   1_554 S
H45    C539    1.084   .     S
N46    Zn57    2.010   .     S
N47    Zn58    2.010   .     S
O48    Zn57    1.988   .     S
O49    Zn58    1.990   .     S
O50    Zn57    1.963   .     S
O51    Zn58    1.913   .     S
O52    Zn57    1.990   .     S
O53    Zn58    1.988   .     S
O54    Zn57    1.913   .     S
O55    Zn58    1.963   .     S
C59    O106    1.281   .     A
C59    C67     1.415   .     S
C59    O107    1.282   .     A
C60    C62     1.459   .     S
C60    C81     1.411   .     A
C60    C77     1.403   .     A
C61    C67     1.397   .     A
C61    H94     1.085   .     S
C61    C237    1.369   .     S
C62    O109    1.293   .     A
C62    O108    1.292   .     A
C63    H96     1.084   .     S
C63    C64     1.390   .     A
C63    C409    1.369   1_545 S
C64    C65     1.393   .     A
C64    C73     1.408   .     S
C65    H97     1.085   .     S
C65    C414    1.383   1_545 S
C66    C80     1.489   .     S
C66    C67     1.412   .     A
C66    C239    1.383   .     S
C68    H98     1.082   .     S
C68    N105    1.366   .     A
C68    C127    1.417   .     S
C69    H99     1.082   .     S
C69    N104    1.367   .     A
C70    C81     1.407   .     A
C70    C601    1.419   .     S
C70    C604    1.414   .     S
C71    H100    1.082   .     S
C71    N104    1.366   .     A
C72    N105    1.367   .     A
C72    H101    1.082   .     S
C72    C129    1.417   .     S
C73    O110    1.281   .     A
C73    O111    1.281   .     A
C74    O113    1.291   .     A
C74    O112    1.292   .     A
C74    C76     1.450   .     S
C75    C87     1.395   .     A
C75    C605    1.405   1_554 S
C75    H625    1.084   1_554 S
C76    C86     1.388   .     A
C76    C87     1.399   .     A
C77    C78     1.388   .     A
C77    H90     1.083   .     S
C78    C601    1.392   .     S
C78    H614    1.083   .     S
C79    H91     1.079   .     S
C79    C592    1.419   1_554 S
C79    C600    1.392   1_554 S
C80    H95     1.084   .     S
C80    O114    1.222   .     D
C81    C85     1.415   .     A
C82    C86     1.389   .     A
C82    C592    1.414   1_554 S
C82    C605    1.420   1_554 S
C83    C84     1.392   .     A
C83    C597    1.405   .     S
C83    C604    1.420   .     S
C84    H102    1.084   .     S
C84    C85     1.388   .     A
C85    H93     1.082   .     S
C86    H89     1.079   .     S
C87    H88     1.083   .     S
H92    C600    1.083   1_554 S
H103   C597    1.084   .     S
N104   Zn115   2.010   .     S
N105   Zn116   2.010   .     S
O106   Zn115   1.988   .     S
O107   Zn116   1.990   .     S
O108   Zn115   1.963   .     S
O109   Zn116   1.913   .     S
O110   Zn115   1.990   .     S
O111   Zn116   1.988   .     S
O112   Zn115   1.913   .     S
O113   Zn116   1.963   .     S
C117   O164    1.281   .     A
C117   C125    1.415   .     S
C117   O165    1.282   .     A
C118   C120    1.459   .     S
C118   C139    1.411   .     A
C118   C135    1.403   .     A
C119   C125    1.397   .     A
C119   H152    1.085   .     S
C119   C295    1.369   .     S
C120   O167    1.293   .     A
C120   O166    1.292   .     A
C121   H154    1.084   .     S
C121   C122    1.390   .     A
C121   C467    1.369   1_545 S
C122   C123    1.393   .     A
C122   C131    1.408   .     S
C123   H155    1.085   .     S
C123   C472    1.383   1_545 S
C124   C138    1.489   .     S
C124   C125    1.412   .     A
C124   C297    1.383   .     S
C126   H156    1.082   .     S
C126   N163    1.366   .     A
C126   C11     1.417   1_655 S
C127   H157    1.082   .     S
C127   N162    1.367   .     A
C128   C139    1.407   .     A
C128   C659    1.419   .     S
C128   C662    1.414   .     S
C129   H158    1.082   .     S
C129   N162    1.366   .     A
C130   N163    1.367   .     A
C130   H159    1.082   .     S
C130   C13     1.417   1_655 S
C131   O168    1.281   .     A
C131   O169    1.281   .     A
C132   O171    1.291   .     A
C132   O170    1.292   .     A
C132   C134    1.450   .     S
C133   C145    1.395   .     A
C133   C663    1.405   1_554 S
C133   H683    1.084   1_554 S
C134   C144    1.388   .     A
C134   C145    1.399   .     A
C135   C136    1.388   .     A
C135   H148    1.083   .     S
C136   C659    1.392   .     S
C136   H672    1.083   .     S
C137   H149    1.079   .     S
C137   C650    1.419   1_554 S
C137   C658    1.392   1_554 S
C138   H153    1.084   .     S
C138   O172    1.222   .     D
C139   C143    1.415   .     A
C140   C144    1.389   .     A
C140   C650    1.414   1_554 S
C140   C663    1.420   1_554 S
C141   C142    1.392   .     A
C141   C655    1.405   .     S
C141   C662    1.420   .     S
C142   H160    1.084   .     S
C142   C143    1.388   .     A
C143   H151    1.082   .     S
C144   H147    1.079   .     S
C145   H146    1.083   .     S
H150   C658    1.083   1_554 S
H161   C655    1.084   .     S
N162   Zn173   2.010   .     S
N163   Zn174   2.010   .     S
O164   Zn173   1.988   .     S
O165   Zn174   1.990   .     S
O166   Zn173   1.963   .     S
O167   Zn174   1.913   .     S
O168   Zn173   1.990   .     S
O169   Zn174   1.988   .     S
O170   Zn173   1.913   .     S
O171   Zn174   1.963   .     S
C175   O222    1.281   .     A
C175   C183    1.415   .     S
C175   O223    1.282   .     A
C176   C178    1.459   .     S
C176   C197    1.411   .     A
C176   C193    1.403   .     A
C177   C183    1.397   .     A
C177   H210    1.085   .     S
C177   C353    1.369   .     S
C178   O225    1.293   .     A
C178   O224    1.292   .     A
C179   H212    1.084   .     S
C179   C180    1.390   .     A
C180   C181    1.393   .     A
C180   C189    1.408   .     S
C181   H213    1.085   .     S
C182   C196    1.489   .     S
C182   C183    1.412   .     A
C182   C355    1.383   .     S
C184   H214    1.082   .     S
C184   N221    1.366   .     A
C184   C243    1.417   .     S
C185   H215    1.082   .     S
C185   N220    1.367   .     A
C185   C300    1.417   1_455 S
C186   C197    1.407   .     A
C186   C717    1.419   .     S
C186   C720    1.414   .     S
C187   H216    1.082   .     S
C187   N220    1.366   .     A
C187   C304    1.417   1_455 S
C188   N221    1.367   .     A
C188   H217    1.082   .     S
C188   C245    1.417   .     S
C189   O226    1.281   .     A
C189   O227    1.281   .     A
C190   O229    1.291   .     A
C190   O228    1.292   .     A
C190   C192    1.450   .     S
C191   C203    1.395   .     A
C191   C721    1.405   1_554 S
C191   H741    1.084   1_554 S
C192   C202    1.388   .     A
C192   C203    1.399   .     A
C193   C194    1.388   .     A
C193   H206    1.083   .     S
C194   C717    1.392   .     S
C194   H730    1.083   .     S
C195   H207    1.079   .     S
C195   C708    1.419   1_554 S
C195   C716    1.392   1_554 S
C196   H211    1.084   .     S
C196   O230    1.222   .     D
C197   C201    1.415   .     A
C198   C202    1.389   .     A
C198   C708    1.414   1_554 S
C198   C721    1.420   1_554 S
C199   C200    1.392   .     A
C199   C713    1.405   .     S
C199   C720    1.420   .     S
C200   H218    1.084   .     S
C200   C201    1.388   .     A
C201   H209    1.082   .     S
C202   H205    1.079   .     S
C203   H204    1.083   .     S
H208   C716    1.083   1_554 S
H219   C713    1.084   .     S
N220   Zn231   2.010   .     S
N221   Zn232   2.010   .     S
O222   Zn231   1.988   .     S
O223   Zn232   1.990   .     S
O224   Zn231   1.963   .     S
O225   Zn232   1.913   .     S
O226   Zn231   1.990   .     S
O227   Zn232   1.988   .     S
O228   Zn231   1.913   .     S
O229   Zn232   1.963   .     S
C233   O280    1.281   .     A
C233   C241    1.415   .     S
C233   O281    1.282   .     A
C234   C236    1.459   .     S
C234   C255    1.411   .     A
C234   C251    1.403   .     A
C235   C241    1.397   .     A
C235   H268    1.085   .     S
C235   C411    1.369   .     S
C236   O283    1.293   .     A
C236   O282    1.292   .     A
C237   H270    1.084   .     S
C237   C238    1.390   .     A
C238   C239    1.393   .     A
C238   C247    1.408   .     S
C239   H271    1.085   .     S
C240   C254    1.489   .     S
C240   C241    1.412   .     A
C240   C413    1.383   .     S
C242   H272    1.082   .     S
C242   N279    1.366   .     A
C242   C301    1.417   .     S
C243   H273    1.082   .     S
C243   N278    1.367   .     A
C244   C255    1.407   .     A
C244   C775    1.419   .     S
C244   C778    1.414   .     S
C245   H274    1.082   .     S
C245   N278    1.366   .     A
C246   N279    1.367   .     A
C246   H275    1.082   .     S
C246   C303    1.417   .     S
C247   O284    1.281   .     A
C247   O285    1.281   .     A
C248   O287    1.291   .     A
C248   O286    1.292   .     A
C248   C250    1.450   .     S
C249   C261    1.395   .     A
C249   C779    1.405   1_554 S
C249   H799    1.084   1_554 S
C250   C260    1.388   .     A
C250   C261    1.399   .     A
C251   C252    1.388   .     A
C251   H264    1.083   .     S
C252   C775    1.392   .     S
C252   H788    1.083   .     S
C253   H265    1.079   .     S
C253   C766    1.419   1_554 S
C253   C774    1.392   1_554 S
C254   H269    1.084   .     S
C254   O288    1.222   .     D
C255   C259    1.415   .     A
C256   C260    1.389   .     A
C256   C766    1.414   1_554 S
C256   C779    1.420   1_554 S
C257   C258    1.392   .     A
C257   C771    1.405   .     S
C257   C778    1.420   .     S
C258   H276    1.084   .     S
C258   C259    1.388   .     A
C259   H267    1.082   .     S
C260   H263    1.079   .     S
C261   H262    1.083   .     S
H266   C774    1.083   1_554 S
H277   C771    1.084   .     S
N278   Zn289   2.010   .     S
N279   Zn290   2.010   .     S
O280   Zn289   1.988   .     S
O281   Zn290   1.990   .     S
O282   Zn289   1.963   .     S
O283   Zn290   1.913   .     S
O284   Zn289   1.990   .     S
O285   Zn290   1.988   .     S
O286   Zn289   1.913   .     S
O287   Zn290   1.963   .     S
C291   O338    1.281   .     A
C291   C299    1.415   .     S
C291   O339    1.282   .     A
C292   C294    1.459   .     S
C292   C313    1.411   .     A
C292   C309    1.403   .     A
C293   C299    1.397   .     A
C293   H326    1.085   .     S
C293   C469    1.369   .     S
C294   O341    1.293   .     A
C294   O340    1.292   .     A
C295   H328    1.084   .     S
C295   C296    1.390   .     A
C296   C297    1.393   .     A
C296   C305    1.408   .     S
C297   H329    1.085   .     S
C298   C312    1.489   .     S
C298   C299    1.412   .     A
C298   C471    1.383   .     S
C300   H330    1.082   .     S
C300   N337    1.366   .     A
C300   C185    1.417   1_655 S
C301   H331    1.082   .     S
C301   N336    1.367   .     A
C302   C313    1.407   .     A
C302   C833    1.419   .     S
C302   C836    1.414   .     S
C303   H332    1.082   .     S
C303   N336    1.366   .     A
C304   N337    1.367   .     A
C304   H333    1.082   .     S
C304   C187    1.417   1_655 S
C305   O342    1.281   .     A
C305   O343    1.281   .     A
C306   O345    1.291   .     A
C306   O344    1.292   .     A
C306   C308    1.450   .     S
C307   C319    1.395   .     A
C307   C837    1.405   1_554 S
C307   H857    1.084   1_554 S
C308   C318    1.388   .     A
C308   C319    1.399   .     A
C309   C310    1.388   .     A
C309   H322    1.083   .     S
C310   C833    1.392   .     S
C310   H846    1.083   .     S
C311   H323    1.079   .     S
C311   C824    1.419   1_554 S
C311   C832    1.392   1_554 S
C312   H327    1.084   .     S
C312   O346    1.222   .     D
C313   C317    1.415   .     A
C314   C318    1.389   .     A
C314   C824    1.414   1_554 S
C314   C837    1.420   1_554 S
C315   C316    1.392   .     A
C315   C829    1.405   .     S
C315   C836    1.420   .     S
C316   H334    1.084   .     S
C316   C317    1.388   .     A
C317   H325    1.082   .     S
C318   H321    1.079   .     S
C319   H320    1.083   .     S
H324   C832    1.083   1_554 S
H335   C829    1.084   .     S
N336   Zn347   2.010   .     S
N337   Zn348   2.010   .     S
O338   Zn347   1.988   .     S
O339   Zn348   1.990   .     S
O340   Zn347   1.963   .     S
O341   Zn348   1.913   .     S
O342   Zn347   1.990   .     S
O343   Zn348   1.988   .     S
O344   Zn347   1.913   .     S
O345   Zn348   1.963   .     S
C349   O396    1.281   .     A
C349   C357    1.415   .     S
C349   O397    1.282   .     A
C350   C352    1.459   .     S
C350   C371    1.411   .     A
C350   C367    1.403   .     A
C351   C357    1.397   .     A
C351   H384    1.085   .     S
C351   C5      1.369   1_565 S
C352   O399    1.293   .     A
C352   O398    1.292   .     A
C353   H386    1.084   .     S
C353   C354    1.390   .     A
C354   C355    1.393   .     A
C354   C363    1.408   .     S
C355   H387    1.085   .     S
C356   C370    1.489   .     S
C356   C357    1.412   .     A
C356   C7      1.383   1_565 S
C358   H388    1.082   .     S
C358   N395    1.366   .     A
C358   C417    1.417   .     S
C359   H389    1.082   .     S
C359   N394    1.367   .     A
C359   C474    1.417   1_455 S
C360   C371    1.407   .     A
C360   C891    1.419   .     S
C360   C894    1.414   .     S
C361   H390    1.082   .     S
C361   N394    1.366   .     A
C361   C478    1.417   1_455 S
C362   N395    1.367   .     A
C362   H391    1.082   .     S
C362   C419    1.417   .     S
C363   O400    1.281   .     A
C363   O401    1.281   .     A
C364   O403    1.291   .     A
C364   O402    1.292   .     A
C364   C366    1.450   .     S
C365   C377    1.395   .     A
C365   C895    1.405   1_554 S
C365   H915    1.084   1_554 S
C366   C376    1.388   .     A
C366   C377    1.399   .     A
C367   C368    1.388   .     A
C367   H380    1.083   .     S
C368   C891    1.392   .     S
C368   H904    1.083   .     S
C369   H381    1.079   .     S
C369   C882    1.419   1_554 S
C369   C890    1.392   1_554 S
C370   H385    1.084   .     S
C370   O404    1.222   .     D
C371   C375    1.415   .     A
C372   C376    1.389   .     A
C372   C882    1.414   1_554 S
C372   C895    1.420   1_554 S
C373   C374    1.392   .     A
C373   C887    1.405   .     S
C373   C894    1.420   .     S
C374   H392    1.084   .     S
C374   C375    1.388   .     A
C375   H383    1.082   .     S
C376   H379    1.079   .     S
C377   H378    1.083   .     S
H382   C890    1.083   1_554 S
H393   C887    1.084   .     S
N394   Zn405   2.010   .     S
N395   Zn406   2.010   .     S
O396   Zn405   1.988   .     S
O397   Zn406   1.990   .     S
O398   Zn405   1.963   .     S
O399   Zn406   1.913   .     S
O400   Zn405   1.990   .     S
O401   Zn406   1.988   .     S
O402   Zn405   1.913   .     S
O403   Zn406   1.963   .     S
C407   O454    1.281   .     A
C407   C415    1.415   .     S
C407   O455    1.282   .     A
C408   C410    1.459   .     S
C408   C429    1.411   .     A
C408   C425    1.403   .     A
C409   C415    1.397   .     A
C409   H442    1.085   .     S
C409   C63     1.369   1_565 S
C410   O457    1.293   .     A
C410   O456    1.292   .     A
C411   H444    1.084   .     S
C411   C412    1.390   .     A
C412   C413    1.393   .     A
C412   C421    1.408   .     S
C413   H445    1.085   .     S
C414   C428    1.489   .     S
C414   C415    1.412   .     A
C414   C65     1.383   1_565 S
C416   H446    1.082   .     S
C416   N453    1.366   .     A
C416   C475    1.417   .     S
C417   H447    1.082   .     S
C417   N452    1.367   .     A
C418   C429    1.407   .     A
C418   C949    1.419   .     S
C418   C952    1.414   .     S
C419   H448    1.082   .     S
C419   N452    1.366   .     A
C420   N453    1.367   .     A
C420   H449    1.082   .     S
C420   C477    1.417   .     S
C421   O458    1.281   .     A
C421   O459    1.281   .     A
C422   O461    1.291   .     A
C422   O460    1.292   .     A
C422   C424    1.450   .     S
C423   C435    1.395   .     A
C423   C953    1.405   1_554 S
C423   H973    1.084   1_554 S
C424   C434    1.388   .     A
C424   C435    1.399   .     A
C425   C426    1.388   .     A
C425   H438    1.083   .     S
C426   C949    1.392   .     S
C426   H962    1.083   .     S
C427   H439    1.079   .     S
C427   C940    1.419   1_554 S
C427   C948    1.392   1_554 S
C428   H443    1.084   .     S
C428   O462    1.222   .     D
C429   C433    1.415   .     A
C430   C434    1.389   .     A
C430   C940    1.414   1_554 S
C430   C953    1.420   1_554 S
C431   C432    1.392   .     A
C431   C945    1.405   .     S
C431   C952    1.420   .     S
C432   H450    1.084   .     S
C432   C433    1.388   .     A
C433   H441    1.082   .     S
C434   H437    1.079   .     S
C435   H436    1.083   .     S
H440   C948    1.083   1_554 S
H451   C945    1.084   .     S
N452   Zn463   2.010   .     S
N453   Zn464   2.010   .     S
O454   Zn463   1.988   .     S
O455   Zn464   1.990   .     S
O456   Zn463   1.963   .     S
O457   Zn464   1.913   .     S
O458   Zn463   1.990   .     S
O459   Zn464   1.988   .     S
O460   Zn463   1.913   .     S
O461   Zn464   1.963   .     S
C465   O512    1.281   .     A
C465   C473    1.415   .     S
C465   O513    1.282   .     A
C466   C468    1.459   .     S
C466   C487    1.411   .     A
C466   C483    1.403   .     A
C467   C473    1.397   .     A
C467   H500    1.085   .     S
C467   C121    1.369   1_565 S
C468   O515    1.293   .     A
C468   O514    1.292   .     A
C469   H502    1.084   .     S
C469   C470    1.390   .     A
C470   C471    1.393   .     A
C470   C479    1.408   .     S
C471   H503    1.085   .     S
C472   C486    1.489   .     S
C472   C473    1.412   .     A
C472   C123    1.383   1_565 S
C474   H504    1.082   .     S
C474   N511    1.366   .     A
C474   C359    1.417   1_655 S
C475   H505    1.082   .     S
C475   N510    1.367   .     A
C476   C487    1.407   .     A
C476   C1007   1.419   .     S
C476   C1010   1.414   .     S
C477   H506    1.082   .     S
C477   N510    1.366   .     A
C478   N511    1.367   .     A
C478   H507    1.082   .     S
C478   C361    1.417   1_655 S
C479   O516    1.281   .     A
C479   O517    1.281   .     A
C480   O519    1.291   .     A
C480   O518    1.292   .     A
C480   C482    1.450   .     S
C481   C493    1.395   .     A
C481   C1011   1.405   1_554 S
C481   H1031   1.084   1_554 S
C482   C492    1.388   .     A
C482   C493    1.399   .     A
C483   C484    1.388   .     A
C483   H496    1.083   .     S
C484   C1007   1.392   .     S
C484   H1020   1.083   .     S
C485   H497    1.079   .     S
C485   C998    1.419   1_554 S
C485   C1006   1.392   1_554 S
C486   H501    1.084   .     S
C486   O520    1.222   .     D
C487   C491    1.415   .     A
C488   C492    1.389   .     A
C488   C998    1.414   1_554 S
C488   C1011   1.420   1_554 S
C489   C490    1.392   .     A
C489   C1003   1.405   .     S
C489   C1010   1.420   .     S
C490   H508    1.084   .     S
C490   C491    1.388   .     A
C491   H499    1.082   .     S
C492   H495    1.079   .     S
C493   H494    1.083   .     S
H498   C1006   1.083   1_554 S
H509   C1003   1.084   .     S
N510   Zn521   2.010   .     S
N511   Zn522   2.010   .     S
O512   Zn521   1.988   .     S
O513   Zn522   1.990   .     S
O514   Zn521   1.963   .     S
O515   Zn522   1.913   .     S
O516   Zn521   1.990   .     S
O517   Zn522   1.988   .     S
O518   Zn521   1.913   .     S
O519   Zn522   1.963   .     S
C523   O570    1.281   .     A
C523   C531    1.415   .     S
C523   O571    1.282   .     A
C524   C526    1.459   .     S
C524   C545    1.411   .     A
C524   C541    1.403   .     A
C525   C531    1.397   .     A
C525   H558    1.085   .     S
C525   C701    1.369   .     S
C526   O573    1.293   .     A
C526   O572    1.292   .     A
C527   H560    1.084   .     S
C527   C528    1.390   .     A
C527   C873    1.369   1_545 S
C528   C529    1.393   .     A
C528   C537    1.408   .     S
C529   H561    1.085   .     S
C529   C878    1.383   1_545 S
C530   C544    1.489   .     S
C530   C531    1.412   .     A
C530   C703    1.383   .     S
C532   H562    1.082   .     S
C532   N569    1.366   .     A
C532   C591    1.417   .     S
C533   H563    1.082   .     S
C533   N568    1.367   .     A
C533   C648    1.417   1_455 S
C534   C545    1.407   .     A
C534   C21     1.419   1_556 S
C534   C24     1.414   1_556 S
C535   H564    1.082   .     S
C535   N568    1.366   .     A
C535   C652    1.417   1_455 S
C536   N569    1.367   .     A
C536   H565    1.082   .     S
C536   C593    1.417   .     S
C537   O574    1.281   .     A
C537   O575    1.281   .     A
C538   O577    1.291   .     A
C538   O576    1.292   .     A
C538   C540    1.450   .     S
C539   C551    1.395   .     A
C540   C550    1.388   .     A
C540   C551    1.399   .     A
C541   C542    1.388   .     A
C541   H554    1.083   .     S
C542   C21     1.392   1_556 S
C542   H34     1.083   1_556 S
C543   H555    1.079   .     S
C544   H559    1.084   .     S
C544   O578    1.222   .     D
C545   C549    1.415   .     A
C546   C550    1.389   .     A
C547   C548    1.392   .     A
C547   C17     1.405   1_556 S
C547   C24     1.420   1_556 S
C548   H566    1.084   .     S
C548   C549    1.388   .     A
C549   H557    1.082   .     S
C550   H553    1.079   .     S
C551   H552    1.083   .     S
H567   C17     1.084   1_556 S
N568   Zn579   2.010   .     S
N569   Zn580   2.010   .     S
O570   Zn579   1.988   .     S
O571   Zn580   1.990   .     S
O572   Zn579   1.963   .     S
O573   Zn580   1.913   .     S
O574   Zn579   1.990   .     S
O575   Zn580   1.988   .     S
O576   Zn579   1.913   .     S
O577   Zn580   1.963   .     S
C581   O628    1.281   .     A
C581   C589    1.415   .     S
C581   O629    1.282   .     A
C582   C584    1.459   .     S
C582   C603    1.411   .     A
C582   C599    1.403   .     A
C583   C589    1.397   .     A
C583   H616    1.085   .     S
C583   C759    1.369   .     S
C584   O631    1.293   .     A
C584   O630    1.292   .     A
C585   H618    1.084   .     S
C585   C586    1.390   .     A
C585   C931    1.369   1_545 S
C586   C587    1.393   .     A
C586   C595    1.408   .     S
C587   H619    1.085   .     S
C587   C936    1.383   1_545 S
C588   C602    1.489   .     S
C588   C589    1.412   .     A
C588   C761    1.383   .     S
C590   H620    1.082   .     S
C590   N627    1.366   .     A
C590   C649    1.417   .     S
C591   H621    1.082   .     S
C591   N626    1.367   .     A
C592   C603    1.407   .     A
C592   C79     1.419   1_556 S
C592   C82     1.414   1_556 S
C593   H622    1.082   .     S
C593   N626    1.366   .     A
C594   N627    1.367   .     A
C594   H623    1.082   .     S
C594   C651    1.417   .     S
C595   O632    1.281   .     A
C595   O633    1.281   .     A
C596   O635    1.291   .     A
C596   O634    1.292   .     A
C596   C598    1.450   .     S
C597   C609    1.395   .     A
C598   C608    1.388   .     A
C598   C609    1.399   .     A
C599   C600    1.388   .     A
C599   H612    1.083   .     S
C600   C79     1.392   1_556 S
C600   H92     1.083   1_556 S
C601   H613    1.079   .     S
C602   H617    1.084   .     S
C602   O636    1.222   .     D
C603   C607    1.415   .     A
C604   C608    1.389   .     A
C605   C606    1.392   .     A
C605   C75     1.405   1_556 S
C605   C82     1.420   1_556 S
C606   H624    1.084   .     S
C606   C607    1.388   .     A
C607   H615    1.082   .     S
C608   H611    1.079   .     S
C609   H610    1.083   .     S
H625   C75     1.084   1_556 S
N626   Zn637   2.010   .     S
N627   Zn638   2.010   .     S
O628   Zn637   1.988   .     S
O629   Zn638   1.990   .     S
O630   Zn637   1.963   .     S
O631   Zn638   1.913   .     S
O632   Zn637   1.990   .     S
O633   Zn638   1.988   .     S
O634   Zn637   1.913   .     S
O635   Zn638   1.963   .     S
C639   O686    1.281   .     A
C639   C647    1.415   .     S
C639   O687    1.282   .     A
C640   C642    1.459   .     S
C640   C661    1.411   .     A
C640   C657    1.403   .     A
C641   C647    1.397   .     A
C641   H674    1.085   .     S
C641   C817    1.369   .     S
C642   O689    1.293   .     A
C642   O688    1.292   .     A
C643   H676    1.084   .     S
C643   C644    1.390   .     A
C643   C989    1.369   1_545 S
C644   C645    1.393   .     A
C644   C653    1.408   .     S
C645   H677    1.085   .     S
C645   C994    1.383   1_545 S
C646   C660    1.489   .     S
C646   C647    1.412   .     A
C646   C819    1.383   .     S
C648   H678    1.082   .     S
C648   N685    1.366   .     A
C648   C533    1.417   1_655 S
C649   H679    1.082   .     S
C649   N684    1.367   .     A
C650   C661    1.407   .     A
C650   C137    1.419   1_556 S
C650   C140    1.414   1_556 S
C651   H680    1.082   .     S
C651   N684    1.366   .     A
C652   N685    1.367   .     A
C652   H681    1.082   .     S
C652   C535    1.417   1_655 S
C653   O690    1.281   .     A
C653   O691    1.281   .     A
C654   O693    1.291   .     A
C654   O692    1.292   .     A
C654   C656    1.450   .     S
C655   C667    1.395   .     A
C656   C666    1.388   .     A
C656   C667    1.399   .     A
C657   C658    1.388   .     A
C657   H670    1.083   .     S
C658   C137    1.392   1_556 S
C658   H150    1.083   1_556 S
C659   H671    1.079   .     S
C660   H675    1.084   .     S
C660   O694    1.222   .     D
C661   C665    1.415   .     A
C662   C666    1.389   .     A
C663   C664    1.392   .     A
C663   C133    1.405   1_556 S
C663   C140    1.420   1_556 S
C664   H682    1.084   .     S
C664   C665    1.388   .     A
C665   H673    1.082   .     S
C666   H669    1.079   .     S
C667   H668    1.083   .     S
H683   C133    1.084   1_556 S
N684   Zn695   2.010   .     S
N685   Zn696   2.010   .     S
O686   Zn695   1.988   .     S
O687   Zn696   1.990   .     S
O688   Zn695   1.963   .     S
O689   Zn696   1.913   .     S
O690   Zn695   1.990   .     S
O691   Zn696   1.988   .     S
O692   Zn695   1.913   .     S
O693   Zn696   1.963   .     S
C697   O744    1.281   .     A
C697   C705    1.415   .     S
C697   O745    1.282   .     A
C698   C700    1.459   .     S
C698   C719    1.411   .     A
C698   C715    1.403   .     A
C699   C705    1.397   .     A
C699   H732    1.085   .     S
C699   C875    1.369   .     S
C700   O747    1.293   .     A
C700   O746    1.292   .     A
C701   H734    1.084   .     S
C701   C702    1.390   .     A
C702   C703    1.393   .     A
C702   C711    1.408   .     S
C703   H735    1.085   .     S
C704   C718    1.489   .     S
C704   C705    1.412   .     A
C704   C877    1.383   .     S
C706   H736    1.082   .     S
C706   N743    1.366   .     A
C706   C765    1.417   .     S
C707   H737    1.082   .     S
C707   N742    1.367   .     A
C707   C822    1.417   1_455 S
C708   C719    1.407   .     A
C708   C195    1.419   1_556 S
C708   C198    1.414   1_556 S
C709   H738    1.082   .     S
C709   N742    1.366   .     A
C709   C826    1.417   1_455 S
C710   N743    1.367   .     A
C710   H739    1.082   .     S
C710   C767    1.417   .     S
C711   O748    1.281   .     A
C711   O749    1.281   .     A
C712   O751    1.291   .     A
C712   O750    1.292   .     A
C712   C714    1.450   .     S
C713   C725    1.395   .     A
C714   C724    1.388   .     A
C714   C725    1.399   .     A
C715   C716    1.388   .     A
C715   H728    1.083   .     S
C716   C195    1.392   1_556 S
C716   H208    1.083   1_556 S
C717   H729    1.079   .     S
C718   H733    1.084   .     S
C718   O752    1.222   .     D
C719   C723    1.415   .     A
C720   C724    1.389   .     A
C721   C722    1.392   .     A
C721   C191    1.405   1_556 S
C721   C198    1.420   1_556 S
C722   H740    1.084   .     S
C722   C723    1.388   .     A
C723   H731    1.082   .     S
C724   H727    1.079   .     S
C725   H726    1.083   .     S
H741   C191    1.084   1_556 S
N742   Zn753   2.010   .     S
N743   Zn754   2.010   .     S
O744   Zn753   1.988   .     S
O745   Zn754   1.990   .     S
O746   Zn753   1.963   .     S
O747   Zn754   1.913   .     S
O748   Zn753   1.990   .     S
O749   Zn754   1.988   .     S
O750   Zn753   1.913   .     S
O751   Zn754   1.963   .     S
C755   O802    1.281   .     A
C755   C763    1.415   .     S
C755   O803    1.282   .     A
C756   C758    1.459   .     S
C756   C777    1.411   .     A
C756   C773    1.403   .     A
C757   C763    1.397   .     A
C757   H790    1.085   .     S
C757   C933    1.369   .     S
C758   O805    1.293   .     A
C758   O804    1.292   .     A
C759   H792    1.084   .     S
C759   C760    1.390   .     A
C760   C761    1.393   .     A
C760   C769    1.408   .     S
C761   H793    1.085   .     S
C762   C776    1.489   .     S
C762   C763    1.412   .     A
C762   C935    1.383   .     S
C764   H794    1.082   .     S
C764   N801    1.366   .     A
C764   C823    1.417   .     S
C765   H795    1.082   .     S
C765   N800    1.367   .     A
C766   C777    1.407   .     A
C766   C253    1.419   1_556 S
C766   C256    1.414   1_556 S
C767   H796    1.082   .     S
C767   N800    1.366   .     A
C768   N801    1.367   .     A
C768   H797    1.082   .     S
C768   C825    1.417   .     S
C769   O806    1.281   .     A
C769   O807    1.281   .     A
C770   O809    1.291   .     A
C770   O808    1.292   .     A
C770   C772    1.450   .     S
C771   C783    1.395   .     A
C772   C782    1.388   .     A
C772   C783    1.399   .     A
C773   C774    1.388   .     A
C773   H786    1.083   .     S
C774   C253    1.392   1_556 S
C774   H266    1.083   1_556 S
C775   H787    1.079   .     S
C776   H791    1.084   .     S
C776   O810    1.222   .     D
C777   C781    1.415   .     A
C778   C782    1.389   .     A
C779   C780    1.392   .     A
C779   C249    1.405   1_556 S
C779   C256    1.420   1_556 S
C780   H798    1.084   .     S
C780   C781    1.388   .     A
C781   H789    1.082   .     S
C782   H785    1.079   .     S
C783   H784    1.083   .     S
H799   C249    1.084   1_556 S
N800   Zn811   2.010   .     S
N801   Zn812   2.010   .     S
O802   Zn811   1.988   .     S
O803   Zn812   1.990   .     S
O804   Zn811   1.963   .     S
O805   Zn812   1.913   .     S
O806   Zn811   1.990   .     S
O807   Zn812   1.988   .     S
O808   Zn811   1.913   .     S
O809   Zn812   1.963   .     S
C813   O860    1.281   .     A
C813   C821    1.415   .     S
C813   O861    1.282   .     A
C814   C816    1.459   .     S
C814   C835    1.411   .     A
C814   C831    1.403   .     A
C815   C821    1.397   .     A
C815   H848    1.085   .     S
C815   C991    1.369   .     S
C816   O863    1.293   .     A
C816   O862    1.292   .     A
C817   H850    1.084   .     S
C817   C818    1.390   .     A
C818   C819    1.393   .     A
C818   C827    1.408   .     S
C819   H851    1.085   .     S
C820   C834    1.489   .     S
C820   C821    1.412   .     A
C820   C993    1.383   .     S
C822   H852    1.082   .     S
C822   N859    1.366   .     A
C822   C707    1.417   1_655 S
C823   H853    1.082   .     S
C823   N858    1.367   .     A
C824   C835    1.407   .     A
C824   C311    1.419   1_556 S
C824   C314    1.414   1_556 S
C825   H854    1.082   .     S
C825   N858    1.366   .     A
C826   N859    1.367   .     A
C826   H855    1.082   .     S
C826   C709    1.417   1_655 S
C827   O864    1.281   .     A
C827   O865    1.281   .     A
C828   O867    1.291   .     A
C828   O866    1.292   .     A
C828   C830    1.450   .     S
C829   C841    1.395   .     A
C830   C840    1.388   .     A
C830   C841    1.399   .     A
C831   C832    1.388   .     A
C831   H844    1.083   .     S
C832   C311    1.392   1_556 S
C832   H324    1.083   1_556 S
C833   H845    1.079   .     S
C834   H849    1.084   .     S
C834   O868    1.222   .     D
C835   C839    1.415   .     A
C836   C840    1.389   .     A
C837   C838    1.392   .     A
C837   C307    1.405   1_556 S
C837   C314    1.420   1_556 S
C838   H856    1.084   .     S
C838   C839    1.388   .     A
C839   H847    1.082   .     S
C840   H843    1.079   .     S
C841   H842    1.083   .     S
H857   C307    1.084   1_556 S
N858   Zn869   2.010   .     S
N859   Zn870   2.010   .     S
O860   Zn869   1.988   .     S
O861   Zn870   1.990   .     S
O862   Zn869   1.963   .     S
O863   Zn870   1.913   .     S
O864   Zn869   1.990   .     S
O865   Zn870   1.988   .     S
O866   Zn869   1.913   .     S
O867   Zn870   1.963   .     S
C871   O918    1.281   .     A
C871   C879    1.415   .     S
C871   O919    1.282   .     A
C872   C874    1.459   .     S
C872   C893    1.411   .     A
C872   C889    1.403   .     A
C873   C879    1.397   .     A
C873   H906    1.085   .     S
C873   C527    1.369   1_565 S
C874   O921    1.293   .     A
C874   O920    1.292   .     A
C875   H908    1.084   .     S
C875   C876    1.390   .     A
C876   C877    1.393   .     A
C876   C885    1.408   .     S
C877   H909    1.085   .     S
C878   C892    1.489   .     S
C878   C879    1.412   .     A
C878   C529    1.383   1_565 S
C880   H910    1.082   .     S
C880   N917    1.366   .     A
C880   C939    1.417   .     S
C881   H911    1.082   .     S
C881   N916    1.367   .     A
C881   C996    1.417   1_455 S
C882   C893    1.407   .     A
C882   C369    1.419   1_556 S
C882   C372    1.414   1_556 S
C883   H912    1.082   .     S
C883   N916    1.366   .     A
C883   C1000   1.417   1_455 S
C884   N917    1.367   .     A
C884   H913    1.082   .     S
C884   C941    1.417   .     S
C885   O922    1.281   .     A
C885   O923    1.281   .     A
C886   O925    1.291   .     A
C886   O924    1.292   .     A
C886   C888    1.450   .     S
C887   C899    1.395   .     A
C888   C898    1.388   .     A
C888   C899    1.399   .     A
C889   C890    1.388   .     A
C889   H902    1.083   .     S
C890   C369    1.392   1_556 S
C890   H382    1.083   1_556 S
C891   H903    1.079   .     S
C892   H907    1.084   .     S
C892   O926    1.222   .     D
C893   C897    1.415   .     A
C894   C898    1.389   .     A
C895   C896    1.392   .     A
C895   C365    1.405   1_556 S
C895   C372    1.420   1_556 S
C896   H914    1.084   .     S
C896   C897    1.388   .     A
C897   H905    1.082   .     S
C898   H901    1.079   .     S
C899   H900    1.083   .     S
H915   C365    1.084   1_556 S
N916   Zn927   2.010   .     S
N917   Zn928   2.010   .     S
O918   Zn927   1.988   .     S
O919   Zn928   1.990   .     S
O920   Zn927   1.963   .     S
O921   Zn928   1.913   .     S
O922   Zn927   1.990   .     S
O923   Zn928   1.988   .     S
O924   Zn927   1.913   .     S
O925   Zn928   1.963   .     S
C929   O976    1.281   .     A
C929   C937    1.415   .     S
C929   O977    1.282   .     A
C930   C932    1.459   .     S
C930   C951    1.411   .     A
C930   C947    1.403   .     A
C931   C937    1.397   .     A
C931   H964    1.085   .     S
C931   C585    1.369   1_565 S
C932   O979    1.293   .     A
C932   O978    1.292   .     A
C933   H966    1.084   .     S
C933   C934    1.390   .     A
C934   C935    1.393   .     A
C934   C943    1.408   .     S
C935   H967    1.085   .     S
C936   C950    1.489   .     S
C936   C937    1.412   .     A
C936   C587    1.383   1_565 S
C938   H968    1.082   .     S
C938   N975    1.366   .     A
C938   C997    1.417   .     S
C939   H969    1.082   .     S
C939   N974    1.367   .     A
C940   C951    1.407   .     A
C940   C427    1.419   1_556 S
C940   C430    1.414   1_556 S
C941   H970    1.082   .     S
C941   N974    1.366   .     A
C942   N975    1.367   .     A
C942   H971    1.082   .     S
C942   C999    1.417   .     S
C943   O980    1.281   .     A
C943   O981    1.281   .     A
C944   O983    1.291   .     A
C944   O982    1.292   .     A
C944   C946    1.450   .     S
C945   C957    1.395   .     A
C946   C956    1.388   .     A
C946   C957    1.399   .     A
C947   C948    1.388   .     A
C947   H960    1.083   .     S
C948   C427    1.392   1_556 S
C948   H440    1.083   1_556 S
C949   H961    1.079   .     S
C950   H965    1.084   .     S
C950   O984    1.222   .     D
C951   C955    1.415   .     A
C952   C956    1.389   .     A
C953   C954    1.392   .     A
C953   C423    1.405   1_556 S
C953   C430    1.420   1_556 S
C954   H972    1.084   .     S
C954   C955    1.388   .     A
C955   H963    1.082   .     S
C956   H959    1.079   .     S
C957   H958    1.083   .     S
H973   C423    1.084   1_556 S
N974   Zn985   2.010   .     S
N975   Zn986   2.010   .     S
O976   Zn985   1.988   .     S
O977   Zn986   1.990   .     S
O978   Zn985   1.963   .     S
O979   Zn986   1.913   .     S
O980   Zn985   1.990   .     S
O981   Zn986   1.988   .     S
O982   Zn985   1.913   .     S
O983   Zn986   1.963   .     S
C987   O1034   1.281   .     A
C987   C995    1.415   .     S
C987   O1035   1.282   .     A
C988   C990    1.459   .     S
C988   C1009   1.411   .     A
C988   C1005   1.403   .     A
C989   C995    1.397   .     A
C989   H1022   1.085   .     S
C989   C643    1.369   1_565 S
C990   O1037   1.293   .     A
C990   O1036   1.292   .     A
C991   H1024   1.084   .     S
C991   C992    1.390   .     A
C992   C993    1.393   .     A
C992   C1001   1.408   .     S
C993   H1025   1.085   .     S
C994   C1008   1.489   .     S
C994   C995    1.412   .     A
C994   C645    1.383   1_565 S
C996   H1026   1.082   .     S
C996   N1033   1.366   .     A
C996   C881    1.417   1_655 S
C997   H1027   1.082   .     S
C997   N1032   1.367   .     A
C998   C1009   1.407   .     A
C998   C485    1.419   1_556 S
C998   C488    1.414   1_556 S
C999   H1028   1.082   .     S
C999   N1032   1.366   .     A
C1000  N1033   1.367   .     A
C1000  H1029   1.082   .     S
C1000  C883    1.417   1_655 S
C1001  O1038   1.281   .     A
C1001  O1039   1.281   .     A
C1002  O1041   1.291   .     A
C1002  O1040   1.292   .     A
C1002  C1004   1.450   .     S
C1003  C1015   1.395   .     A
C1004  C1014   1.388   .     A
C1004  C1015   1.399   .     A
C1005  C1006   1.388   .     A
C1005  H1018   1.083   .     S
C1006  C485    1.392   1_556 S
C1006  H498    1.083   1_556 S
C1007  H1019   1.079   .     S
C1008  H1023   1.084   .     S
C1008  O1042   1.222   .     D
C1009  C1013   1.415   .     A
C1010  C1014   1.389   .     A
C1011  C1012   1.392   .     A
C1011  C481    1.405   1_556 S
C1011  C488    1.420   1_556 S
C1012  H1030   1.084   .     S
C1012  C1013   1.388   .     A
C1013  H1021   1.082   .     S
C1014  H1017   1.079   .     S
C1015  H1016   1.083   .     S
H1031  C481    1.084   1_556 S
N1032  Zn1043  2.010   .     S
N1033  Zn1044  2.010   .     S
O1034  Zn1043  1.988   .     S
O1035  Zn1044  1.990   .     S
O1036  Zn1043  1.963   .     S
O1037  Zn1044  1.913   .     S
O1038  Zn1043  1.990   .     S
O1039  Zn1044  1.988   .     S
O1040  Zn1043  1.913   .     S
O1041  Zn1044  1.963   .     S
