data_str_m2_o10_o16_pcu_sym.101
_audit_creation_date              2020-01-03
_audit_creation_method            'Materials Studio'
_symmetry_space_group_name_H-M    'P1'
_symmetry_Int_Tables_number       1
_symmetry_cell_setting            triclinic
loop_
_symmetry_equiv_pos_as_xyz
  x,y,z
_cell_length_a                    22.3933
_cell_length_b                    26.0714
_cell_length_c                    26.8579
_cell_angle_alpha                 94.1842
_cell_angle_beta                  78.7755
_cell_angle_gamma                 102.9913
loop_
_atom_site_label
_atom_site_type_symbol
_atom_site_fract_x
_atom_site_fract_y
_atom_site_fract_z
_atom_site_U_iso_or_equiv
_atom_site_adp_type
_atom_site_occupancy
C1     C     0.18169   0.26670   0.25165   0.00000  Uiso   1.00
C2     C     0.11555   0.13626   0.39843   0.00000  Uiso   1.00
C3     C     0.19013   0.32267   0.25256   0.00000  Uiso   1.00
C4     C     0.13347   0.15543   0.34560   0.00000  Uiso   1.00
C5     C     0.14307   0.01069   0.24787   0.00000  Uiso   1.00
C6     C     0.15160   0.06663   0.24848   0.00000  Uiso   1.00
C7     C     0.19966   0.17041   0.15324   0.00000  Uiso   1.00
C8     C     0.29438   0.19704   0.02250   0.00000  Uiso   1.00
C9     C     0.21762   0.17338   0.09809   0.00000  Uiso   1.00
C10    C     0.05342   0.11385   0.41785   0.00000  Uiso   1.00
C11    C     0.03417   0.10454   0.46951   0.00000  Uiso   1.00
C12    C     0.14027   0.13962   0.48388   0.00000  Uiso   1.00
C13    C     0.07612   0.12011   0.00276   0.00000  Uiso   1.00
C14    C     0.16030   0.14047   0.43053   0.00000  Uiso   1.00
C15    C     0.18590   0.15729   0.01538   0.00000  Uiso   1.00
C16    C     0.24899   0.17709   0.49261   0.00000  Uiso   1.00
C17    C     0.26736   0.17139   0.44044   0.00000  Uiso   1.00
C18    C     0.22461   0.14443   0.41155   0.00000  Uiso   1.00
C19    C     0.17141   0.15592   0.06842   0.00000  Uiso   1.00
C20    C     0.27893   0.19459   0.07506   0.00000  Uiso   1.00
Cu21   Cu    0.10710   0.16105   0.24436   0.00000  Uiso   1.00
Cu22   Cu    0.22623   0.17228   0.25565   0.00000  Uiso   1.00
H23    H     0.31481   0.20899   0.09759   0.00000  Uiso   1.00
H24    H     0.31899   0.08778   0.48427   0.00000  Uiso   1.00
H25    H     0.23549   0.01308   0.25702   0.00000  Uiso   1.00
H26    H     0.20916   0.08554   0.35666   0.00000  Uiso   1.00
H27    H     0.27792   0.13070   0.34345   0.00000  Uiso   1.00
H28    H     0.09770   0.32028   0.24346   0.00000  Uiso   1.00
H29    H     0.00423   0.20693   0.28897   0.00000  Uiso   1.00
H30    H     0.32920   0.12659   0.21085   0.00000  Uiso   1.00
H31    H     0.31612   0.18190   0.42324   0.00000  Uiso   1.00
H32    H     0.00911   0.21242   0.00508   0.00000  Uiso   1.00
H33    H     0.12460   0.14023   0.08752   0.00000  Uiso   1.00
H34    H     0.01965   0.10417   0.39306   0.00000  Uiso   1.00
H35    H     0.05699   0.11552   0.04260   0.00000  Uiso   1.00
N36    N     0.31574   0.18074   0.26416   0.00000  Uiso   1.00
N37    N     0.01759   0.15259   0.23584   0.00000  Uiso   1.00
N38    N     0.24599   0.10909   0.37192   0.00000  Uiso   1.00
O39    O     0.12797   0.23807   0.24633   0.00000  Uiso   1.00
O40    O     0.22858   0.24755   0.25587   0.00000  Uiso   1.00
O41    O     0.09181   0.15960   0.31840   0.00000  Uiso   1.00
O42    O     0.19242   0.16908   0.32793   0.00000  Uiso   1.00
O43    O     0.10476   0.08578   0.24414   0.00000  Uiso   1.00
O44    O     0.20536   0.09526   0.25367   0.00000  Uiso   1.00
O45    O     0.14092   0.16425   0.17207   0.00000  Uiso   1.00
O46    O     0.24152   0.17373   0.18161   0.00000  Uiso   1.00
C47    C     0.51503   0.26670   0.25165   0.00000  Uiso   1.00
C48    C     0.44888   0.13626   0.39843   0.00000  Uiso   1.00
C49    C     0.52346   0.32267   0.25256   0.00000  Uiso   1.00
C50    C     0.46681   0.15543   0.34560   0.00000  Uiso   1.00
C51    C     0.47641   0.01069   0.24787   0.00000  Uiso   1.00
C52    C     0.48493   0.06663   0.24848   0.00000  Uiso   1.00
C53    C     0.53300   0.17041   0.15324   0.00000  Uiso   1.00
C54    C     0.62772   0.19704   0.02250   0.00000  Uiso   1.00
C55    C     0.55096   0.17338   0.09809   0.00000  Uiso   1.00
C56    C     0.38675   0.11385   0.41785   0.00000  Uiso   1.00
C57    C     0.36751   0.10454   0.46951   0.00000  Uiso   1.00
C58    C     0.47360   0.13962   0.48388   0.00000  Uiso   1.00
C59    C     0.40945   0.12011   0.00276   0.00000  Uiso   1.00
C60    C     0.49364   0.14047   0.43053   0.00000  Uiso   1.00
C61    C     0.51923   0.15729   0.01538   0.00000  Uiso   1.00
C62    C     0.58232   0.17709   0.49261   0.00000  Uiso   1.00
C63    C     0.60070   0.17139   0.44044   0.00000  Uiso   1.00
C64    C     0.55794   0.14443   0.41155   0.00000  Uiso   1.00
C65    C     0.50474   0.15592   0.06842   0.00000  Uiso   1.00
C66    C     0.61227   0.19459   0.07506   0.00000  Uiso   1.00
Cu67   Cu    0.44043   0.16105   0.24436   0.00000  Uiso   1.00
Cu68   Cu    0.55957   0.17228   0.25565   0.00000  Uiso   1.00
H69    H     0.64815   0.20899   0.09759   0.00000  Uiso   1.00
H70    H     0.65233   0.08778   0.48427   0.00000  Uiso   1.00
H71    H     0.56882   0.01308   0.25702   0.00000  Uiso   1.00
H72    H     0.54250   0.08554   0.35666   0.00000  Uiso   1.00
H73    H     0.61125   0.13070   0.34345   0.00000  Uiso   1.00
H74    H     0.43103   0.32028   0.24346   0.00000  Uiso   1.00
H75    H     0.33756   0.20693   0.28897   0.00000  Uiso   1.00
H76    H     0.66254   0.12659   0.21085   0.00000  Uiso   1.00
H77    H     0.64945   0.18190   0.42324   0.00000  Uiso   1.00
H78    H     0.34244   0.21242   0.00508   0.00000  Uiso   1.00
H79    H     0.45793   0.14023   0.08752   0.00000  Uiso   1.00
H80    H     0.35298   0.10417   0.39306   0.00000  Uiso   1.00
H81    H     0.39033   0.11552   0.04260   0.00000  Uiso   1.00
N82    N     0.64908   0.18074   0.26416   0.00000  Uiso   1.00
N83    N     0.35092   0.15259   0.23584   0.00000  Uiso   1.00
N84    N     0.57933   0.10909   0.37192   0.00000  Uiso   1.00
O85    O     0.46131   0.23807   0.24633   0.00000  Uiso   1.00
O86    O     0.56191   0.24755   0.25587   0.00000  Uiso   1.00
O87    O     0.42515   0.15960   0.31840   0.00000  Uiso   1.00
O88    O     0.52575   0.16908   0.32793   0.00000  Uiso   1.00
O89    O     0.43809   0.08578   0.24414   0.00000  Uiso   1.00
O90    O     0.53869   0.09526   0.25367   0.00000  Uiso   1.00
O91    O     0.47425   0.16425   0.17207   0.00000  Uiso   1.00
O92    O     0.57485   0.17373   0.18161   0.00000  Uiso   1.00
C93    C     0.84836   0.26670   0.25165   0.00000  Uiso   1.00
C94    C     0.78222   0.13626   0.39843   0.00000  Uiso   1.00
C95    C     0.85680   0.32267   0.25256   0.00000  Uiso   1.00
C96    C     0.80014   0.15543   0.34560   0.00000  Uiso   1.00
C97    C     0.80974   0.01069   0.24787   0.00000  Uiso   1.00
C98    C     0.81826   0.06663   0.24848   0.00000  Uiso   1.00
C99    C     0.86633   0.17041   0.15324   0.00000  Uiso   1.00
C100   C     0.96105   0.19704   0.02250   0.00000  Uiso   1.00
C101   C     0.88429   0.17338   0.09809   0.00000  Uiso   1.00
C102   C     0.72008   0.11385   0.41785   0.00000  Uiso   1.00
C103   C     0.70084   0.10454   0.46951   0.00000  Uiso   1.00
C104   C     0.80694   0.13962   0.48388   0.00000  Uiso   1.00
C105   C     0.74278   0.12011   0.00276   0.00000  Uiso   1.00
C106   C     0.82697   0.14047   0.43053   0.00000  Uiso   1.00
C107   C     0.85257   0.15729   0.01538   0.00000  Uiso   1.00
C108   C     0.91565   0.17709   0.49261   0.00000  Uiso   1.00
C109   C     0.93403   0.17139   0.44044   0.00000  Uiso   1.00
C110   C     0.89127   0.14443   0.41155   0.00000  Uiso   1.00
C111   C     0.83807   0.15592   0.06842   0.00000  Uiso   1.00
C112   C     0.94560   0.19459   0.07506   0.00000  Uiso   1.00
Cu113  Cu    0.77377   0.16105   0.24436   0.00000  Uiso   1.00
Cu114  Cu    0.89290   0.17228   0.25565   0.00000  Uiso   1.00
H115   H     0.98148   0.20899   0.09759   0.00000  Uiso   1.00
H116   H     0.98566   0.08778   0.48427   0.00000  Uiso   1.00
H117   H     0.90216   0.01308   0.25702   0.00000  Uiso   1.00
H118   H     0.87583   0.08554   0.35666   0.00000  Uiso   1.00
H119   H     0.94459   0.13070   0.34345   0.00000  Uiso   1.00
H120   H     0.76436   0.32028   0.24346   0.00000  Uiso   1.00
H121   H     0.67089   0.20693   0.28897   0.00000  Uiso   1.00
H122   H     0.99587   0.12659   0.21085   0.00000  Uiso   1.00
H123   H     0.98279   0.18190   0.42324   0.00000  Uiso   1.00
H124   H     0.67578   0.21242   0.00508   0.00000  Uiso   1.00
H125   H     0.79127   0.14023   0.08752   0.00000  Uiso   1.00
H126   H     0.68632   0.10417   0.39306   0.00000  Uiso   1.00
H127   H     0.72366   0.11552   0.04260   0.00000  Uiso   1.00
N128   N     0.98241   0.18074   0.26416   0.00000  Uiso   1.00
N129   N     0.68426   0.15259   0.23584   0.00000  Uiso   1.00
N130   N     0.91266   0.10909   0.37192   0.00000  Uiso   1.00
O131   O     0.79464   0.23807   0.24633   0.00000  Uiso   1.00
O132   O     0.89524   0.24755   0.25587   0.00000  Uiso   1.00
O133   O     0.75848   0.15960   0.31840   0.00000  Uiso   1.00
O134   O     0.85908   0.16908   0.32793   0.00000  Uiso   1.00
O135   O     0.77142   0.08578   0.24414   0.00000  Uiso   1.00
O136   O     0.87203   0.09526   0.25367   0.00000  Uiso   1.00
O137   O     0.80758   0.16425   0.17207   0.00000  Uiso   1.00
O138   O     0.90819   0.17373   0.18161   0.00000  Uiso   1.00
C139   C     0.18169   0.60003   0.25165   0.00000  Uiso   1.00
C140   C     0.11555   0.46959   0.39843   0.00000  Uiso   1.00
C141   C     0.19013   0.65600   0.25256   0.00000  Uiso   1.00
C142   C     0.13347   0.48877   0.34560   0.00000  Uiso   1.00
C143   C     0.14307   0.34402   0.24787   0.00000  Uiso   1.00
C144   C     0.15160   0.39997   0.24848   0.00000  Uiso   1.00
C145   C     0.19966   0.50374   0.15324   0.00000  Uiso   1.00
C146   C     0.29438   0.53038   0.02250   0.00000  Uiso   1.00
C147   C     0.21762   0.50671   0.09809   0.00000  Uiso   1.00
C148   C     0.05342   0.44718   0.41785   0.00000  Uiso   1.00
C149   C     0.03417   0.43787   0.46951   0.00000  Uiso   1.00
C150   C     0.14027   0.47296   0.48388   0.00000  Uiso   1.00
C151   C     0.07612   0.45345   0.00276   0.00000  Uiso   1.00
C152   C     0.16030   0.47381   0.43053   0.00000  Uiso   1.00
C153   C     0.18590   0.49062   0.01538   0.00000  Uiso   1.00
C154   C     0.24899   0.51042   0.49261   0.00000  Uiso   1.00
C155   C     0.26736   0.50472   0.44044   0.00000  Uiso   1.00
C156   C     0.22461   0.47777   0.41155   0.00000  Uiso   1.00
C157   C     0.17141   0.48925   0.06842   0.00000  Uiso   1.00
C158   C     0.27893   0.52792   0.07506   0.00000  Uiso   1.00
Cu159  Cu    0.10710   0.49439   0.24436   0.00000  Uiso   1.00
Cu160  Cu    0.22623   0.50561   0.25565   0.00000  Uiso   1.00
H161   H     0.31481   0.54232   0.09759   0.00000  Uiso   1.00
H162   H     0.31899   0.42112   0.48427   0.00000  Uiso   1.00
H163   H     0.23549   0.34642   0.25702   0.00000  Uiso   1.00
H164   H     0.20916   0.41887   0.35666   0.00000  Uiso   1.00
H165   H     0.27792   0.46404   0.34345   0.00000  Uiso   1.00
H166   H     0.09770   0.65361   0.24346   0.00000  Uiso   1.00
H167   H     0.00423   0.54027   0.28897   0.00000  Uiso   1.00
H168   H     0.32920   0.45992   0.21085   0.00000  Uiso   1.00
H169   H     0.31612   0.51524   0.42324   0.00000  Uiso   1.00
H170   H     0.00911   0.54575   0.00508   0.00000  Uiso   1.00
H171   H     0.12460   0.47357   0.08752   0.00000  Uiso   1.00
H172   H     0.01965   0.43751   0.39306   0.00000  Uiso   1.00
H173   H     0.05699   0.44885   0.04260   0.00000  Uiso   1.00
N174   N     0.31574   0.51407   0.26416   0.00000  Uiso   1.00
N175   N     0.01759   0.48593   0.23584   0.00000  Uiso   1.00
N176   N     0.24599   0.44242   0.37192   0.00000  Uiso   1.00
O177   O     0.12797   0.57141   0.24633   0.00000  Uiso   1.00
O178   O     0.22858   0.58089   0.25587   0.00000  Uiso   1.00
O179   O     0.09181   0.49293   0.31840   0.00000  Uiso   1.00
O180   O     0.19242   0.50241   0.32793   0.00000  Uiso   1.00
O181   O     0.10476   0.41911   0.24414   0.00000  Uiso   1.00
O182   O     0.20536   0.42859   0.25367   0.00000  Uiso   1.00
O183   O     0.14092   0.49759   0.17207   0.00000  Uiso   1.00
O184   O     0.24152   0.50707   0.18161   0.00000  Uiso   1.00
C185   C     0.51503   0.60003   0.25165   0.00000  Uiso   1.00
C186   C     0.44888   0.46959   0.39843   0.00000  Uiso   1.00
C187   C     0.52346   0.65600   0.25256   0.00000  Uiso   1.00
C188   C     0.46681   0.48877   0.34560   0.00000  Uiso   1.00
C189   C     0.47641   0.34402   0.24787   0.00000  Uiso   1.00
C190   C     0.48493   0.39997   0.24848   0.00000  Uiso   1.00
C191   C     0.53300   0.50374   0.15324   0.00000  Uiso   1.00
C192   C     0.62772   0.53038   0.02250   0.00000  Uiso   1.00
C193   C     0.55096   0.50671   0.09809   0.00000  Uiso   1.00
C194   C     0.38675   0.44718   0.41785   0.00000  Uiso   1.00
C195   C     0.36751   0.43787   0.46951   0.00000  Uiso   1.00
C196   C     0.47360   0.47296   0.48388   0.00000  Uiso   1.00
C197   C     0.40945   0.45345   0.00276   0.00000  Uiso   1.00
C198   C     0.49364   0.47381   0.43053   0.00000  Uiso   1.00
C199   C     0.51923   0.49062   0.01538   0.00000  Uiso   1.00
C200   C     0.58232   0.51042   0.49261   0.00000  Uiso   1.00
C201   C     0.60070   0.50472   0.44044   0.00000  Uiso   1.00
C202   C     0.55794   0.47777   0.41155   0.00000  Uiso   1.00
C203   C     0.50474   0.48925   0.06842   0.00000  Uiso   1.00
C204   C     0.61227   0.52792   0.07506   0.00000  Uiso   1.00
Cu205  Cu    0.44043   0.49439   0.24436   0.00000  Uiso   1.00
Cu206  Cu    0.55957   0.50561   0.25565   0.00000  Uiso   1.00
H207   H     0.64815   0.54232   0.09759   0.00000  Uiso   1.00
H208   H     0.65233   0.42112   0.48427   0.00000  Uiso   1.00
H209   H     0.56882   0.34642   0.25702   0.00000  Uiso   1.00
H210   H     0.54250   0.41887   0.35666   0.00000  Uiso   1.00
H211   H     0.61125   0.46404   0.34345   0.00000  Uiso   1.00
H212   H     0.43103   0.65361   0.24346   0.00000  Uiso   1.00
H213   H     0.33756   0.54027   0.28897   0.00000  Uiso   1.00
H214   H     0.66254   0.45992   0.21085   0.00000  Uiso   1.00
H215   H     0.64945   0.51524   0.42324   0.00000  Uiso   1.00
H216   H     0.34244   0.54575   0.00508   0.00000  Uiso   1.00
H217   H     0.45793   0.47357   0.08752   0.00000  Uiso   1.00
H218   H     0.35298   0.43751   0.39306   0.00000  Uiso   1.00
H219   H     0.39033   0.44885   0.04260   0.00000  Uiso   1.00
N220   N     0.64908   0.51407   0.26416   0.00000  Uiso   1.00
N221   N     0.35092   0.48593   0.23584   0.00000  Uiso   1.00
N222   N     0.57933   0.44242   0.37192   0.00000  Uiso   1.00
O223   O     0.46131   0.57141   0.24633   0.00000  Uiso   1.00
O224   O     0.56191   0.58089   0.25587   0.00000  Uiso   1.00
O225   O     0.42515   0.49293   0.31840   0.00000  Uiso   1.00
O226   O     0.52575   0.50241   0.32793   0.00000  Uiso   1.00
O227   O     0.43809   0.41911   0.24414   0.00000  Uiso   1.00
O228   O     0.53869   0.42859   0.25367   0.00000  Uiso   1.00
O229   O     0.47425   0.49759   0.17207   0.00000  Uiso   1.00
O230   O     0.57485   0.50707   0.18161   0.00000  Uiso   1.00
C231   C     0.84836   0.60003   0.25165   0.00000  Uiso   1.00
C232   C     0.78222   0.46959   0.39843   0.00000  Uiso   1.00
C233   C     0.85680   0.65600   0.25256   0.00000  Uiso   1.00
C234   C     0.80014   0.48877   0.34560   0.00000  Uiso   1.00
C235   C     0.80974   0.34402   0.24787   0.00000  Uiso   1.00
C236   C     0.81826   0.39997   0.24848   0.00000  Uiso   1.00
C237   C     0.86633   0.50374   0.15324   0.00000  Uiso   1.00
C238   C     0.96105   0.53038   0.02250   0.00000  Uiso   1.00
C239   C     0.88429   0.50671   0.09809   0.00000  Uiso   1.00
C240   C     0.72008   0.44718   0.41785   0.00000  Uiso   1.00
C241   C     0.70084   0.43787   0.46951   0.00000  Uiso   1.00
C242   C     0.80694   0.47296   0.48388   0.00000  Uiso   1.00
C243   C     0.74278   0.45345   0.00276   0.00000  Uiso   1.00
C244   C     0.82697   0.47381   0.43053   0.00000  Uiso   1.00
C245   C     0.85257   0.49062   0.01538   0.00000  Uiso   1.00
C246   C     0.91565   0.51042   0.49261   0.00000  Uiso   1.00
C247   C     0.93403   0.50472   0.44044   0.00000  Uiso   1.00
C248   C     0.89127   0.47777   0.41155   0.00000  Uiso   1.00
C249   C     0.83807   0.48925   0.06842   0.00000  Uiso   1.00
C250   C     0.94560   0.52792   0.07506   0.00000  Uiso   1.00
Cu251  Cu    0.77377   0.49439   0.24436   0.00000  Uiso   1.00
Cu252  Cu    0.89290   0.50561   0.25565   0.00000  Uiso   1.00
H253   H     0.98148   0.54232   0.09759   0.00000  Uiso   1.00
H254   H     0.98566   0.42112   0.48427   0.00000  Uiso   1.00
H255   H     0.90216   0.34642   0.25702   0.00000  Uiso   1.00
H256   H     0.87583   0.41887   0.35666   0.00000  Uiso   1.00
H257   H     0.94459   0.46404   0.34345   0.00000  Uiso   1.00
H258   H     0.76436   0.65361   0.24346   0.00000  Uiso   1.00
H259   H     0.67089   0.54027   0.28897   0.00000  Uiso   1.00
H260   H     0.99587   0.45992   0.21085   0.00000  Uiso   1.00
H261   H     0.98279   0.51524   0.42324   0.00000  Uiso   1.00
H262   H     0.67578   0.54575   0.00508   0.00000  Uiso   1.00
H263   H     0.79127   0.47357   0.08752   0.00000  Uiso   1.00
H264   H     0.68632   0.43751   0.39306   0.00000  Uiso   1.00
H265   H     0.72366   0.44885   0.04260   0.00000  Uiso   1.00
N266   N     0.98241   0.51407   0.26416   0.00000  Uiso   1.00
N267   N     0.68426   0.48593   0.23584   0.00000  Uiso   1.00
N268   N     0.91266   0.44242   0.37192   0.00000  Uiso   1.00
O269   O     0.79464   0.57141   0.24633   0.00000  Uiso   1.00
O270   O     0.89524   0.58089   0.25587   0.00000  Uiso   1.00
O271   O     0.75848   0.49293   0.31840   0.00000  Uiso   1.00
O272   O     0.85908   0.50241   0.32793   0.00000  Uiso   1.00
O273   O     0.77142   0.41911   0.24414   0.00000  Uiso   1.00
O274   O     0.87203   0.42859   0.25367   0.00000  Uiso   1.00
O275   O     0.80758   0.49759   0.17207   0.00000  Uiso   1.00
O276   O     0.90819   0.50707   0.18161   0.00000  Uiso   1.00
C277   C     0.18169   0.93337   0.25165   0.00000  Uiso   1.00
C278   C     0.11555   0.80292   0.39843   0.00000  Uiso   1.00
C279   C     0.19013   0.98933   0.25256   0.00000  Uiso   1.00
C280   C     0.13347   0.82210   0.34560   0.00000  Uiso   1.00
C281   C     0.14307   0.67735   0.24787   0.00000  Uiso   1.00
C282   C     0.15160   0.73330   0.24848   0.00000  Uiso   1.00
C283   C     0.19966   0.83707   0.15324   0.00000  Uiso   1.00
C284   C     0.29438   0.86371   0.02250   0.00000  Uiso   1.00
C285   C     0.21762   0.84005   0.09809   0.00000  Uiso   1.00
C286   C     0.05342   0.78052   0.41785   0.00000  Uiso   1.00
C287   C     0.03417   0.77120   0.46951   0.00000  Uiso   1.00
C288   C     0.14027   0.80629   0.48388   0.00000  Uiso   1.00
C289   C     0.07612   0.78678   0.00276   0.00000  Uiso   1.00
C290   C     0.16030   0.80714   0.43053   0.00000  Uiso   1.00
C291   C     0.18590   0.82396   0.01538   0.00000  Uiso   1.00
C292   C     0.24899   0.84376   0.49261   0.00000  Uiso   1.00
C293   C     0.26736   0.83806   0.44044   0.00000  Uiso   1.00
C294   C     0.22461   0.81110   0.41155   0.00000  Uiso   1.00
C295   C     0.17141   0.82259   0.06842   0.00000  Uiso   1.00
C296   C     0.27893   0.86125   0.07506   0.00000  Uiso   1.00
Cu297  Cu    0.10710   0.82772   0.24436   0.00000  Uiso   1.00
Cu298  Cu    0.22623   0.83895   0.25565   0.00000  Uiso   1.00
H299   H     0.31481   0.87566   0.09759   0.00000  Uiso   1.00
H300   H     0.31899   0.75445   0.48427   0.00000  Uiso   1.00
H301   H     0.23549   0.67975   0.25702   0.00000  Uiso   1.00
H302   H     0.20916   0.75220   0.35666   0.00000  Uiso   1.00
H303   H     0.27792   0.79737   0.34345   0.00000  Uiso   1.00
H304   H     0.09770   0.98694   0.24346   0.00000  Uiso   1.00
H305   H     0.00423   0.87360   0.28897   0.00000  Uiso   1.00
H306   H     0.32920   0.79326   0.21085   0.00000  Uiso   1.00
H307   H     0.31612   0.84857   0.42324   0.00000  Uiso   1.00
H308   H     0.00911   0.87908   0.00508   0.00000  Uiso   1.00
H309   H     0.12460   0.80690   0.08752   0.00000  Uiso   1.00
H310   H     0.01965   0.77084   0.39306   0.00000  Uiso   1.00
H311   H     0.05699   0.78218   0.04260   0.00000  Uiso   1.00
N312   N     0.31574   0.84741   0.26416   0.00000  Uiso   1.00
N313   N     0.01759   0.81926   0.23584   0.00000  Uiso   1.00
N314   N     0.24599   0.77576   0.37192   0.00000  Uiso   1.00
O315   O     0.12797   0.90474   0.24633   0.00000  Uiso   1.00
O316   O     0.22858   0.91422   0.25587   0.00000  Uiso   1.00
O317   O     0.09181   0.82627   0.31840   0.00000  Uiso   1.00
O318   O     0.19242   0.83575   0.32793   0.00000  Uiso   1.00
O319   O     0.10476   0.75245   0.24414   0.00000  Uiso   1.00
O320   O     0.20536   0.76193   0.25367   0.00000  Uiso   1.00
O321   O     0.14092   0.83092   0.17207   0.00000  Uiso   1.00
O322   O     0.24152   0.84040   0.18161   0.00000  Uiso   1.00
C323   C     0.51503   0.93337   0.25165   0.00000  Uiso   1.00
C324   C     0.44888   0.80292   0.39843   0.00000  Uiso   1.00
C325   C     0.52346   0.98933   0.25256   0.00000  Uiso   1.00
C326   C     0.46681   0.82210   0.34560   0.00000  Uiso   1.00
C327   C     0.47641   0.67735   0.24787   0.00000  Uiso   1.00
C328   C     0.48493   0.73330   0.24848   0.00000  Uiso   1.00
C329   C     0.53300   0.83707   0.15324   0.00000  Uiso   1.00
C330   C     0.62772   0.86371   0.02250   0.00000  Uiso   1.00
C331   C     0.55096   0.84005   0.09809   0.00000  Uiso   1.00
C332   C     0.38675   0.78052   0.41785   0.00000  Uiso   1.00
C333   C     0.36751   0.77120   0.46951   0.00000  Uiso   1.00
C334   C     0.47360   0.80629   0.48388   0.00000  Uiso   1.00
C335   C     0.40945   0.78678   0.00276   0.00000  Uiso   1.00
C336   C     0.49364   0.80714   0.43053   0.00000  Uiso   1.00
C337   C     0.51923   0.82396   0.01538   0.00000  Uiso   1.00
C338   C     0.58232   0.84376   0.49261   0.00000  Uiso   1.00
C339   C     0.60070   0.83806   0.44044   0.00000  Uiso   1.00
C340   C     0.55794   0.81110   0.41155   0.00000  Uiso   1.00
C341   C     0.50474   0.82259   0.06842   0.00000  Uiso   1.00
C342   C     0.61227   0.86125   0.07506   0.00000  Uiso   1.00
Cu343  Cu    0.44043   0.82772   0.24436   0.00000  Uiso   1.00
Cu344  Cu    0.55957   0.83895   0.25565   0.00000  Uiso   1.00
H345   H     0.64815   0.87566   0.09759   0.00000  Uiso   1.00
H346   H     0.65233   0.75445   0.48427   0.00000  Uiso   1.00
H347   H     0.56882   0.67975   0.25702   0.00000  Uiso   1.00
H348   H     0.54250   0.75220   0.35666   0.00000  Uiso   1.00
H349   H     0.61125   0.79737   0.34345   0.00000  Uiso   1.00
H350   H     0.43103   0.98694   0.24346   0.00000  Uiso   1.00
H351   H     0.33756   0.87360   0.28897   0.00000  Uiso   1.00
H352   H     0.66254   0.79326   0.21085   0.00000  Uiso   1.00
H353   H     0.64945   0.84857   0.42324   0.00000  Uiso   1.00
H354   H     0.34244   0.87908   0.00508   0.00000  Uiso   1.00
H355   H     0.45793   0.80690   0.08752   0.00000  Uiso   1.00
H356   H     0.35298   0.77084   0.39306   0.00000  Uiso   1.00
H357   H     0.39033   0.78218   0.04260   0.00000  Uiso   1.00
N358   N     0.64908   0.84741   0.26416   0.00000  Uiso   1.00
N359   N     0.35092   0.81926   0.23584   0.00000  Uiso   1.00
N360   N     0.57933   0.77576   0.37192   0.00000  Uiso   1.00
O361   O     0.46131   0.90474   0.24633   0.00000  Uiso   1.00
O362   O     0.56191   0.91422   0.25587   0.00000  Uiso   1.00
O363   O     0.42515   0.82627   0.31840   0.00000  Uiso   1.00
O364   O     0.52575   0.83575   0.32793   0.00000  Uiso   1.00
O365   O     0.43809   0.75245   0.24414   0.00000  Uiso   1.00
O366   O     0.53869   0.76193   0.25367   0.00000  Uiso   1.00
O367   O     0.47425   0.83092   0.17207   0.00000  Uiso   1.00
O368   O     0.57485   0.84040   0.18161   0.00000  Uiso   1.00
C369   C     0.84836   0.93337   0.25165   0.00000  Uiso   1.00
C370   C     0.78222   0.80292   0.39843   0.00000  Uiso   1.00
C371   C     0.85680   0.98933   0.25256   0.00000  Uiso   1.00
C372   C     0.80014   0.82210   0.34560   0.00000  Uiso   1.00
C373   C     0.80974   0.67735   0.24787   0.00000  Uiso   1.00
C374   C     0.81826   0.73330   0.24848   0.00000  Uiso   1.00
C375   C     0.86633   0.83707   0.15324   0.00000  Uiso   1.00
C376   C     0.96105   0.86371   0.02250   0.00000  Uiso   1.00
C377   C     0.88429   0.84005   0.09809   0.00000  Uiso   1.00
C378   C     0.72008   0.78052   0.41785   0.00000  Uiso   1.00
C379   C     0.70084   0.77120   0.46951   0.00000  Uiso   1.00
C380   C     0.80694   0.80629   0.48388   0.00000  Uiso   1.00
C381   C     0.74278   0.78678   0.00276   0.00000  Uiso   1.00
C382   C     0.82697   0.80714   0.43053   0.00000  Uiso   1.00
C383   C     0.85257   0.82396   0.01538   0.00000  Uiso   1.00
C384   C     0.91565   0.84376   0.49261   0.00000  Uiso   1.00
C385   C     0.93403   0.83806   0.44044   0.00000  Uiso   1.00
C386   C     0.89127   0.81110   0.41155   0.00000  Uiso   1.00
C387   C     0.83807   0.82259   0.06842   0.00000  Uiso   1.00
C388   C     0.94560   0.86125   0.07506   0.00000  Uiso   1.00
Cu389  Cu    0.77377   0.82772   0.24436   0.00000  Uiso   1.00
Cu390  Cu    0.89290   0.83895   0.25565   0.00000  Uiso   1.00
H391   H     0.98148   0.87566   0.09759   0.00000  Uiso   1.00
H392   H     0.98566   0.75445   0.48427   0.00000  Uiso   1.00
H393   H     0.90216   0.67975   0.25702   0.00000  Uiso   1.00
H394   H     0.87583   0.75220   0.35666   0.00000  Uiso   1.00
H395   H     0.94459   0.79737   0.34345   0.00000  Uiso   1.00
H396   H     0.76436   0.98694   0.24346   0.00000  Uiso   1.00
H397   H     0.67089   0.87360   0.28897   0.00000  Uiso   1.00
H398   H     0.99587   0.79326   0.21085   0.00000  Uiso   1.00
H399   H     0.98279   0.84857   0.42324   0.00000  Uiso   1.00
H400   H     0.67578   0.87908   0.00508   0.00000  Uiso   1.00
H401   H     0.79127   0.80690   0.08752   0.00000  Uiso   1.00
H402   H     0.68632   0.77084   0.39306   0.00000  Uiso   1.00
H403   H     0.72366   0.78218   0.04260   0.00000  Uiso   1.00
N404   N     0.98241   0.84741   0.26416   0.00000  Uiso   1.00
N405   N     0.68426   0.81926   0.23584   0.00000  Uiso   1.00
N406   N     0.91266   0.77576   0.37192   0.00000  Uiso   1.00
O407   O     0.79464   0.90474   0.24633   0.00000  Uiso   1.00
O408   O     0.89524   0.91422   0.25587   0.00000  Uiso   1.00
O409   O     0.75848   0.82627   0.31840   0.00000  Uiso   1.00
O410   O     0.85908   0.83575   0.32793   0.00000  Uiso   1.00
O411   O     0.77142   0.75245   0.24414   0.00000  Uiso   1.00
O412   O     0.87203   0.76193   0.25367   0.00000  Uiso   1.00
O413   O     0.80758   0.83092   0.17207   0.00000  Uiso   1.00
O414   O     0.90819   0.84040   0.18161   0.00000  Uiso   1.00
C415   C     0.18169   0.26670   0.75165   0.00000  Uiso   1.00
C416   C     0.11555   0.13626   0.89843   0.00000  Uiso   1.00
C417   C     0.19013   0.32267   0.75256   0.00000  Uiso   1.00
C418   C     0.13347   0.15543   0.84560   0.00000  Uiso   1.00
C419   C     0.14307   0.01069   0.74787   0.00000  Uiso   1.00
C420   C     0.15160   0.06663   0.74848   0.00000  Uiso   1.00
C421   C     0.19966   0.17041   0.65324   0.00000  Uiso   1.00
C422   C     0.29438   0.19704   0.52250   0.00000  Uiso   1.00
C423   C     0.21762   0.17338   0.59809   0.00000  Uiso   1.00
C424   C     0.05342   0.11385   0.91785   0.00000  Uiso   1.00
C425   C     0.03417   0.10454   0.96951   0.00000  Uiso   1.00
C426   C     0.14027   0.13962   0.98388   0.00000  Uiso   1.00
C427   C     0.07612   0.12011   0.50276   0.00000  Uiso   1.00
C428   C     0.16030   0.14047   0.93053   0.00000  Uiso   1.00
C429   C     0.18590   0.15729   0.51538   0.00000  Uiso   1.00
C430   C     0.24899   0.17709   0.99261   0.00000  Uiso   1.00
C431   C     0.26736   0.17139   0.94044   0.00000  Uiso   1.00
C432   C     0.22461   0.14443   0.91155   0.00000  Uiso   1.00
C433   C     0.17141   0.15592   0.56842   0.00000  Uiso   1.00
C434   C     0.27893   0.19459   0.57506   0.00000  Uiso   1.00
Cu435  Cu    0.10710   0.16105   0.74436   0.00000  Uiso   1.00
Cu436  Cu    0.22623   0.17228   0.75565   0.00000  Uiso   1.00
H437   H     0.31481   0.20899   0.59759   0.00000  Uiso   1.00
H438   H     0.31899   0.08778   0.98427   0.00000  Uiso   1.00
H439   H     0.23549   0.01308   0.75702   0.00000  Uiso   1.00
H440   H     0.20916   0.08554   0.85666   0.00000  Uiso   1.00
H441   H     0.27792   0.13070   0.84345   0.00000  Uiso   1.00
H442   H     0.09770   0.32028   0.74346   0.00000  Uiso   1.00
H443   H     0.00423   0.20693   0.78897   0.00000  Uiso   1.00
H444   H     0.32920   0.12659   0.71085   0.00000  Uiso   1.00
H445   H     0.31612   0.18190   0.92324   0.00000  Uiso   1.00
H446   H     0.00911   0.21242   0.50508   0.00000  Uiso   1.00
H447   H     0.12460   0.14023   0.58752   0.00000  Uiso   1.00
H448   H     0.01965   0.10417   0.89306   0.00000  Uiso   1.00
H449   H     0.05699   0.11552   0.54260   0.00000  Uiso   1.00
N450   N     0.31574   0.18074   0.76416   0.00000  Uiso   1.00
N451   N     0.01759   0.15259   0.73584   0.00000  Uiso   1.00
N452   N     0.24599   0.10909   0.87192   0.00000  Uiso   1.00
O453   O     0.12797   0.23807   0.74633   0.00000  Uiso   1.00
O454   O     0.22858   0.24755   0.75587   0.00000  Uiso   1.00
O455   O     0.09181   0.15960   0.81840   0.00000  Uiso   1.00
O456   O     0.19242   0.16908   0.82793   0.00000  Uiso   1.00
O457   O     0.10476   0.08578   0.74414   0.00000  Uiso   1.00
O458   O     0.20536   0.09526   0.75367   0.00000  Uiso   1.00
O459   O     0.14092   0.16425   0.67207   0.00000  Uiso   1.00
O460   O     0.24152   0.17373   0.68161   0.00000  Uiso   1.00
C461   C     0.51503   0.26670   0.75165   0.00000  Uiso   1.00
C462   C     0.44888   0.13626   0.89843   0.00000  Uiso   1.00
C463   C     0.52346   0.32267   0.75256   0.00000  Uiso   1.00
C464   C     0.46681   0.15543   0.84560   0.00000  Uiso   1.00
C465   C     0.47641   0.01069   0.74787   0.00000  Uiso   1.00
C466   C     0.48493   0.06663   0.74848   0.00000  Uiso   1.00
C467   C     0.53300   0.17041   0.65324   0.00000  Uiso   1.00
C468   C     0.62772   0.19704   0.52250   0.00000  Uiso   1.00
C469   C     0.55096   0.17338   0.59809   0.00000  Uiso   1.00
C470   C     0.38675   0.11385   0.91785   0.00000  Uiso   1.00
C471   C     0.36751   0.10454   0.96951   0.00000  Uiso   1.00
C472   C     0.47360   0.13962   0.98388   0.00000  Uiso   1.00
C473   C     0.40945   0.12011   0.50276   0.00000  Uiso   1.00
C474   C     0.49364   0.14047   0.93053   0.00000  Uiso   1.00
C475   C     0.51923   0.15729   0.51538   0.00000  Uiso   1.00
C476   C     0.58232   0.17709   0.99261   0.00000  Uiso   1.00
C477   C     0.60070   0.17139   0.94044   0.00000  Uiso   1.00
C478   C     0.55794   0.14443   0.91155   0.00000  Uiso   1.00
C479   C     0.50474   0.15592   0.56842   0.00000  Uiso   1.00
C480   C     0.61227   0.19459   0.57506   0.00000  Uiso   1.00
Cu481  Cu    0.44043   0.16105   0.74436   0.00000  Uiso   1.00
Cu482  Cu    0.55957   0.17228   0.75565   0.00000  Uiso   1.00
H483   H     0.64815   0.20899   0.59759   0.00000  Uiso   1.00
H484   H     0.65233   0.08778   0.98427   0.00000  Uiso   1.00
H485   H     0.56882   0.01308   0.75702   0.00000  Uiso   1.00
H486   H     0.54250   0.08554   0.85666   0.00000  Uiso   1.00
H487   H     0.61125   0.13070   0.84345   0.00000  Uiso   1.00
H488   H     0.43103   0.32028   0.74346   0.00000  Uiso   1.00
H489   H     0.33756   0.20693   0.78897   0.00000  Uiso   1.00
H490   H     0.66254   0.12659   0.71085   0.00000  Uiso   1.00
H491   H     0.64945   0.18190   0.92324   0.00000  Uiso   1.00
H492   H     0.34244   0.21242   0.50508   0.00000  Uiso   1.00
H493   H     0.45793   0.14023   0.58752   0.00000  Uiso   1.00
H494   H     0.35298   0.10417   0.89306   0.00000  Uiso   1.00
H495   H     0.39033   0.11552   0.54260   0.00000  Uiso   1.00
N496   N     0.64908   0.18074   0.76416   0.00000  Uiso   1.00
N497   N     0.35092   0.15259   0.73584   0.00000  Uiso   1.00
N498   N     0.57933   0.10909   0.87192   0.00000  Uiso   1.00
O499   O     0.46131   0.23807   0.74633   0.00000  Uiso   1.00
O500   O     0.56191   0.24755   0.75587   0.00000  Uiso   1.00
O501   O     0.42515   0.15960   0.81840   0.00000  Uiso   1.00
O502   O     0.52575   0.16908   0.82793   0.00000  Uiso   1.00
O503   O     0.43809   0.08578   0.74414   0.00000  Uiso   1.00
O504   O     0.53869   0.09526   0.75367   0.00000  Uiso   1.00
O505   O     0.47425   0.16425   0.67207   0.00000  Uiso   1.00
O506   O     0.57485   0.17373   0.68161   0.00000  Uiso   1.00
C507   C     0.84836   0.26670   0.75165   0.00000  Uiso   1.00
C508   C     0.78222   0.13626   0.89843   0.00000  Uiso   1.00
C509   C     0.85680   0.32267   0.75256   0.00000  Uiso   1.00
C510   C     0.80014   0.15543   0.84560   0.00000  Uiso   1.00
C511   C     0.80974   0.01069   0.74787   0.00000  Uiso   1.00
C512   C     0.81826   0.06663   0.74848   0.00000  Uiso   1.00
C513   C     0.86633   0.17041   0.65324   0.00000  Uiso   1.00
C514   C     0.96105   0.19704   0.52250   0.00000  Uiso   1.00
C515   C     0.88429   0.17338   0.59809   0.00000  Uiso   1.00
C516   C     0.72008   0.11385   0.91785   0.00000  Uiso   1.00
C517   C     0.70084   0.10454   0.96951   0.00000  Uiso   1.00
C518   C     0.80694   0.13962   0.98388   0.00000  Uiso   1.00
C519   C     0.74278   0.12011   0.50276   0.00000  Uiso   1.00
C520   C     0.82697   0.14047   0.93053   0.00000  Uiso   1.00
C521   C     0.85257   0.15729   0.51538   0.00000  Uiso   1.00
C522   C     0.91565   0.17709   0.99261   0.00000  Uiso   1.00
C523   C     0.93403   0.17139   0.94044   0.00000  Uiso   1.00
C524   C     0.89127   0.14443   0.91155   0.00000  Uiso   1.00
C525   C     0.83807   0.15592   0.56842   0.00000  Uiso   1.00
C526   C     0.94560   0.19459   0.57506   0.00000  Uiso   1.00
Cu527  Cu    0.77377   0.16105   0.74436   0.00000  Uiso   1.00
Cu528  Cu    0.89290   0.17228   0.75565   0.00000  Uiso   1.00
H529   H     0.98148   0.20899   0.59759   0.00000  Uiso   1.00
H530   H     0.98566   0.08778   0.98427   0.00000  Uiso   1.00
H531   H     0.90216   0.01308   0.75702   0.00000  Uiso   1.00
H532   H     0.87583   0.08554   0.85666   0.00000  Uiso   1.00
H533   H     0.94459   0.13070   0.84345   0.00000  Uiso   1.00
H534   H     0.76436   0.32028   0.74346   0.00000  Uiso   1.00
H535   H     0.67089   0.20693   0.78897   0.00000  Uiso   1.00
H536   H     0.99587   0.12659   0.71085   0.00000  Uiso   1.00
H537   H     0.98279   0.18190   0.92324   0.00000  Uiso   1.00
H538   H     0.67578   0.21242   0.50508   0.00000  Uiso   1.00
H539   H     0.79127   0.14023   0.58752   0.00000  Uiso   1.00
H540   H     0.68632   0.10417   0.89306   0.00000  Uiso   1.00
H541   H     0.72366   0.11552   0.54260   0.00000  Uiso   1.00
N542   N     0.98241   0.18074   0.76416   0.00000  Uiso   1.00
N543   N     0.68426   0.15259   0.73584   0.00000  Uiso   1.00
N544   N     0.91266   0.10909   0.87192   0.00000  Uiso   1.00
O545   O     0.79464   0.23807   0.74633   0.00000  Uiso   1.00
O546   O     0.89524   0.24755   0.75587   0.00000  Uiso   1.00
O547   O     0.75848   0.15960   0.81840   0.00000  Uiso   1.00
O548   O     0.85908   0.16908   0.82793   0.00000  Uiso   1.00
O549   O     0.77142   0.08578   0.74414   0.00000  Uiso   1.00
O550   O     0.87203   0.09526   0.75367   0.00000  Uiso   1.00
O551   O     0.80758   0.16425   0.67207   0.00000  Uiso   1.00
O552   O     0.90819   0.17373   0.68161   0.00000  Uiso   1.00
C553   C     0.18169   0.60003   0.75165   0.00000  Uiso   1.00
C554   C     0.11555   0.46959   0.89843   0.00000  Uiso   1.00
C555   C     0.19013   0.65600   0.75256   0.00000  Uiso   1.00
C556   C     0.13347   0.48877   0.84560   0.00000  Uiso   1.00
C557   C     0.14307   0.34402   0.74787   0.00000  Uiso   1.00
C558   C     0.15160   0.39997   0.74848   0.00000  Uiso   1.00
C559   C     0.19966   0.50374   0.65324   0.00000  Uiso   1.00
C560   C     0.29438   0.53038   0.52250   0.00000  Uiso   1.00
C561   C     0.21762   0.50671   0.59809   0.00000  Uiso   1.00
C562   C     0.05342   0.44718   0.91785   0.00000  Uiso   1.00
C563   C     0.03417   0.43787   0.96951   0.00000  Uiso   1.00
C564   C     0.14027   0.47296   0.98388   0.00000  Uiso   1.00
C565   C     0.07612   0.45345   0.50276   0.00000  Uiso   1.00
C566   C     0.16030   0.47381   0.93053   0.00000  Uiso   1.00
C567   C     0.18590   0.49062   0.51538   0.00000  Uiso   1.00
C568   C     0.24899   0.51042   0.99261   0.00000  Uiso   1.00
C569   C     0.26736   0.50472   0.94044   0.00000  Uiso   1.00
C570   C     0.22461   0.47777   0.91155   0.00000  Uiso   1.00
C571   C     0.17141   0.48925   0.56842   0.00000  Uiso   1.00
C572   C     0.27893   0.52792   0.57506   0.00000  Uiso   1.00
Cu573  Cu    0.10710   0.49439   0.74436   0.00000  Uiso   1.00
Cu574  Cu    0.22623   0.50561   0.75565   0.00000  Uiso   1.00
H575   H     0.31481   0.54232   0.59759   0.00000  Uiso   1.00
H576   H     0.31899   0.42112   0.98427   0.00000  Uiso   1.00
H577   H     0.23549   0.34642   0.75702   0.00000  Uiso   1.00
H578   H     0.20916   0.41887   0.85666   0.00000  Uiso   1.00
H579   H     0.27792   0.46404   0.84345   0.00000  Uiso   1.00
H580   H     0.09770   0.65361   0.74346   0.00000  Uiso   1.00
H581   H     0.00423   0.54027   0.78897   0.00000  Uiso   1.00
H582   H     0.32920   0.45992   0.71085   0.00000  Uiso   1.00
H583   H     0.31612   0.51524   0.92324   0.00000  Uiso   1.00
H584   H     0.00911   0.54575   0.50508   0.00000  Uiso   1.00
H585   H     0.12460   0.47357   0.58752   0.00000  Uiso   1.00
H586   H     0.01965   0.43751   0.89306   0.00000  Uiso   1.00
H587   H     0.05699   0.44885   0.54260   0.00000  Uiso   1.00
N588   N     0.31574   0.51407   0.76416   0.00000  Uiso   1.00
N589   N     0.01759   0.48593   0.73584   0.00000  Uiso   1.00
N590   N     0.24599   0.44242   0.87192   0.00000  Uiso   1.00
O591   O     0.12797   0.57141   0.74633   0.00000  Uiso   1.00
O592   O     0.22858   0.58089   0.75587   0.00000  Uiso   1.00
O593   O     0.09181   0.49293   0.81840   0.00000  Uiso   1.00
O594   O     0.19242   0.50241   0.82793   0.00000  Uiso   1.00
O595   O     0.10476   0.41911   0.74414   0.00000  Uiso   1.00
O596   O     0.20536   0.42859   0.75367   0.00000  Uiso   1.00
O597   O     0.14092   0.49759   0.67207   0.00000  Uiso   1.00
O598   O     0.24152   0.50707   0.68161   0.00000  Uiso   1.00
C599   C     0.51503   0.60003   0.75165   0.00000  Uiso   1.00
C600   C     0.44888   0.46959   0.89843   0.00000  Uiso   1.00
C601   C     0.52346   0.65600   0.75256   0.00000  Uiso   1.00
C602   C     0.46681   0.48877   0.84560   0.00000  Uiso   1.00
C603   C     0.47641   0.34402   0.74787   0.00000  Uiso   1.00
C604   C     0.48493   0.39997   0.74848   0.00000  Uiso   1.00
C605   C     0.53300   0.50374   0.65324   0.00000  Uiso   1.00
C606   C     0.62772   0.53038   0.52250   0.00000  Uiso   1.00
C607   C     0.55096   0.50671   0.59809   0.00000  Uiso   1.00
C608   C     0.38675   0.44718   0.91785   0.00000  Uiso   1.00
C609   C     0.36751   0.43787   0.96951   0.00000  Uiso   1.00
C610   C     0.47360   0.47296   0.98388   0.00000  Uiso   1.00
C611   C     0.40945   0.45345   0.50276   0.00000  Uiso   1.00
C612   C     0.49364   0.47381   0.93053   0.00000  Uiso   1.00
C613   C     0.51923   0.49062   0.51538   0.00000  Uiso   1.00
C614   C     0.58232   0.51042   0.99261   0.00000  Uiso   1.00
C615   C     0.60070   0.50472   0.94044   0.00000  Uiso   1.00
C616   C     0.55794   0.47777   0.91155   0.00000  Uiso   1.00
C617   C     0.50474   0.48925   0.56842   0.00000  Uiso   1.00
C618   C     0.61227   0.52792   0.57506   0.00000  Uiso   1.00
Cu619  Cu    0.44043   0.49439   0.74436   0.00000  Uiso   1.00
Cu620  Cu    0.55957   0.50561   0.75565   0.00000  Uiso   1.00
H621   H     0.64815   0.54232   0.59759   0.00000  Uiso   1.00
H622   H     0.65233   0.42112   0.98427   0.00000  Uiso   1.00
H623   H     0.56882   0.34642   0.75702   0.00000  Uiso   1.00
H624   H     0.54250   0.41887   0.85666   0.00000  Uiso   1.00
H625   H     0.61125   0.46404   0.84345   0.00000  Uiso   1.00
H626   H     0.43103   0.65361   0.74346   0.00000  Uiso   1.00
H627   H     0.33756   0.54027   0.78897   0.00000  Uiso   1.00
H628   H     0.66254   0.45992   0.71085   0.00000  Uiso   1.00
H629   H     0.64945   0.51524   0.92324   0.00000  Uiso   1.00
H630   H     0.34244   0.54575   0.50508   0.00000  Uiso   1.00
H631   H     0.45793   0.47357   0.58752   0.00000  Uiso   1.00
H632   H     0.35298   0.43751   0.89306   0.00000  Uiso   1.00
H633   H     0.39033   0.44885   0.54260   0.00000  Uiso   1.00
N634   N     0.64908   0.51407   0.76416   0.00000  Uiso   1.00
N635   N     0.35092   0.48593   0.73584   0.00000  Uiso   1.00
N636   N     0.57933   0.44242   0.87192   0.00000  Uiso   1.00
O637   O     0.46131   0.57141   0.74633   0.00000  Uiso   1.00
O638   O     0.56191   0.58089   0.75587   0.00000  Uiso   1.00
O639   O     0.42515   0.49293   0.81840   0.00000  Uiso   1.00
O640   O     0.52575   0.50241   0.82793   0.00000  Uiso   1.00
O641   O     0.43809   0.41911   0.74414   0.00000  Uiso   1.00
O642   O     0.53869   0.42859   0.75367   0.00000  Uiso   1.00
O643   O     0.47425   0.49759   0.67207   0.00000  Uiso   1.00
O644   O     0.57485   0.50707   0.68161   0.00000  Uiso   1.00
C645   C     0.84836   0.60003   0.75165   0.00000  Uiso   1.00
C646   C     0.78222   0.46959   0.89843   0.00000  Uiso   1.00
C647   C     0.85680   0.65600   0.75256   0.00000  Uiso   1.00
C648   C     0.80014   0.48877   0.84560   0.00000  Uiso   1.00
C649   C     0.80974   0.34402   0.74787   0.00000  Uiso   1.00
C650   C     0.81826   0.39997   0.74848   0.00000  Uiso   1.00
C651   C     0.86633   0.50374   0.65324   0.00000  Uiso   1.00
C652   C     0.96105   0.53038   0.52250   0.00000  Uiso   1.00
C653   C     0.88429   0.50671   0.59809   0.00000  Uiso   1.00
C654   C     0.72008   0.44718   0.91785   0.00000  Uiso   1.00
C655   C     0.70084   0.43787   0.96951   0.00000  Uiso   1.00
C656   C     0.80694   0.47296   0.98388   0.00000  Uiso   1.00
C657   C     0.74278   0.45345   0.50276   0.00000  Uiso   1.00
C658   C     0.82697   0.47381   0.93053   0.00000  Uiso   1.00
C659   C     0.85257   0.49062   0.51538   0.00000  Uiso   1.00
C660   C     0.91565   0.51042   0.99261   0.00000  Uiso   1.00
C661   C     0.93403   0.50472   0.94044   0.00000  Uiso   1.00
C662   C     0.89127   0.47777   0.91155   0.00000  Uiso   1.00
C663   C     0.83807   0.48925   0.56842   0.00000  Uiso   1.00
C664   C     0.94560   0.52792   0.57506   0.00000  Uiso   1.00
Cu665  Cu    0.77377   0.49439   0.74436   0.00000  Uiso   1.00
Cu666  Cu    0.89290   0.50561   0.75565   0.00000  Uiso   1.00
H667   H     0.98148   0.54232   0.59759   0.00000  Uiso   1.00
H668   H     0.98566   0.42112   0.98427   0.00000  Uiso   1.00
H669   H     0.90216   0.34642   0.75702   0.00000  Uiso   1.00
H670   H     0.87583   0.41887   0.85666   0.00000  Uiso   1.00
H671   H     0.94459   0.46404   0.84345   0.00000  Uiso   1.00
H672   H     0.76436   0.65361   0.74346   0.00000  Uiso   1.00
H673   H     0.67089   0.54027   0.78897   0.00000  Uiso   1.00
H674   H     0.99587   0.45992   0.71085   0.00000  Uiso   1.00
H675   H     0.98279   0.51524   0.92324   0.00000  Uiso   1.00
H676   H     0.67578   0.54575   0.50508   0.00000  Uiso   1.00
H677   H     0.79127   0.47357   0.58752   0.00000  Uiso   1.00
H678   H     0.68632   0.43751   0.89306   0.00000  Uiso   1.00
H679   H     0.72366   0.44885   0.54260   0.00000  Uiso   1.00
N680   N     0.98241   0.51407   0.76416   0.00000  Uiso   1.00
N681   N     0.68426   0.48593   0.73584   0.00000  Uiso   1.00
N682   N     0.91266   0.44242   0.87192   0.00000  Uiso   1.00
O683   O     0.79464   0.57141   0.74633   0.00000  Uiso   1.00
O684   O     0.89524   0.58089   0.75587   0.00000  Uiso   1.00
O685   O     0.75848   0.49293   0.81840   0.00000  Uiso   1.00
O686   O     0.85908   0.50241   0.82793   0.00000  Uiso   1.00
O687   O     0.77142   0.41911   0.74414   0.00000  Uiso   1.00
O688   O     0.87203   0.42859   0.75367   0.00000  Uiso   1.00
O689   O     0.80758   0.49759   0.67207   0.00000  Uiso   1.00
O690   O     0.90819   0.50707   0.68161   0.00000  Uiso   1.00
C691   C     0.18169   0.93337   0.75165   0.00000  Uiso   1.00
C692   C     0.11555   0.80292   0.89843   0.00000  Uiso   1.00
C693   C     0.19013   0.98933   0.75256   0.00000  Uiso   1.00
C694   C     0.13347   0.82210   0.84560   0.00000  Uiso   1.00
C695   C     0.14307   0.67735   0.74787   0.00000  Uiso   1.00
C696   C     0.15160   0.73330   0.74848   0.00000  Uiso   1.00
C697   C     0.19966   0.83707   0.65324   0.00000  Uiso   1.00
C698   C     0.29438   0.86371   0.52250   0.00000  Uiso   1.00
C699   C     0.21762   0.84005   0.59809   0.00000  Uiso   1.00
C700   C     0.05342   0.78052   0.91785   0.00000  Uiso   1.00
C701   C     0.03417   0.77120   0.96951   0.00000  Uiso   1.00
C702   C     0.14027   0.80629   0.98388   0.00000  Uiso   1.00
C703   C     0.07612   0.78678   0.50276   0.00000  Uiso   1.00
C704   C     0.16030   0.80714   0.93053   0.00000  Uiso   1.00
C705   C     0.18590   0.82396   0.51538   0.00000  Uiso   1.00
C706   C     0.24899   0.84376   0.99261   0.00000  Uiso   1.00
C707   C     0.26736   0.83806   0.94044   0.00000  Uiso   1.00
C708   C     0.22461   0.81110   0.91155   0.00000  Uiso   1.00
C709   C     0.17141   0.82259   0.56842   0.00000  Uiso   1.00
C710   C     0.27893   0.86125   0.57506   0.00000  Uiso   1.00
Cu711  Cu    0.10710   0.82772   0.74436   0.00000  Uiso   1.00
Cu712  Cu    0.22623   0.83895   0.75565   0.00000  Uiso   1.00
H713   H     0.31481   0.87566   0.59759   0.00000  Uiso   1.00
H714   H     0.31899   0.75445   0.98427   0.00000  Uiso   1.00
H715   H     0.23549   0.67975   0.75702   0.00000  Uiso   1.00
H716   H     0.20916   0.75220   0.85666   0.00000  Uiso   1.00
H717   H     0.27792   0.79737   0.84345   0.00000  Uiso   1.00
H718   H     0.09770   0.98694   0.74346   0.00000  Uiso   1.00
H719   H     0.00423   0.87360   0.78897   0.00000  Uiso   1.00
H720   H     0.32920   0.79326   0.71085   0.00000  Uiso   1.00
H721   H     0.31612   0.84857   0.92324   0.00000  Uiso   1.00
H722   H     0.00911   0.87908   0.50508   0.00000  Uiso   1.00
H723   H     0.12460   0.80690   0.58752   0.00000  Uiso   1.00
H724   H     0.01965   0.77084   0.89306   0.00000  Uiso   1.00
H725   H     0.05699   0.78218   0.54260   0.00000  Uiso   1.00
N726   N     0.31574   0.84741   0.76416   0.00000  Uiso   1.00
N727   N     0.01759   0.81926   0.73584   0.00000  Uiso   1.00
N728   N     0.24599   0.77576   0.87192   0.00000  Uiso   1.00
O729   O     0.12797   0.90474   0.74633   0.00000  Uiso   1.00
O730   O     0.22858   0.91422   0.75587   0.00000  Uiso   1.00
O731   O     0.09181   0.82627   0.81840   0.00000  Uiso   1.00
O732   O     0.19242   0.83575   0.82793   0.00000  Uiso   1.00
O733   O     0.10476   0.75245   0.74414   0.00000  Uiso   1.00
O734   O     0.20536   0.76193   0.75367   0.00000  Uiso   1.00
O735   O     0.14092   0.83092   0.67207   0.00000  Uiso   1.00
O736   O     0.24152   0.84040   0.68161   0.00000  Uiso   1.00
C737   C     0.51503   0.93337   0.75165   0.00000  Uiso   1.00
C738   C     0.44888   0.80292   0.89843   0.00000  Uiso   1.00
C739   C     0.52346   0.98933   0.75256   0.00000  Uiso   1.00
C740   C     0.46681   0.82210   0.84560   0.00000  Uiso   1.00
C741   C     0.47641   0.67735   0.74787   0.00000  Uiso   1.00
C742   C     0.48493   0.73330   0.74848   0.00000  Uiso   1.00
C743   C     0.53300   0.83707   0.65324   0.00000  Uiso   1.00
C744   C     0.62772   0.86371   0.52250   0.00000  Uiso   1.00
C745   C     0.55096   0.84005   0.59809   0.00000  Uiso   1.00
C746   C     0.38675   0.78052   0.91785   0.00000  Uiso   1.00
C747   C     0.36751   0.77120   0.96951   0.00000  Uiso   1.00
C748   C     0.47360   0.80629   0.98388   0.00000  Uiso   1.00
C749   C     0.40945   0.78678   0.50276   0.00000  Uiso   1.00
C750   C     0.49364   0.80714   0.93053   0.00000  Uiso   1.00
C751   C     0.51923   0.82396   0.51538   0.00000  Uiso   1.00
C752   C     0.58232   0.84376   0.99261   0.00000  Uiso   1.00
C753   C     0.60070   0.83806   0.94044   0.00000  Uiso   1.00
C754   C     0.55794   0.81110   0.91155   0.00000  Uiso   1.00
C755   C     0.50474   0.82259   0.56842   0.00000  Uiso   1.00
C756   C     0.61227   0.86125   0.57506   0.00000  Uiso   1.00
Cu757  Cu    0.44043   0.82772   0.74436   0.00000  Uiso   1.00
Cu758  Cu    0.55957   0.83895   0.75565   0.00000  Uiso   1.00
H759   H     0.64815   0.87566   0.59759   0.00000  Uiso   1.00
H760   H     0.65233   0.75445   0.98427   0.00000  Uiso   1.00
H761   H     0.56882   0.67975   0.75702   0.00000  Uiso   1.00
H762   H     0.54250   0.75220   0.85666   0.00000  Uiso   1.00
H763   H     0.61125   0.79737   0.84345   0.00000  Uiso   1.00
H764   H     0.43103   0.98694   0.74346   0.00000  Uiso   1.00
H765   H     0.33756   0.87360   0.78897   0.00000  Uiso   1.00
H766   H     0.66254   0.79326   0.71085   0.00000  Uiso   1.00
H767   H     0.64945   0.84857   0.92324   0.00000  Uiso   1.00
H768   H     0.34244   0.87908   0.50508   0.00000  Uiso   1.00
H769   H     0.45793   0.80690   0.58752   0.00000  Uiso   1.00
H770   H     0.35298   0.77084   0.89306   0.00000  Uiso   1.00
H771   H     0.39033   0.78218   0.54260   0.00000  Uiso   1.00
N772   N     0.64908   0.84741   0.76416   0.00000  Uiso   1.00
N773   N     0.35092   0.81926   0.73584   0.00000  Uiso   1.00
N774   N     0.57933   0.77576   0.87192   0.00000  Uiso   1.00
O775   O     0.46131   0.90474   0.74633   0.00000  Uiso   1.00
O776   O     0.56191   0.91422   0.75587   0.00000  Uiso   1.00
O777   O     0.42515   0.82627   0.81840   0.00000  Uiso   1.00
O778   O     0.52575   0.83575   0.82793   0.00000  Uiso   1.00
O779   O     0.43809   0.75245   0.74414   0.00000  Uiso   1.00
O780   O     0.53869   0.76193   0.75367   0.00000  Uiso   1.00
O781   O     0.47425   0.83092   0.67207   0.00000  Uiso   1.00
O782   O     0.57485   0.84040   0.68161   0.00000  Uiso   1.00
C783   C     0.84836   0.93337   0.75165   0.00000  Uiso   1.00
C784   C     0.78222   0.80292   0.89843   0.00000  Uiso   1.00
C785   C     0.85680   0.98933   0.75256   0.00000  Uiso   1.00
C786   C     0.80014   0.82210   0.84560   0.00000  Uiso   1.00
C787   C     0.80974   0.67735   0.74787   0.00000  Uiso   1.00
C788   C     0.81826   0.73330   0.74848   0.00000  Uiso   1.00
C789   C     0.86633   0.83707   0.65324   0.00000  Uiso   1.00
C790   C     0.96105   0.86371   0.52250   0.00000  Uiso   1.00
C791   C     0.88429   0.84005   0.59809   0.00000  Uiso   1.00
C792   C     0.72008   0.78052   0.91785   0.00000  Uiso   1.00
C793   C     0.70084   0.77120   0.96951   0.00000  Uiso   1.00
C794   C     0.80694   0.80629   0.98388   0.00000  Uiso   1.00
C795   C     0.74278   0.78678   0.50276   0.00000  Uiso   1.00
C796   C     0.82697   0.80714   0.93053   0.00000  Uiso   1.00
C797   C     0.85257   0.82396   0.51538   0.00000  Uiso   1.00
C798   C     0.91565   0.84376   0.99261   0.00000  Uiso   1.00
C799   C     0.93403   0.83806   0.94044   0.00000  Uiso   1.00
C800   C     0.89127   0.81110   0.91155   0.00000  Uiso   1.00
C801   C     0.83807   0.82259   0.56842   0.00000  Uiso   1.00
C802   C     0.94560   0.86125   0.57506   0.00000  Uiso   1.00
Cu803  Cu    0.77377   0.82772   0.74436   0.00000  Uiso   1.00
Cu804  Cu    0.89290   0.83895   0.75565   0.00000  Uiso   1.00
H805   H     0.98148   0.87566   0.59759   0.00000  Uiso   1.00
H806   H     0.98566   0.75445   0.98427   0.00000  Uiso   1.00
H807   H     0.90216   0.67975   0.75702   0.00000  Uiso   1.00
H808   H     0.87583   0.75220   0.85666   0.00000  Uiso   1.00
H809   H     0.94459   0.79737   0.84345   0.00000  Uiso   1.00
H810   H     0.76436   0.98694   0.74346   0.00000  Uiso   1.00
H811   H     0.67089   0.87360   0.78897   0.00000  Uiso   1.00
H812   H     0.99587   0.79326   0.71085   0.00000  Uiso   1.00
H813   H     0.98279   0.84857   0.92324   0.00000  Uiso   1.00
H814   H     0.67578   0.87908   0.50508   0.00000  Uiso   1.00
H815   H     0.79127   0.80690   0.58752   0.00000  Uiso   1.00
H816   H     0.68632   0.77084   0.89306   0.00000  Uiso   1.00
H817   H     0.72366   0.78218   0.54260   0.00000  Uiso   1.00
N818   N     0.98241   0.84741   0.76416   0.00000  Uiso   1.00
N819   N     0.68426   0.81926   0.73584   0.00000  Uiso   1.00
N820   N     0.91266   0.77576   0.87192   0.00000  Uiso   1.00
O821   O     0.79464   0.90474   0.74633   0.00000  Uiso   1.00
O822   O     0.89524   0.91422   0.75587   0.00000  Uiso   1.00
O823   O     0.75848   0.82627   0.81840   0.00000  Uiso   1.00
O824   O     0.85908   0.83575   0.82793   0.00000  Uiso   1.00
O825   O     0.77142   0.75245   0.74414   0.00000  Uiso   1.00
O826   O     0.87203   0.76193   0.75367   0.00000  Uiso   1.00
O827   O     0.80758   0.83092   0.67207   0.00000  Uiso   1.00
O828   O     0.90819   0.84040   0.68161   0.00000  Uiso   1.00
loop_
_geom_bond_atom_site_label_1
_geom_bond_atom_site_label_2
_geom_bond_distance
_geom_bond_site_symmetry_2
_ccdc_geom_bond_type
C1     O39     1.293   .     A
C1     O40     1.286   .     A
C1     C3      1.428   .     S
C2     C4      1.488   .     S
C2     C14     1.426   .     A
C2     C10     1.395   .     A
C3     C143    1.327   .     S
C3     H163    1.088   .     S
C4     O42     1.290   .     A
C4     O41     1.319   .     A
C5     C6      1.427   .     S
C5     C279    1.327   1_545 S
C5     H304    1.088   1_545 S
C6     O44     1.293   .     A
C6     O43     1.286   .     A
C7     O45     1.292   .     A
C7     O46     1.303   .     A
C7     C9      1.460   .     S
C8     C20     1.389   .     A
C8     C430    1.403   1_554 S
C8     H78     1.084   .     S
C9     C20     1.397   .     A
C9     C19     1.404   .     A
C10    H34     1.079   .     S
C10    C11     1.392   .     A
C11    C427    1.395   .     S
C11    H116    1.083   1_455 S
C12    C14     1.416   .     A
C12    C427    1.416   .     S
C12    C429    1.428   .     S
C13    H35     1.077   .     S
C13    C426    1.416   1_554 S
C13    C425    1.395   1_554 S
C14    C18     1.414   .     A
C15    C19     1.399   .     A
C15    C426    1.428   1_554 S
C15    C430    1.421   1_554 S
C16    C17     1.388   .     A
C16    C429    1.421   .     S
C16    C422    1.403   .     S
C17    C18     1.386   .     A
C17    H31     1.081   .     S
C18    N38     1.438   .     S
C19    H33     1.076   .     S
C20    H23     1.083   .     S
Cu21   O39     1.956   .     S
Cu21   Cu22    2.692   .     S
Cu21   O45     1.942   .     S
Cu21   O41     1.953   .     S
Cu21   N37     2.023   .     S
Cu21   O43     1.951   .     S
Cu22   N36     2.023   .     S
Cu22   O40     1.951   .     S
Cu22   O42     1.942   .     S
Cu22   O46     1.953   .     S
Cu22   O44     1.956   .     S
H24    C57     1.083   .     S
H25    C279    1.088   1_545 S
H26    N38     1.045   .     S
H27    N38     1.040   .     S
H28    C143    1.088   .     S
H29    N128    1.029   1_455 S
H30    N83     1.029   .     S
H32    C100    1.084   1_455 S
N36    H75     1.029   .     S
N36    N83     1.297   .     S
N37    N128    1.297   1_455 S
N37    H122    1.029   1_455 S
C47    O85     1.293   .     A
C47    O86     1.286   .     A
C47    C49     1.428   .     S
C48    C50     1.488   .     S
C48    C60     1.426   .     A
C48    C56     1.395   .     A
C49    C189    1.327   .     S
C49    H209    1.088   .     S
C50    O88     1.290   .     A
C50    O87     1.319   .     A
C51    C52     1.427   .     S
C51    C325    1.327   1_545 S
C51    H350    1.088   1_545 S
C52    O90     1.293   .     A
C52    O89     1.286   .     A
C53    O91     1.292   .     A
C53    O92     1.303   .     A
C53    C55     1.460   .     S
C54    C66     1.389   .     A
C54    C476    1.403   1_554 S
C54    H124    1.084   .     S
C55    C66     1.397   .     A
C55    C65     1.404   .     A
C56    H80     1.079   .     S
C56    C57     1.392   .     A
C57    C473    1.395   .     S
C58    C60     1.416   .     A
C58    C473    1.416   .     S
C58    C475    1.428   .     S
C59    H81     1.077   .     S
C59    C472    1.416   1_554 S
C59    C471    1.395   1_554 S
C60    C64     1.414   .     A
C61    C65     1.399   .     A
C61    C472    1.428   1_554 S
C61    C476    1.421   1_554 S
C62    C63     1.388   .     A
C62    C475    1.421   .     S
C62    C468    1.403   .     S
C63    C64     1.386   .     A
C63    H77     1.081   .     S
C64    N84     1.438   .     S
C65    H79     1.076   .     S
C66    H69     1.083   .     S
Cu67   O85     1.956   .     S
Cu67   Cu68    2.692   .     S
Cu67   O91     1.942   .     S
Cu67   O87     1.953   .     S
Cu67   N83     2.023   .     S
Cu67   O89     1.951   .     S
Cu68   N82     2.023   .     S
Cu68   O86     1.951   .     S
Cu68   O88     1.942   .     S
Cu68   O92     1.953   .     S
Cu68   O90     1.956   .     S
H70    C103    1.083   .     S
H71    C325    1.088   1_545 S
H72    N84     1.045   .     S
H73    N84     1.040   .     S
H74    C189    1.088   .     S
H76    N129    1.029   .     S
N82    H121    1.029   .     S
N82    N129    1.297   .     S
C93    O131    1.293   .     A
C93    O132    1.286   .     A
C93    C95     1.428   .     S
C94    C96     1.488   .     S
C94    C106    1.426   .     A
C94    C102    1.395   .     A
C95    C235    1.327   .     S
C95    H255    1.088   .     S
C96    O134    1.290   .     A
C96    O133    1.319   .     A
C97    C98     1.427   .     S
C97    C371    1.327   1_545 S
C97    H396    1.088   1_545 S
C98    O136    1.293   .     A
C98    O135    1.286   .     A
C99    O137    1.292   .     A
C99    O138    1.303   .     A
C99    C101    1.460   .     S
C100   C112    1.389   .     A
C100   C522    1.403   1_554 S
C100   H32     1.084   1_655 S
C101   C112    1.397   .     A
C101   C111    1.404   .     A
C102   H126    1.079   .     S
C102   C103    1.392   .     A
C103   C519    1.395   .     S
C104   C106    1.416   .     A
C104   C519    1.416   .     S
C104   C521    1.428   .     S
C105   H127    1.077   .     S
C105   C518    1.416   1_554 S
C105   C517    1.395   1_554 S
C106   C110    1.414   .     A
C107   C111    1.399   .     A
C107   C518    1.428   1_554 S
C107   C522    1.421   1_554 S
C108   C109    1.388   .     A
C108   C521    1.421   .     S
C108   C514    1.403   .     S
C109   C110    1.386   .     A
C109   H123    1.081   .     S
C110   N130    1.438   .     S
C111   H125    1.076   .     S
C112   H115    1.083   .     S
Cu113  O131    1.956   .     S
Cu113  Cu114   2.692   .     S
Cu113  O137    1.942   .     S
Cu113  O133    1.953   .     S
Cu113  N129    2.023   .     S
Cu113  O135    1.951   .     S
Cu114  N128    2.023   .     S
Cu114  O132    1.951   .     S
Cu114  O134    1.942   .     S
Cu114  O138    1.953   .     S
Cu114  O136    1.956   .     S
H116   C11     1.083   1_655 S
H117   C371    1.088   1_545 S
H118   N130    1.045   .     S
H119   N130    1.040   .     S
H120   C235    1.088   .     S
H122   N37     1.029   1_655 S
N128   H29     1.029   1_655 S
N128   N37     1.297   1_655 S
C139   O177    1.293   .     A
C139   O178    1.286   .     A
C139   C141    1.428   .     S
C140   C142    1.488   .     S
C140   C152    1.426   .     A
C140   C148    1.395   .     A
C141   C281    1.327   .     S
C141   H301    1.088   .     S
C142   O180    1.290   .     A
C142   O179    1.319   .     A
C143   C144    1.427   .     S
C144   O182    1.293   .     A
C144   O181    1.286   .     A
C145   O183    1.292   .     A
C145   O184    1.303   .     A
C145   C147    1.460   .     S
C146   C158    1.389   .     A
C146   C568    1.403   1_554 S
C146   H216    1.084   .     S
C147   C158    1.397   .     A
C147   C157    1.404   .     A
C148   H172    1.079   .     S
C148   C149    1.392   .     A
C149   C565    1.395   .     S
C149   H254    1.083   1_455 S
C150   C152    1.416   .     A
C150   C565    1.416   .     S
C150   C567    1.428   .     S
C151   H173    1.077   .     S
C151   C564    1.416   1_554 S
C151   C563    1.395   1_554 S
C152   C156    1.414   .     A
C153   C157    1.399   .     A
C153   C564    1.428   1_554 S
C153   C568    1.421   1_554 S
C154   C155    1.388   .     A
C154   C567    1.421   .     S
C154   C560    1.403   .     S
C155   C156    1.386   .     A
C155   H169    1.081   .     S
C156   N176    1.438   .     S
C157   H171    1.076   .     S
C158   H161    1.083   .     S
Cu159  O177    1.956   .     S
Cu159  Cu160   2.692   .     S
Cu159  O183    1.942   .     S
Cu159  O179    1.953   .     S
Cu159  N175    2.023   .     S
Cu159  O181    1.951   .     S
Cu160  N174    2.023   .     S
Cu160  O178    1.951   .     S
Cu160  O180    1.942   .     S
Cu160  O184    1.953   .     S
Cu160  O182    1.956   .     S
H162   C195    1.083   .     S
H164   N176    1.045   .     S
H165   N176    1.040   .     S
H166   C281    1.088   .     S
H167   N266    1.029   1_455 S
H168   N221    1.029   .     S
H170   C238    1.084   1_455 S
N174   H213    1.029   .     S
N174   N221    1.297   .     S
N175   N266    1.297   1_455 S
N175   H260    1.029   1_455 S
C185   O223    1.293   .     A
C185   O224    1.286   .     A
C185   C187    1.428   .     S
C186   C188    1.488   .     S
C186   C198    1.426   .     A
C186   C194    1.395   .     A
C187   C327    1.327   .     S
C187   H347    1.088   .     S
C188   O226    1.290   .     A
C188   O225    1.319   .     A
C189   C190    1.427   .     S
C190   O228    1.293   .     A
C190   O227    1.286   .     A
C191   O229    1.292   .     A
C191   O230    1.303   .     A
C191   C193    1.460   .     S
C192   C204    1.389   .     A
C192   C614    1.403   1_554 S
C192   H262    1.084   .     S
C193   C204    1.397   .     A
C193   C203    1.404   .     A
C194   H218    1.079   .     S
C194   C195    1.392   .     A
C195   C611    1.395   .     S
C196   C198    1.416   .     A
C196   C611    1.416   .     S
C196   C613    1.428   .     S
C197   H219    1.077   .     S
C197   C610    1.416   1_554 S
C197   C609    1.395   1_554 S
C198   C202    1.414   .     A
C199   C203    1.399   .     A
C199   C610    1.428   1_554 S
C199   C614    1.421   1_554 S
C200   C201    1.388   .     A
C200   C613    1.421   .     S
C200   C606    1.403   .     S
C201   C202    1.386   .     A
C201   H215    1.081   .     S
C202   N222    1.438   .     S
C203   H217    1.076   .     S
C204   H207    1.083   .     S
Cu205  O223    1.956   .     S
Cu205  Cu206   2.692   .     S
Cu205  O229    1.942   .     S
Cu205  O225    1.953   .     S
Cu205  N221    2.023   .     S
Cu205  O227    1.951   .     S
Cu206  N220    2.023   .     S
Cu206  O224    1.951   .     S
Cu206  O226    1.942   .     S
Cu206  O230    1.953   .     S
Cu206  O228    1.956   .     S
H208   C241    1.083   .     S
H210   N222    1.045   .     S
H211   N222    1.040   .     S
H212   C327    1.088   .     S
H214   N267    1.029   .     S
N220   H259    1.029   .     S
N220   N267    1.297   .     S
C231   O269    1.293   .     A
C231   O270    1.286   .     A
C231   C233    1.428   .     S
C232   C234    1.488   .     S
C232   C244    1.426   .     A
C232   C240    1.395   .     A
C233   C373    1.327   .     S
C233   H393    1.088   .     S
C234   O272    1.290   .     A
C234   O271    1.319   .     A
C235   C236    1.427   .     S
C236   O274    1.293   .     A
C236   O273    1.286   .     A
C237   O275    1.292   .     A
C237   O276    1.303   .     A
C237   C239    1.460   .     S
C238   C250    1.389   .     A
C238   C660    1.403   1_554 S
C238   H170    1.084   1_655 S
C239   C250    1.397   .     A
C239   C249    1.404   .     A
C240   H264    1.079   .     S
C240   C241    1.392   .     A
C241   C657    1.395   .     S
C242   C244    1.416   .     A
C242   C657    1.416   .     S
C242   C659    1.428   .     S
C243   H265    1.077   .     S
C243   C656    1.416   1_554 S
C243   C655    1.395   1_554 S
C244   C248    1.414   .     A
C245   C249    1.399   .     A
C245   C656    1.428   1_554 S
C245   C660    1.421   1_554 S
C246   C247    1.388   .     A
C246   C659    1.421   .     S
C246   C652    1.403   .     S
C247   C248    1.386   .     A
C247   H261    1.081   .     S
C248   N268    1.438   .     S
C249   H263    1.076   .     S
C250   H253    1.083   .     S
Cu251  O269    1.956   .     S
Cu251  Cu252   2.692   .     S
Cu251  O275    1.942   .     S
Cu251  O271    1.953   .     S
Cu251  N267    2.023   .     S
Cu251  O273    1.951   .     S
Cu252  N266    2.023   .     S
Cu252  O270    1.951   .     S
Cu252  O272    1.942   .     S
Cu252  O276    1.953   .     S
Cu252  O274    1.956   .     S
H254   C149    1.083   1_655 S
H256   N268    1.045   .     S
H257   N268    1.040   .     S
H258   C373    1.088   .     S
H260   N175    1.029   1_655 S
N266   H167    1.029   1_655 S
N266   N175    1.297   1_655 S
C277   O315    1.293   .     A
C277   O316    1.286   .     A
C277   C279    1.428   .     S
C278   C280    1.488   .     S
C278   C290    1.426   .     A
C278   C286    1.395   .     A
C279   C5      1.327   1_565 S
C279   H25     1.088   1_565 S
C280   O318    1.290   .     A
C280   O317    1.319   .     A
C281   C282    1.427   .     S
C282   O320    1.293   .     A
C282   O319    1.286   .     A
C283   O321    1.292   .     A
C283   O322    1.303   .     A
C283   C285    1.460   .     S
C284   C296    1.389   .     A
C284   C706    1.403   1_554 S
C284   H354    1.084   .     S
C285   C296    1.397   .     A
C285   C295    1.404   .     A
C286   H310    1.079   .     S
C286   C287    1.392   .     A
C287   C703    1.395   .     S
C287   H392    1.083   1_455 S
C288   C290    1.416   .     A
C288   C703    1.416   .     S
C288   C705    1.428   .     S
C289   H311    1.077   .     S
C289   C702    1.416   1_554 S
C289   C701    1.395   1_554 S
C290   C294    1.414   .     A
C291   C295    1.399   .     A
C291   C702    1.428   1_554 S
C291   C706    1.421   1_554 S
C292   C293    1.388   .     A
C292   C705    1.421   .     S
C292   C698    1.403   .     S
C293   C294    1.386   .     A
C293   H307    1.081   .     S
C294   N314    1.438   .     S
C295   H309    1.076   .     S
C296   H299    1.083   .     S
Cu297  O315    1.956   .     S
Cu297  Cu298   2.692   .     S
Cu297  O321    1.942   .     S
Cu297  O317    1.953   .     S
Cu297  N313    2.023   .     S
Cu297  O319    1.951   .     S
Cu298  N312    2.023   .     S
Cu298  O316    1.951   .     S
Cu298  O318    1.942   .     S
Cu298  O322    1.953   .     S
Cu298  O320    1.956   .     S
H300   C333    1.083   .     S
H302   N314    1.045   .     S
H303   N314    1.040   .     S
H304   C5      1.088   1_565 S
H305   N404    1.029   1_455 S
H306   N359    1.029   .     S
H308   C376    1.084   1_455 S
N312   H351    1.029   .     S
N312   N359    1.297   .     S
N313   N404    1.297   1_455 S
N313   H398    1.029   1_455 S
C323   O361    1.293   .     A
C323   O362    1.286   .     A
C323   C325    1.428   .     S
C324   C326    1.488   .     S
C324   C336    1.426   .     A
C324   C332    1.395   .     A
C325   C51     1.327   1_565 S
C325   H71     1.088   1_565 S
C326   O364    1.290   .     A
C326   O363    1.319   .     A
C327   C328    1.427   .     S
C328   O366    1.293   .     A
C328   O365    1.286   .     A
C329   O367    1.292   .     A
C329   O368    1.303   .     A
C329   C331    1.460   .     S
C330   C342    1.389   .     A
C330   C752    1.403   1_554 S
C330   H400    1.084   .     S
C331   C342    1.397   .     A
C331   C341    1.404   .     A
C332   H356    1.079   .     S
C332   C333    1.392   .     A
C333   C749    1.395   .     S
C334   C336    1.416   .     A
C334   C749    1.416   .     S
C334   C751    1.428   .     S
C335   H357    1.077   .     S
C335   C748    1.416   1_554 S
C335   C747    1.395   1_554 S
C336   C340    1.414   .     A
C337   C341    1.399   .     A
C337   C748    1.428   1_554 S
C337   C752    1.421   1_554 S
C338   C339    1.388   .     A
C338   C751    1.421   .     S
C338   C744    1.403   .     S
C339   C340    1.386   .     A
C339   H353    1.081   .     S
C340   N360    1.438   .     S
C341   H355    1.076   .     S
C342   H345    1.083   .     S
Cu343  O361    1.956   .     S
Cu343  Cu344   2.692   .     S
Cu343  O367    1.942   .     S
Cu343  O363    1.953   .     S
Cu343  N359    2.023   .     S
Cu343  O365    1.951   .     S
Cu344  N358    2.023   .     S
Cu344  O362    1.951   .     S
Cu344  O364    1.942   .     S
Cu344  O368    1.953   .     S
Cu344  O366    1.956   .     S
H346   C379    1.083   .     S
H348   N360    1.045   .     S
H349   N360    1.040   .     S
H350   C51     1.088   1_565 S
H352   N405    1.029   .     S
N358   H397    1.029   .     S
N358   N405    1.297   .     S
C369   O407    1.293   .     A
C369   O408    1.286   .     A
C369   C371    1.428   .     S
C370   C372    1.488   .     S
C370   C382    1.426   .     A
C370   C378    1.395   .     A
C371   C97     1.327   1_565 S
C371   H117    1.088   1_565 S
C372   O410    1.290   .     A
C372   O409    1.319   .     A
C373   C374    1.427   .     S
C374   O412    1.293   .     A
C374   O411    1.286   .     A
C375   O413    1.292   .     A
C375   O414    1.303   .     A
C375   C377    1.460   .     S
C376   C388    1.389   .     A
C376   C798    1.403   1_554 S
C376   H308    1.084   1_655 S
C377   C388    1.397   .     A
C377   C387    1.404   .     A
C378   H402    1.079   .     S
C378   C379    1.392   .     A
C379   C795    1.395   .     S
C380   C382    1.416   .     A
C380   C795    1.416   .     S
C380   C797    1.428   .     S
C381   H403    1.077   .     S
C381   C794    1.416   1_554 S
C381   C793    1.395   1_554 S
C382   C386    1.414   .     A
C383   C387    1.399   .     A
C383   C794    1.428   1_554 S
C383   C798    1.421   1_554 S
C384   C385    1.388   .     A
C384   C797    1.421   .     S
C384   C790    1.403   .     S
C385   C386    1.386   .     A
C385   H399    1.081   .     S
C386   N406    1.438   .     S
C387   H401    1.076   .     S
C388   H391    1.083   .     S
Cu389  O407    1.956   .     S
Cu389  Cu390   2.692   .     S
Cu389  O413    1.942   .     S
Cu389  O409    1.953   .     S
Cu389  N405    2.023   .     S
Cu389  O411    1.951   .     S
Cu390  N404    2.023   .     S
Cu390  O408    1.951   .     S
Cu390  O410    1.942   .     S
Cu390  O414    1.953   .     S
Cu390  O412    1.956   .     S
H392   C287    1.083   1_655 S
H394   N406    1.045   .     S
H395   N406    1.040   .     S
H396   C97     1.088   1_565 S
H398   N313    1.029   1_655 S
N404   H305    1.029   1_655 S
N404   N313    1.297   1_655 S
C415   O453    1.293   .     A
C415   O454    1.286   .     A
C415   C417    1.428   .     S
C416   C418    1.488   .     S
C416   C428    1.426   .     A
C416   C424    1.395   .     A
C417   C557    1.327   .     S
C417   H577    1.088   .     S
C418   O456    1.290   .     A
C418   O455    1.319   .     A
C419   C420    1.427   .     S
C419   C693    1.327   1_545 S
C419   H718    1.088   1_545 S
C420   O458    1.293   .     A
C420   O457    1.286   .     A
C421   O459    1.292   .     A
C421   O460    1.303   .     A
C421   C423    1.460   .     S
C422   C434    1.389   .     A
C422   H492    1.084   .     S
C423   C434    1.397   .     A
C423   C433    1.404   .     A
C424   H448    1.079   .     S
C424   C425    1.392   .     A
C425   C13     1.395   1_556 S
C425   H530    1.083   1_455 S
C426   C428    1.416   .     A
C426   C13     1.416   1_556 S
C426   C15     1.428   1_556 S
C427   H449    1.077   .     S
C428   C432    1.414   .     A
C429   C433    1.399   .     A
C430   C431    1.388   .     A
C430   C15     1.421   1_556 S
C430   C8      1.403   1_556 S
C431   C432    1.386   .     A
C431   H445    1.081   .     S
C432   N452    1.438   .     S
C433   H447    1.076   .     S
C434   H437    1.083   .     S
Cu435  O453    1.956   .     S
Cu435  Cu436   2.692   .     S
Cu435  O459    1.942   .     S
Cu435  O455    1.953   .     S
Cu435  N451    2.023   .     S
Cu435  O457    1.951   .     S
Cu436  N450    2.023   .     S
Cu436  O454    1.951   .     S
Cu436  O456    1.942   .     S
Cu436  O460    1.953   .     S
Cu436  O458    1.956   .     S
H438   C471    1.083   .     S
H439   C693    1.088   1_545 S
H440   N452    1.045   .     S
H441   N452    1.040   .     S
H442   C557    1.088   .     S
H443   N542    1.029   1_455 S
H444   N497    1.029   .     S
H446   C514    1.084   1_455 S
N450   H489    1.029   .     S
N450   N497    1.297   .     S
N451   N542    1.297   1_455 S
N451   H536    1.029   1_455 S
C461   O499    1.293   .     A
C461   O500    1.286   .     A
C461   C463    1.428   .     S
C462   C464    1.488   .     S
C462   C474    1.426   .     A
C462   C470    1.395   .     A
C463   C603    1.327   .     S
C463   H623    1.088   .     S
C464   O502    1.290   .     A
C464   O501    1.319   .     A
C465   C466    1.427   .     S
C465   C739    1.327   1_545 S
C465   H764    1.088   1_545 S
C466   O504    1.293   .     A
C466   O503    1.286   .     A
C467   O505    1.292   .     A
C467   O506    1.303   .     A
C467   C469    1.460   .     S
C468   C480    1.389   .     A
C468   H538    1.084   .     S
C469   C480    1.397   .     A
C469   C479    1.404   .     A
C470   H494    1.079   .     S
C470   C471    1.392   .     A
C471   C59     1.395   1_556 S
C472   C474    1.416   .     A
C472   C59     1.416   1_556 S
C472   C61     1.428   1_556 S
C473   H495    1.077   .     S
C474   C478    1.414   .     A
C475   C479    1.399   .     A
C476   C477    1.388   .     A
C476   C61     1.421   1_556 S
C476   C54     1.403   1_556 S
C477   C478    1.386   .     A
C477   H491    1.081   .     S
C478   N498    1.438   .     S
C479   H493    1.076   .     S
C480   H483    1.083   .     S
Cu481  O499    1.956   .     S
Cu481  Cu482   2.692   .     S
Cu481  O505    1.942   .     S
Cu481  O501    1.953   .     S
Cu481  N497    2.023   .     S
Cu481  O503    1.951   .     S
Cu482  N496    2.023   .     S
Cu482  O500    1.951   .     S
Cu482  O502    1.942   .     S
Cu482  O506    1.953   .     S
Cu482  O504    1.956   .     S
H484   C517    1.083   .     S
H485   C739    1.088   1_545 S
H486   N498    1.045   .     S
H487   N498    1.040   .     S
H488   C603    1.088   .     S
H490   N543    1.029   .     S
N496   H535    1.029   .     S
N496   N543    1.297   .     S
C507   O545    1.293   .     A
C507   O546    1.286   .     A
C507   C509    1.428   .     S
C508   C510    1.488   .     S
C508   C520    1.426   .     A
C508   C516    1.395   .     A
C509   C649    1.327   .     S
C509   H669    1.088   .     S
C510   O548    1.290   .     A
C510   O547    1.319   .     A
C511   C512    1.427   .     S
C511   C785    1.327   1_545 S
C511   H810    1.088   1_545 S
C512   O550    1.293   .     A
C512   O549    1.286   .     A
C513   O551    1.292   .     A
C513   O552    1.303   .     A
C513   C515    1.460   .     S
C514   C526    1.389   .     A
C514   H446    1.084   1_655 S
C515   C526    1.397   .     A
C515   C525    1.404   .     A
C516   H540    1.079   .     S
C516   C517    1.392   .     A
C517   C105    1.395   1_556 S
C518   C520    1.416   .     A
C518   C105    1.416   1_556 S
C518   C107    1.428   1_556 S
C519   H541    1.077   .     S
C520   C524    1.414   .     A
C521   C525    1.399   .     A
C522   C523    1.388   .     A
C522   C107    1.421   1_556 S
C522   C100    1.403   1_556 S
C523   C524    1.386   .     A
C523   H537    1.081   .     S
C524   N544    1.438   .     S
C525   H539    1.076   .     S
C526   H529    1.083   .     S
Cu527  O545    1.956   .     S
Cu527  Cu528   2.692   .     S
Cu527  O551    1.942   .     S
Cu527  O547    1.953   .     S
Cu527  N543    2.023   .     S
Cu527  O549    1.951   .     S
Cu528  N542    2.023   .     S
Cu528  O546    1.951   .     S
Cu528  O548    1.942   .     S
Cu528  O552    1.953   .     S
Cu528  O550    1.956   .     S
H530   C425    1.083   1_655 S
H531   C785    1.088   1_545 S
H532   N544    1.045   .     S
H533   N544    1.040   .     S
H534   C649    1.088   .     S
H536   N451    1.029   1_655 S
N542   H443    1.029   1_655 S
N542   N451    1.297   1_655 S
C553   O591    1.293   .     A
C553   O592    1.286   .     A
C553   C555    1.428   .     S
C554   C556    1.488   .     S
C554   C566    1.426   .     A
C554   C562    1.395   .     A
C555   C695    1.327   .     S
C555   H715    1.088   .     S
C556   O594    1.290   .     A
C556   O593    1.319   .     A
C557   C558    1.427   .     S
C558   O596    1.293   .     A
C558   O595    1.286   .     A
C559   O597    1.292   .     A
C559   O598    1.303   .     A
C559   C561    1.460   .     S
C560   C572    1.389   .     A
C560   H630    1.084   .     S
C561   C572    1.397   .     A
C561   C571    1.404   .     A
C562   H586    1.079   .     S
C562   C563    1.392   .     A
C563   C151    1.395   1_556 S
C563   H668    1.083   1_455 S
C564   C566    1.416   .     A
C564   C151    1.416   1_556 S
C564   C153    1.428   1_556 S
C565   H587    1.077   .     S
C566   C570    1.414   .     A
C567   C571    1.399   .     A
C568   C569    1.388   .     A
C568   C153    1.421   1_556 S
C568   C146    1.403   1_556 S
C569   C570    1.386   .     A
C569   H583    1.081   .     S
C570   N590    1.438   .     S
C571   H585    1.076   .     S
C572   H575    1.083   .     S
Cu573  O591    1.956   .     S
Cu573  Cu574   2.692   .     S
Cu573  O597    1.942   .     S
Cu573  O593    1.953   .     S
Cu573  N589    2.023   .     S
Cu573  O595    1.951   .     S
Cu574  N588    2.023   .     S
Cu574  O592    1.951   .     S
Cu574  O594    1.942   .     S
Cu574  O598    1.953   .     S
Cu574  O596    1.956   .     S
H576   C609    1.083   .     S
H578   N590    1.045   .     S
H579   N590    1.040   .     S
H580   C695    1.088   .     S
H581   N680    1.029   1_455 S
H582   N635    1.029   .     S
H584   C652    1.084   1_455 S
N588   H627    1.029   .     S
N588   N635    1.297   .     S
N589   N680    1.297   1_455 S
N589   H674    1.029   1_455 S
C599   O637    1.293   .     A
C599   O638    1.286   .     A
C599   C601    1.428   .     S
C600   C602    1.488   .     S
C600   C612    1.426   .     A
C600   C608    1.395   .     A
C601   C741    1.327   .     S
C601   H761    1.088   .     S
C602   O640    1.290   .     A
C602   O639    1.319   .     A
C603   C604    1.427   .     S
C604   O642    1.293   .     A
C604   O641    1.286   .     A
C605   O643    1.292   .     A
C605   O644    1.303   .     A
C605   C607    1.460   .     S
C606   C618    1.389   .     A
C606   H676    1.084   .     S
C607   C618    1.397   .     A
C607   C617    1.404   .     A
C608   H632    1.079   .     S
C608   C609    1.392   .     A
C609   C197    1.395   1_556 S
C610   C612    1.416   .     A
C610   C197    1.416   1_556 S
C610   C199    1.428   1_556 S
C611   H633    1.077   .     S
C612   C616    1.414   .     A
C613   C617    1.399   .     A
C614   C615    1.388   .     A
C614   C199    1.421   1_556 S
C614   C192    1.403   1_556 S
C615   C616    1.386   .     A
C615   H629    1.081   .     S
C616   N636    1.438   .     S
C617   H631    1.076   .     S
C618   H621    1.083   .     S
Cu619  O637    1.956   .     S
Cu619  Cu620   2.692   .     S
Cu619  O643    1.942   .     S
Cu619  O639    1.953   .     S
Cu619  N635    2.023   .     S
Cu619  O641    1.951   .     S
Cu620  N634    2.023   .     S
Cu620  O638    1.951   .     S
Cu620  O640    1.942   .     S
Cu620  O644    1.953   .     S
Cu620  O642    1.956   .     S
H622   C655    1.083   .     S
H624   N636    1.045   .     S
H625   N636    1.040   .     S
H626   C741    1.088   .     S
H628   N681    1.029   .     S
N634   H673    1.029   .     S
N634   N681    1.297   .     S
C645   O683    1.293   .     A
C645   O684    1.286   .     A
C645   C647    1.428   .     S
C646   C648    1.488   .     S
C646   C658    1.426   .     A
C646   C654    1.395   .     A
C647   C787    1.327   .     S
C647   H807    1.088   .     S
C648   O686    1.290   .     A
C648   O685    1.319   .     A
C649   C650    1.427   .     S
C650   O688    1.293   .     A
C650   O687    1.286   .     A
C651   O689    1.292   .     A
C651   O690    1.303   .     A
C651   C653    1.460   .     S
C652   C664    1.389   .     A
C652   H584    1.084   1_655 S
C653   C664    1.397   .     A
C653   C663    1.404   .     A
C654   H678    1.079   .     S
C654   C655    1.392   .     A
C655   C243    1.395   1_556 S
C656   C658    1.416   .     A
C656   C243    1.416   1_556 S
C656   C245    1.428   1_556 S
C657   H679    1.077   .     S
C658   C662    1.414   .     A
C659   C663    1.399   .     A
C660   C661    1.388   .     A
C660   C245    1.421   1_556 S
C660   C238    1.403   1_556 S
C661   C662    1.386   .     A
C661   H675    1.081   .     S
C662   N682    1.438   .     S
C663   H677    1.076   .     S
C664   H667    1.083   .     S
Cu665  O683    1.956   .     S
Cu665  Cu666   2.692   .     S
Cu665  O689    1.942   .     S
Cu665  O685    1.953   .     S
Cu665  N681    2.023   .     S
Cu665  O687    1.951   .     S
Cu666  N680    2.023   .     S
Cu666  O684    1.951   .     S
Cu666  O686    1.942   .     S
Cu666  O690    1.953   .     S
Cu666  O688    1.956   .     S
H668   C563    1.083   1_655 S
H670   N682    1.045   .     S
H671   N682    1.040   .     S
H672   C787    1.088   .     S
H674   N589    1.029   1_655 S
N680   H581    1.029   1_655 S
N680   N589    1.297   1_655 S
C691   O729    1.293   .     A
C691   O730    1.286   .     A
C691   C693    1.428   .     S
C692   C694    1.488   .     S
C692   C704    1.426   .     A
C692   C700    1.395   .     A
C693   C419    1.327   1_565 S
C693   H439    1.088   1_565 S
C694   O732    1.290   .     A
C694   O731    1.319   .     A
C695   C696    1.427   .     S
C696   O734    1.293   .     A
C696   O733    1.286   .     A
C697   O735    1.292   .     A
C697   O736    1.303   .     A
C697   C699    1.460   .     S
C698   C710    1.389   .     A
C698   H768    1.084   .     S
C699   C710    1.397   .     A
C699   C709    1.404   .     A
C700   H724    1.079   .     S
C700   C701    1.392   .     A
C701   C289    1.395   1_556 S
C701   H806    1.083   1_455 S
C702   C704    1.416   .     A
C702   C289    1.416   1_556 S
C702   C291    1.428   1_556 S
C703   H725    1.077   .     S
C704   C708    1.414   .     A
C705   C709    1.399   .     A
C706   C707    1.388   .     A
C706   C291    1.421   1_556 S
C706   C284    1.403   1_556 S
C707   C708    1.386   .     A
C707   H721    1.081   .     S
C708   N728    1.438   .     S
C709   H723    1.076   .     S
C710   H713    1.083   .     S
Cu711  O729    1.956   .     S
Cu711  Cu712   2.692   .     S
Cu711  O735    1.942   .     S
Cu711  O731    1.953   .     S
Cu711  N727    2.023   .     S
Cu711  O733    1.951   .     S
Cu712  N726    2.023   .     S
Cu712  O730    1.951   .     S
Cu712  O732    1.942   .     S
Cu712  O736    1.953   .     S
Cu712  O734    1.956   .     S
H714   C747    1.083   .     S
H716   N728    1.045   .     S
H717   N728    1.040   .     S
H718   C419    1.088   1_565 S
H719   N818    1.029   1_455 S
H720   N773    1.029   .     S
H722   C790    1.084   1_455 S
N726   H765    1.029   .     S
N726   N773    1.297   .     S
N727   N818    1.297   1_455 S
N727   H812    1.029   1_455 S
C737   O775    1.293   .     A
C737   O776    1.286   .     A
C737   C739    1.428   .     S
C738   C740    1.488   .     S
C738   C750    1.426   .     A
C738   C746    1.395   .     A
C739   C465    1.327   1_565 S
C739   H485    1.088   1_565 S
C740   O778    1.290   .     A
C740   O777    1.319   .     A
C741   C742    1.427   .     S
C742   O780    1.293   .     A
C742   O779    1.286   .     A
C743   O781    1.292   .     A
C743   O782    1.303   .     A
C743   C745    1.460   .     S
C744   C756    1.389   .     A
C744   H814    1.084   .     S
C745   C756    1.397   .     A
C745   C755    1.404   .     A
C746   H770    1.079   .     S
C746   C747    1.392   .     A
C747   C335    1.395   1_556 S
C748   C750    1.416   .     A
C748   C335    1.416   1_556 S
C748   C337    1.428   1_556 S
C749   H771    1.077   .     S
C750   C754    1.414   .     A
C751   C755    1.399   .     A
C752   C753    1.388   .     A
C752   C337    1.421   1_556 S
C752   C330    1.403   1_556 S
C753   C754    1.386   .     A
C753   H767    1.081   .     S
C754   N774    1.438   .     S
C755   H769    1.076   .     S
C756   H759    1.083   .     S
Cu757  O775    1.956   .     S
Cu757  Cu758   2.692   .     S
Cu757  O781    1.942   .     S
Cu757  O777    1.953   .     S
Cu757  N773    2.023   .     S
Cu757  O779    1.951   .     S
Cu758  N772    2.023   .     S
Cu758  O776    1.951   .     S
Cu758  O778    1.942   .     S
Cu758  O782    1.953   .     S
Cu758  O780    1.956   .     S
H760   C793    1.083   .     S
H762   N774    1.045   .     S
H763   N774    1.040   .     S
H764   C465    1.088   1_565 S
H766   N819    1.029   .     S
N772   H811    1.029   .     S
N772   N819    1.297   .     S
C783   O821    1.293   .     A
C783   O822    1.286   .     A
C783   C785    1.428   .     S
C784   C786    1.488   .     S
C784   C796    1.426   .     A
C784   C792    1.395   .     A
C785   C511    1.327   1_565 S
C785   H531    1.088   1_565 S
C786   O824    1.290   .     A
C786   O823    1.319   .     A
C787   C788    1.427   .     S
C788   O826    1.293   .     A
C788   O825    1.286   .     A
C789   O827    1.292   .     A
C789   O828    1.303   .     A
C789   C791    1.460   .     S
C790   C802    1.389   .     A
C790   H722    1.084   1_655 S
C791   C802    1.397   .     A
C791   C801    1.404   .     A
C792   H816    1.079   .     S
C792   C793    1.392   .     A
C793   C381    1.395   1_556 S
C794   C796    1.416   .     A
C794   C381    1.416   1_556 S
C794   C383    1.428   1_556 S
C795   H817    1.077   .     S
C796   C800    1.414   .     A
C797   C801    1.399   .     A
C798   C799    1.388   .     A
C798   C383    1.421   1_556 S
C798   C376    1.403   1_556 S
C799   C800    1.386   .     A
C799   H813    1.081   .     S
C800   N820    1.438   .     S
C801   H815    1.076   .     S
C802   H805    1.083   .     S
Cu803  O821    1.956   .     S
Cu803  Cu804   2.692   .     S
Cu803  O827    1.942   .     S
Cu803  O823    1.953   .     S
Cu803  N819    2.023   .     S
Cu803  O825    1.951   .     S
Cu804  N818    2.023   .     S
Cu804  O822    1.951   .     S
Cu804  O824    1.942   .     S
Cu804  O828    1.953   .     S
Cu804  O826    1.956   .     S
H806   C701    1.083   1_655 S
H808   N820    1.045   .     S
H809   N820    1.040   .     S
H810   C511    1.088   1_565 S
H812   N727    1.029   1_655 S
N818   H719    1.029   1_655 S
N818   N727    1.297   1_655 S
