data_str_m3_o10_o16_pcu_sym.87
_audit_creation_date              2020-01-03
_audit_creation_method            'Materials Studio'
_symmetry_space_group_name_H-M    'P1'
_symmetry_Int_Tables_number       1
_symmetry_cell_setting            triclinic
loop_
_symmetry_equiv_pos_as_xyz
  x,y,z
_cell_length_a                    23.8649
_cell_length_b                    26.1030
_cell_length_c                    24.2167
_cell_angle_alpha                 95.0690
_cell_angle_beta                  101.2858
_cell_angle_gamma                 95.0988
loop_
_atom_site_label
_atom_site_type_symbol
_atom_site_fract_x
_atom_site_fract_y
_atom_site_fract_z
_atom_site_U_iso_or_equiv
_atom_site_adp_type
_atom_site_occupancy
C1     C     0.01425   0.26459   0.24720   0.00000  Uiso   1.00
C2     C     0.05596   0.17416   0.41635   0.00000  Uiso   1.00
C3     C     0.02004   0.31941   0.24589   0.00000  Uiso   1.00
C4     C     0.03537   0.16842   0.35506   0.00000  Uiso   1.00
C5     C     0.30611   0.01249   0.23750   0.00000  Uiso   1.00
C6     C     0.31703   0.06821   0.24733   0.00000  Uiso   1.00
C7     C     0.29779   0.16380   0.14482   0.00000  Uiso   1.00
C8     C     0.27771   0.11690   0.49127   0.00000  Uiso   1.00
C9     C     0.27851   0.16011   0.08358   0.00000  Uiso   1.00
C10    C     0.03283   0.21019   0.44914   0.00000  Uiso   1.00
C11    C     0.06760   0.23763   0.49718   0.00000  Uiso   1.00
C12    C     0.14536   0.18491   0.48642   0.00000  Uiso   1.00
C13    C     0.12563   0.22961   0.01222   0.00000  Uiso   1.00
C14    C     0.24488   0.31823   0.21579   0.00000  Uiso   1.00
C15    C     0.19951   0.01591   0.18961   0.00000  Uiso   1.00
C16    C     0.14996   0.12944   0.18014   0.00000  Uiso   1.00
C17    C     0.10476   0.08350   0.15558   0.00000  Uiso   1.00
C18    C     0.18197   0.20636   0.31667   0.00000  Uiso   1.00
C19    C     0.20437   0.06682   0.38122   0.00000  Uiso   1.00
C20    C     0.16420   0.27385   0.04618   0.00000  Uiso   1.00
C21    C     0.10931   0.15692   0.43822   0.00000  Uiso   1.00
C22    C     0.19918   0.16694   0.00617   0.00000  Uiso   1.00
C23    C     0.22204   0.13060   0.47140   0.00000  Uiso   1.00
C24    C     0.18613   0.10526   0.42131   0.00000  Uiso   1.00
C25    C     0.12878   0.11485   0.40937   0.00000  Uiso   1.00
C26    C     0.22677   0.17876   0.06264   0.00000  Uiso   1.00
C27    C     0.30631   0.13283   0.04667   0.00000  Uiso   1.00
H28    H     0.01437   0.11986   0.06131   0.00000  Uiso   1.00
H29    H     0.16033   0.32271   0.16993   0.00000  Uiso   1.00
H30    H     0.24598   0.28703   0.18162   0.00000  Uiso   1.00
H31    H     0.22884   0.30200   0.25149   0.00000  Uiso   1.00
H32    H     0.09960   0.05672   0.18749   0.00000  Uiso   1.00
H33    H     0.06257   0.09412   0.13777   0.00000  Uiso   1.00
H34    H     0.11813   0.06210   0.11946   0.00000  Uiso   1.00
H35    H     0.14757   0.15929   0.15009   0.00000  Uiso   1.00
H36    H     0.19015   0.11255   0.18442   0.00000  Uiso   1.00
H37    H     0.20315   0.19355   0.35606   0.00000  Uiso   1.00
H38    H     0.17314   0.03602   0.35731   0.00000  Uiso   1.00
H39    H     0.29830   0.09096   0.46652   0.00000  Uiso   1.00
H40    H     0.14697   0.30114   0.07300   0.00000  Uiso   1.00
H41    H     0.20562   0.19915   0.09205   0.00000  Uiso   1.00
H42    H     0.32428   0.22244   0.43354   0.00000  Uiso   1.00
H43    H     0.05117   0.26984   0.01797   0.00000  Uiso   1.00
H44    H     0.09984   0.09124   0.37443   0.00000  Uiso   1.00
H45    H     0.06373   0.00510   0.25720   0.00000  Uiso   1.00
H46    H     0.18828   0.04087   0.22430   0.00000  Uiso   1.00
H47    H     0.21460   0.03703   0.15647   0.00000  Uiso   1.00
N48    N     0.14493   0.15223   0.23542   0.00000  Uiso   1.00
N49    N     0.18840   0.18110   0.26457   0.00000  Uiso   1.00
O50    O     0.29769   0.24629   0.25357   0.00000  Uiso   1.00
O51    O     0.25269   0.07087   0.37138   0.00000  Uiso   1.00
O52    O     0.21404   0.28255   0.04135   0.00000  Uiso   1.00
O53    O     0.05742   0.23704   0.24423   0.00000  Uiso   1.00
O54    O     0.31490   0.17358   0.33380   0.00000  Uiso   1.00
O55    O     0.07463   0.16433   0.32446   0.00000  Uiso   1.00
O56    O     0.27592   0.09629   0.25576   0.00000  Uiso   1.00
O57    O     0.03565   0.08704   0.24642   0.00000  Uiso   1.00
O58    O     0.25870   0.16901   0.17554   0.00000  Uiso   1.00
O59    O     0.01843   0.15976   0.16620   0.00000  Uiso   1.00
O60    O     0.15714   0.24517   0.31787   0.00000  Uiso   1.00
Zn61   Zn    0.27119   0.17284   0.25623   0.00000  Uiso   1.00
Zn62   Zn    0.06214   0.16049   0.24376   0.00000  Uiso   1.00
C63    C     0.34759   0.26459   0.24720   0.00000  Uiso   1.00
C64    C     0.38929   0.17416   0.41635   0.00000  Uiso   1.00
C65    C     0.35338   0.31941   0.24589   0.00000  Uiso   1.00
C66    C     0.36871   0.16842   0.35506   0.00000  Uiso   1.00
C67    C     0.63945   0.01249   0.23750   0.00000  Uiso   1.00
C68    C     0.65036   0.06821   0.24733   0.00000  Uiso   1.00
C69    C     0.63113   0.16380   0.14482   0.00000  Uiso   1.00
C70    C     0.61105   0.11690   0.49127   0.00000  Uiso   1.00
C71    C     0.61184   0.16011   0.08358   0.00000  Uiso   1.00
C72    C     0.36616   0.21019   0.44914   0.00000  Uiso   1.00
C73    C     0.40094   0.23763   0.49718   0.00000  Uiso   1.00
C74    C     0.47869   0.18491   0.48642   0.00000  Uiso   1.00
C75    C     0.45896   0.22961   0.01222   0.00000  Uiso   1.00
C76    C     0.57822   0.31823   0.21579   0.00000  Uiso   1.00
C77    C     0.53284   0.01591   0.18961   0.00000  Uiso   1.00
C78    C     0.48330   0.12944   0.18014   0.00000  Uiso   1.00
C79    C     0.43809   0.08350   0.15558   0.00000  Uiso   1.00
C80    C     0.51531   0.20636   0.31667   0.00000  Uiso   1.00
C81    C     0.53770   0.06682   0.38122   0.00000  Uiso   1.00
C82    C     0.49753   0.27385   0.04618   0.00000  Uiso   1.00
C83    C     0.44264   0.15692   0.43822   0.00000  Uiso   1.00
C84    C     0.53252   0.16694   0.00617   0.00000  Uiso   1.00
C85    C     0.55538   0.13060   0.47140   0.00000  Uiso   1.00
C86    C     0.51947   0.10526   0.42131   0.00000  Uiso   1.00
C87    C     0.46212   0.11485   0.40937   0.00000  Uiso   1.00
C88    C     0.56010   0.17876   0.06264   0.00000  Uiso   1.00
C89    C     0.63965   0.13283   0.04667   0.00000  Uiso   1.00
H90    H     0.34771   0.11986   0.06131   0.00000  Uiso   1.00
H91    H     0.49366   0.32271   0.16993   0.00000  Uiso   1.00
H92    H     0.57931   0.28703   0.18162   0.00000  Uiso   1.00
H93    H     0.56217   0.30200   0.25149   0.00000  Uiso   1.00
H94    H     0.43293   0.05672   0.18749   0.00000  Uiso   1.00
H95    H     0.39591   0.09412   0.13777   0.00000  Uiso   1.00
H96    H     0.45146   0.06210   0.11946   0.00000  Uiso   1.00
H97    H     0.48090   0.15929   0.15009   0.00000  Uiso   1.00
H98    H     0.52349   0.11255   0.18442   0.00000  Uiso   1.00
H99    H     0.53649   0.19355   0.35606   0.00000  Uiso   1.00
H100   H     0.50647   0.03602   0.35731   0.00000  Uiso   1.00
H101   H     0.63164   0.09096   0.46652   0.00000  Uiso   1.00
H102   H     0.48031   0.30114   0.07300   0.00000  Uiso   1.00
H103   H     0.53895   0.19915   0.09205   0.00000  Uiso   1.00
H104   H     0.65762   0.22244   0.43354   0.00000  Uiso   1.00
H105   H     0.38450   0.26984   0.01797   0.00000  Uiso   1.00
H106   H     0.43317   0.09124   0.37443   0.00000  Uiso   1.00
H107   H     0.39707   0.00510   0.25720   0.00000  Uiso   1.00
H108   H     0.52161   0.04087   0.22430   0.00000  Uiso   1.00
H109   H     0.54793   0.03703   0.15647   0.00000  Uiso   1.00
N110   N     0.47827   0.15223   0.23542   0.00000  Uiso   1.00
N111   N     0.52173   0.18110   0.26457   0.00000  Uiso   1.00
O112   O     0.63102   0.24629   0.25357   0.00000  Uiso   1.00
O113   O     0.58603   0.07087   0.37138   0.00000  Uiso   1.00
O114   O     0.54737   0.28255   0.04135   0.00000  Uiso   1.00
O115   O     0.39075   0.23704   0.24423   0.00000  Uiso   1.00
O116   O     0.64823   0.17358   0.33380   0.00000  Uiso   1.00
O117   O     0.40796   0.16433   0.32446   0.00000  Uiso   1.00
O118   O     0.60925   0.09629   0.25576   0.00000  Uiso   1.00
O119   O     0.36898   0.08704   0.24642   0.00000  Uiso   1.00
O120   O     0.59204   0.16901   0.17554   0.00000  Uiso   1.00
O121   O     0.35177   0.15976   0.16620   0.00000  Uiso   1.00
O122   O     0.49048   0.24517   0.31787   0.00000  Uiso   1.00
Zn123  Zn    0.60453   0.17284   0.25623   0.00000  Uiso   1.00
Zn124  Zn    0.39547   0.16049   0.24376   0.00000  Uiso   1.00
C125   C     0.68092   0.26459   0.24720   0.00000  Uiso   1.00
C126   C     0.72262   0.17416   0.41635   0.00000  Uiso   1.00
C127   C     0.68671   0.31941   0.24589   0.00000  Uiso   1.00
C128   C     0.70204   0.16842   0.35506   0.00000  Uiso   1.00
C129   C     0.97278   0.01249   0.23750   0.00000  Uiso   1.00
C130   C     0.98369   0.06821   0.24733   0.00000  Uiso   1.00
C131   C     0.96446   0.16380   0.14482   0.00000  Uiso   1.00
C132   C     0.94438   0.11690   0.49127   0.00000  Uiso   1.00
C133   C     0.94518   0.16011   0.08358   0.00000  Uiso   1.00
C134   C     0.69950   0.21019   0.44914   0.00000  Uiso   1.00
C135   C     0.73427   0.23763   0.49718   0.00000  Uiso   1.00
C136   C     0.81202   0.18491   0.48642   0.00000  Uiso   1.00
C137   C     0.79230   0.22961   0.01222   0.00000  Uiso   1.00
C138   C     0.91155   0.31823   0.21579   0.00000  Uiso   1.00
C139   C     0.86617   0.01591   0.18961   0.00000  Uiso   1.00
C140   C     0.81663   0.12944   0.18014   0.00000  Uiso   1.00
C141   C     0.77142   0.08350   0.15558   0.00000  Uiso   1.00
C142   C     0.84864   0.20636   0.31667   0.00000  Uiso   1.00
C143   C     0.87104   0.06682   0.38122   0.00000  Uiso   1.00
C144   C     0.83086   0.27385   0.04618   0.00000  Uiso   1.00
C145   C     0.77598   0.15692   0.43822   0.00000  Uiso   1.00
C146   C     0.86585   0.16694   0.00617   0.00000  Uiso   1.00
C147   C     0.88871   0.13060   0.47140   0.00000  Uiso   1.00
C148   C     0.85280   0.10526   0.42131   0.00000  Uiso   1.00
C149   C     0.79545   0.11485   0.40937   0.00000  Uiso   1.00
C150   C     0.89343   0.17876   0.06264   0.00000  Uiso   1.00
C151   C     0.97298   0.13283   0.04667   0.00000  Uiso   1.00
H152   H     0.68104   0.11986   0.06131   0.00000  Uiso   1.00
H153   H     0.82700   0.32271   0.16993   0.00000  Uiso   1.00
H154   H     0.91265   0.28703   0.18162   0.00000  Uiso   1.00
H155   H     0.89550   0.30200   0.25149   0.00000  Uiso   1.00
H156   H     0.76626   0.05672   0.18749   0.00000  Uiso   1.00
H157   H     0.72924   0.09412   0.13777   0.00000  Uiso   1.00
H158   H     0.78479   0.06210   0.11946   0.00000  Uiso   1.00
H159   H     0.81424   0.15929   0.15009   0.00000  Uiso   1.00
H160   H     0.85682   0.11255   0.18442   0.00000  Uiso   1.00
H161   H     0.86982   0.19355   0.35606   0.00000  Uiso   1.00
H162   H     0.83981   0.03602   0.35731   0.00000  Uiso   1.00
H163   H     0.96497   0.09096   0.46652   0.00000  Uiso   1.00
H164   H     0.81364   0.30114   0.07300   0.00000  Uiso   1.00
H165   H     0.87229   0.19915   0.09205   0.00000  Uiso   1.00
H166   H     0.99095   0.22244   0.43354   0.00000  Uiso   1.00
H167   H     0.71784   0.26984   0.01797   0.00000  Uiso   1.00
H168   H     0.76650   0.09124   0.37443   0.00000  Uiso   1.00
H169   H     0.73040   0.00510   0.25720   0.00000  Uiso   1.00
H170   H     0.85494   0.04087   0.22430   0.00000  Uiso   1.00
H171   H     0.88127   0.03703   0.15647   0.00000  Uiso   1.00
N172   N     0.81160   0.15223   0.23542   0.00000  Uiso   1.00
N173   N     0.85507   0.18110   0.26457   0.00000  Uiso   1.00
O174   O     0.96435   0.24629   0.25357   0.00000  Uiso   1.00
O175   O     0.91936   0.07087   0.37138   0.00000  Uiso   1.00
O176   O     0.88070   0.28255   0.04135   0.00000  Uiso   1.00
O177   O     0.72408   0.23704   0.24423   0.00000  Uiso   1.00
O178   O     0.98157   0.17358   0.33380   0.00000  Uiso   1.00
O179   O     0.74130   0.16433   0.32446   0.00000  Uiso   1.00
O180   O     0.94258   0.09629   0.25576   0.00000  Uiso   1.00
O181   O     0.70231   0.08704   0.24642   0.00000  Uiso   1.00
O182   O     0.92537   0.16901   0.17554   0.00000  Uiso   1.00
O183   O     0.68510   0.15976   0.16620   0.00000  Uiso   1.00
O184   O     0.82381   0.24517   0.31787   0.00000  Uiso   1.00
Zn185  Zn    0.93786   0.17284   0.25623   0.00000  Uiso   1.00
Zn186  Zn    0.72881   0.16049   0.24376   0.00000  Uiso   1.00
C187   C     0.01425   0.59792   0.24720   0.00000  Uiso   1.00
C188   C     0.05596   0.50750   0.41635   0.00000  Uiso   1.00
C189   C     0.02004   0.65274   0.24589   0.00000  Uiso   1.00
C190   C     0.03537   0.50176   0.35506   0.00000  Uiso   1.00
C191   C     0.30611   0.34582   0.23750   0.00000  Uiso   1.00
C192   C     0.31703   0.40154   0.24733   0.00000  Uiso   1.00
C193   C     0.29779   0.49713   0.14482   0.00000  Uiso   1.00
C194   C     0.27771   0.45023   0.49127   0.00000  Uiso   1.00
C195   C     0.27851   0.49345   0.08358   0.00000  Uiso   1.00
C196   C     0.03283   0.54352   0.44914   0.00000  Uiso   1.00
C197   C     0.06760   0.57096   0.49718   0.00000  Uiso   1.00
C198   C     0.14536   0.51825   0.48642   0.00000  Uiso   1.00
C199   C     0.12563   0.56295   0.01222   0.00000  Uiso   1.00
C200   C     0.24488   0.65156   0.21579   0.00000  Uiso   1.00
C201   C     0.19951   0.34924   0.18961   0.00000  Uiso   1.00
C202   C     0.14996   0.46278   0.18014   0.00000  Uiso   1.00
C203   C     0.10476   0.41684   0.15558   0.00000  Uiso   1.00
C204   C     0.18197   0.53970   0.31667   0.00000  Uiso   1.00
C205   C     0.20437   0.40015   0.38122   0.00000  Uiso   1.00
C206   C     0.16420   0.60718   0.04618   0.00000  Uiso   1.00
C207   C     0.10931   0.49025   0.43822   0.00000  Uiso   1.00
C208   C     0.19918   0.50028   0.00617   0.00000  Uiso   1.00
C209   C     0.22204   0.46393   0.47140   0.00000  Uiso   1.00
C210   C     0.18613   0.43860   0.42131   0.00000  Uiso   1.00
C211   C     0.12878   0.44818   0.40937   0.00000  Uiso   1.00
C212   C     0.22677   0.51209   0.06264   0.00000  Uiso   1.00
C213   C     0.30631   0.46617   0.04667   0.00000  Uiso   1.00
H214   H     0.01437   0.45319   0.06131   0.00000  Uiso   1.00
H215   H     0.16033   0.65605   0.16993   0.00000  Uiso   1.00
H216   H     0.24598   0.62036   0.18162   0.00000  Uiso   1.00
H217   H     0.22884   0.63533   0.25149   0.00000  Uiso   1.00
H218   H     0.09960   0.39005   0.18749   0.00000  Uiso   1.00
H219   H     0.06257   0.42745   0.13777   0.00000  Uiso   1.00
H220   H     0.11813   0.39543   0.11946   0.00000  Uiso   1.00
H221   H     0.14757   0.49262   0.15009   0.00000  Uiso   1.00
H222   H     0.19015   0.44589   0.18442   0.00000  Uiso   1.00
H223   H     0.20315   0.52689   0.35606   0.00000  Uiso   1.00
H224   H     0.17314   0.36935   0.35731   0.00000  Uiso   1.00
H225   H     0.29830   0.42430   0.46652   0.00000  Uiso   1.00
H226   H     0.14697   0.63447   0.07300   0.00000  Uiso   1.00
H227   H     0.20562   0.53248   0.09205   0.00000  Uiso   1.00
H228   H     0.32428   0.55578   0.43354   0.00000  Uiso   1.00
H229   H     0.05117   0.60317   0.01797   0.00000  Uiso   1.00
H230   H     0.09984   0.42458   0.37443   0.00000  Uiso   1.00
H231   H     0.06373   0.33843   0.25720   0.00000  Uiso   1.00
H232   H     0.18828   0.37421   0.22430   0.00000  Uiso   1.00
H233   H     0.21460   0.37036   0.15647   0.00000  Uiso   1.00
N234   N     0.14493   0.48556   0.23542   0.00000  Uiso   1.00
N235   N     0.18840   0.51444   0.26457   0.00000  Uiso   1.00
O236   O     0.29769   0.57963   0.25357   0.00000  Uiso   1.00
O237   O     0.25269   0.40420   0.37138   0.00000  Uiso   1.00
O238   O     0.21404   0.61588   0.04135   0.00000  Uiso   1.00
O239   O     0.05742   0.57038   0.24423   0.00000  Uiso   1.00
O240   O     0.31490   0.50691   0.33380   0.00000  Uiso   1.00
O241   O     0.07463   0.49766   0.32446   0.00000  Uiso   1.00
O242   O     0.27592   0.42962   0.25576   0.00000  Uiso   1.00
O243   O     0.03565   0.42037   0.24642   0.00000  Uiso   1.00
O244   O     0.25870   0.50234   0.17554   0.00000  Uiso   1.00
O245   O     0.01843   0.49309   0.16620   0.00000  Uiso   1.00
O246   O     0.15714   0.57850   0.31787   0.00000  Uiso   1.00
Zn247  Zn    0.27119   0.50618   0.25623   0.00000  Uiso   1.00
Zn248  Zn    0.06214   0.49382   0.24376   0.00000  Uiso   1.00
C249   C     0.34759   0.59792   0.24720   0.00000  Uiso   1.00
C250   C     0.38929   0.50750   0.41635   0.00000  Uiso   1.00
C251   C     0.35338   0.65274   0.24589   0.00000  Uiso   1.00
C252   C     0.36871   0.50176   0.35506   0.00000  Uiso   1.00
C253   C     0.63945   0.34582   0.23750   0.00000  Uiso   1.00
C254   C     0.65036   0.40154   0.24733   0.00000  Uiso   1.00
C255   C     0.63113   0.49713   0.14482   0.00000  Uiso   1.00
C256   C     0.61105   0.45023   0.49127   0.00000  Uiso   1.00
C257   C     0.61184   0.49345   0.08358   0.00000  Uiso   1.00
C258   C     0.36616   0.54352   0.44914   0.00000  Uiso   1.00
C259   C     0.40094   0.57096   0.49718   0.00000  Uiso   1.00
C260   C     0.47869   0.51825   0.48642   0.00000  Uiso   1.00
C261   C     0.45896   0.56295   0.01222   0.00000  Uiso   1.00
C262   C     0.57822   0.65156   0.21579   0.00000  Uiso   1.00
C263   C     0.53284   0.34924   0.18961   0.00000  Uiso   1.00
C264   C     0.48330   0.46278   0.18014   0.00000  Uiso   1.00
C265   C     0.43809   0.41684   0.15558   0.00000  Uiso   1.00
C266   C     0.51531   0.53970   0.31667   0.00000  Uiso   1.00
C267   C     0.53770   0.40015   0.38122   0.00000  Uiso   1.00
C268   C     0.49753   0.60718   0.04618   0.00000  Uiso   1.00
C269   C     0.44264   0.49025   0.43822   0.00000  Uiso   1.00
C270   C     0.53252   0.50028   0.00617   0.00000  Uiso   1.00
C271   C     0.55538   0.46393   0.47140   0.00000  Uiso   1.00
C272   C     0.51947   0.43860   0.42131   0.00000  Uiso   1.00
C273   C     0.46212   0.44818   0.40937   0.00000  Uiso   1.00
C274   C     0.56010   0.51209   0.06264   0.00000  Uiso   1.00
C275   C     0.63965   0.46617   0.04667   0.00000  Uiso   1.00
H276   H     0.34771   0.45319   0.06131   0.00000  Uiso   1.00
H277   H     0.49366   0.65605   0.16993   0.00000  Uiso   1.00
H278   H     0.57931   0.62036   0.18162   0.00000  Uiso   1.00
H279   H     0.56217   0.63533   0.25149   0.00000  Uiso   1.00
H280   H     0.43293   0.39005   0.18749   0.00000  Uiso   1.00
H281   H     0.39591   0.42745   0.13777   0.00000  Uiso   1.00
H282   H     0.45146   0.39543   0.11946   0.00000  Uiso   1.00
H283   H     0.48090   0.49262   0.15009   0.00000  Uiso   1.00
H284   H     0.52349   0.44589   0.18442   0.00000  Uiso   1.00
H285   H     0.53649   0.52689   0.35606   0.00000  Uiso   1.00
H286   H     0.50647   0.36935   0.35731   0.00000  Uiso   1.00
H287   H     0.63164   0.42430   0.46652   0.00000  Uiso   1.00
H288   H     0.48031   0.63447   0.07300   0.00000  Uiso   1.00
H289   H     0.53895   0.53248   0.09205   0.00000  Uiso   1.00
H290   H     0.65762   0.55578   0.43354   0.00000  Uiso   1.00
H291   H     0.38450   0.60317   0.01797   0.00000  Uiso   1.00
H292   H     0.43317   0.42458   0.37443   0.00000  Uiso   1.00
H293   H     0.39707   0.33843   0.25720   0.00000  Uiso   1.00
H294   H     0.52161   0.37421   0.22430   0.00000  Uiso   1.00
H295   H     0.54793   0.37036   0.15647   0.00000  Uiso   1.00
N296   N     0.47827   0.48556   0.23542   0.00000  Uiso   1.00
N297   N     0.52173   0.51444   0.26457   0.00000  Uiso   1.00
O298   O     0.63102   0.57963   0.25357   0.00000  Uiso   1.00
O299   O     0.58603   0.40420   0.37138   0.00000  Uiso   1.00
O300   O     0.54737   0.61588   0.04135   0.00000  Uiso   1.00
O301   O     0.39075   0.57038   0.24423   0.00000  Uiso   1.00
O302   O     0.64823   0.50691   0.33380   0.00000  Uiso   1.00
O303   O     0.40796   0.49766   0.32446   0.00000  Uiso   1.00
O304   O     0.60925   0.42962   0.25576   0.00000  Uiso   1.00
O305   O     0.36898   0.42037   0.24642   0.00000  Uiso   1.00
O306   O     0.59204   0.50234   0.17554   0.00000  Uiso   1.00
O307   O     0.35177   0.49309   0.16620   0.00000  Uiso   1.00
O308   O     0.49048   0.57850   0.31787   0.00000  Uiso   1.00
Zn309  Zn    0.60453   0.50618   0.25623   0.00000  Uiso   1.00
Zn310  Zn    0.39547   0.49382   0.24376   0.00000  Uiso   1.00
C311   C     0.68092   0.59792   0.24720   0.00000  Uiso   1.00
C312   C     0.72262   0.50750   0.41635   0.00000  Uiso   1.00
C313   C     0.68671   0.65274   0.24589   0.00000  Uiso   1.00
C314   C     0.70204   0.50176   0.35506   0.00000  Uiso   1.00
C315   C     0.97278   0.34582   0.23750   0.00000  Uiso   1.00
C316   C     0.98369   0.40154   0.24733   0.00000  Uiso   1.00
C317   C     0.96446   0.49713   0.14482   0.00000  Uiso   1.00
C318   C     0.94438   0.45023   0.49127   0.00000  Uiso   1.00
C319   C     0.94518   0.49345   0.08358   0.00000  Uiso   1.00
C320   C     0.69950   0.54352   0.44914   0.00000  Uiso   1.00
C321   C     0.73427   0.57096   0.49718   0.00000  Uiso   1.00
C322   C     0.81202   0.51825   0.48642   0.00000  Uiso   1.00
C323   C     0.79230   0.56295   0.01222   0.00000  Uiso   1.00
C324   C     0.91155   0.65156   0.21579   0.00000  Uiso   1.00
C325   C     0.86617   0.34924   0.18961   0.00000  Uiso   1.00
C326   C     0.81663   0.46278   0.18014   0.00000  Uiso   1.00
C327   C     0.77142   0.41684   0.15558   0.00000  Uiso   1.00
C328   C     0.84864   0.53970   0.31667   0.00000  Uiso   1.00
C329   C     0.87104   0.40015   0.38122   0.00000  Uiso   1.00
C330   C     0.83086   0.60718   0.04618   0.00000  Uiso   1.00
C331   C     0.77598   0.49025   0.43822   0.00000  Uiso   1.00
C332   C     0.86585   0.50028   0.00617   0.00000  Uiso   1.00
C333   C     0.88871   0.46393   0.47140   0.00000  Uiso   1.00
C334   C     0.85280   0.43860   0.42131   0.00000  Uiso   1.00
C335   C     0.79545   0.44818   0.40937   0.00000  Uiso   1.00
C336   C     0.89343   0.51209   0.06264   0.00000  Uiso   1.00
C337   C     0.97298   0.46617   0.04667   0.00000  Uiso   1.00
H338   H     0.68104   0.45319   0.06131   0.00000  Uiso   1.00
H339   H     0.82700   0.65605   0.16993   0.00000  Uiso   1.00
H340   H     0.91265   0.62036   0.18162   0.00000  Uiso   1.00
H341   H     0.89550   0.63533   0.25149   0.00000  Uiso   1.00
H342   H     0.76626   0.39005   0.18749   0.00000  Uiso   1.00
H343   H     0.72924   0.42745   0.13777   0.00000  Uiso   1.00
H344   H     0.78479   0.39543   0.11946   0.00000  Uiso   1.00
H345   H     0.81424   0.49262   0.15009   0.00000  Uiso   1.00
H346   H     0.85682   0.44589   0.18442   0.00000  Uiso   1.00
H347   H     0.86982   0.52689   0.35606   0.00000  Uiso   1.00
H348   H     0.83981   0.36935   0.35731   0.00000  Uiso   1.00
H349   H     0.96497   0.42430   0.46652   0.00000  Uiso   1.00
H350   H     0.81364   0.63447   0.07300   0.00000  Uiso   1.00
H351   H     0.87229   0.53248   0.09205   0.00000  Uiso   1.00
H352   H     0.99095   0.55578   0.43354   0.00000  Uiso   1.00
H353   H     0.71784   0.60317   0.01797   0.00000  Uiso   1.00
H354   H     0.76650   0.42458   0.37443   0.00000  Uiso   1.00
H355   H     0.73040   0.33843   0.25720   0.00000  Uiso   1.00
H356   H     0.85494   0.37421   0.22430   0.00000  Uiso   1.00
H357   H     0.88127   0.37036   0.15647   0.00000  Uiso   1.00
N358   N     0.81160   0.48556   0.23542   0.00000  Uiso   1.00
N359   N     0.85507   0.51444   0.26457   0.00000  Uiso   1.00
O360   O     0.96435   0.57963   0.25357   0.00000  Uiso   1.00
O361   O     0.91936   0.40420   0.37138   0.00000  Uiso   1.00
O362   O     0.88070   0.61588   0.04135   0.00000  Uiso   1.00
O363   O     0.72408   0.57038   0.24423   0.00000  Uiso   1.00
O364   O     0.98157   0.50691   0.33380   0.00000  Uiso   1.00
O365   O     0.74130   0.49766   0.32446   0.00000  Uiso   1.00
O366   O     0.94258   0.42962   0.25576   0.00000  Uiso   1.00
O367   O     0.70231   0.42037   0.24642   0.00000  Uiso   1.00
O368   O     0.92537   0.50234   0.17554   0.00000  Uiso   1.00
O369   O     0.68510   0.49309   0.16620   0.00000  Uiso   1.00
O370   O     0.82381   0.57850   0.31787   0.00000  Uiso   1.00
Zn371  Zn    0.93786   0.50618   0.25623   0.00000  Uiso   1.00
Zn372  Zn    0.72881   0.49382   0.24376   0.00000  Uiso   1.00
C373   C     0.01425   0.93126   0.24720   0.00000  Uiso   1.00
C374   C     0.05596   0.84083   0.41635   0.00000  Uiso   1.00
C375   C     0.02004   0.98607   0.24589   0.00000  Uiso   1.00
C376   C     0.03537   0.83509   0.35506   0.00000  Uiso   1.00
C377   C     0.30611   0.67916   0.23750   0.00000  Uiso   1.00
C378   C     0.31703   0.73487   0.24733   0.00000  Uiso   1.00
C379   C     0.29779   0.83047   0.14482   0.00000  Uiso   1.00
C380   C     0.27771   0.78357   0.49127   0.00000  Uiso   1.00
C381   C     0.27851   0.82678   0.08358   0.00000  Uiso   1.00
C382   C     0.03283   0.87686   0.44914   0.00000  Uiso   1.00
C383   C     0.06760   0.90430   0.49718   0.00000  Uiso   1.00
C384   C     0.14536   0.85158   0.48642   0.00000  Uiso   1.00
C385   C     0.12563   0.89628   0.01222   0.00000  Uiso   1.00
C386   C     0.24488   0.98489   0.21579   0.00000  Uiso   1.00
C387   C     0.19951   0.68258   0.18961   0.00000  Uiso   1.00
C388   C     0.14996   0.79611   0.18014   0.00000  Uiso   1.00
C389   C     0.10476   0.75017   0.15558   0.00000  Uiso   1.00
C390   C     0.18197   0.87303   0.31667   0.00000  Uiso   1.00
C391   C     0.20437   0.73349   0.38122   0.00000  Uiso   1.00
C392   C     0.16420   0.94051   0.04618   0.00000  Uiso   1.00
C393   C     0.10931   0.82359   0.43822   0.00000  Uiso   1.00
C394   C     0.19918   0.83361   0.00617   0.00000  Uiso   1.00
C395   C     0.22204   0.79726   0.47140   0.00000  Uiso   1.00
C396   C     0.18613   0.77193   0.42131   0.00000  Uiso   1.00
C397   C     0.12878   0.78151   0.40937   0.00000  Uiso   1.00
C398   C     0.22677   0.84542   0.06264   0.00000  Uiso   1.00
C399   C     0.30631   0.79950   0.04667   0.00000  Uiso   1.00
H400   H     0.01437   0.78652   0.06131   0.00000  Uiso   1.00
H401   H     0.16033   0.98938   0.16993   0.00000  Uiso   1.00
H402   H     0.24598   0.95369   0.18162   0.00000  Uiso   1.00
H403   H     0.22884   0.96866   0.25149   0.00000  Uiso   1.00
H404   H     0.09960   0.72338   0.18749   0.00000  Uiso   1.00
H405   H     0.06257   0.76078   0.13777   0.00000  Uiso   1.00
H406   H     0.11813   0.72877   0.11946   0.00000  Uiso   1.00
H407   H     0.14757   0.82596   0.15009   0.00000  Uiso   1.00
H408   H     0.19015   0.77922   0.18442   0.00000  Uiso   1.00
H409   H     0.20315   0.86022   0.35606   0.00000  Uiso   1.00
H410   H     0.17314   0.70269   0.35731   0.00000  Uiso   1.00
H411   H     0.29830   0.75763   0.46652   0.00000  Uiso   1.00
H412   H     0.14697   0.96780   0.07300   0.00000  Uiso   1.00
H413   H     0.20562   0.86581   0.09205   0.00000  Uiso   1.00
H414   H     0.32428   0.88911   0.43354   0.00000  Uiso   1.00
H415   H     0.05117   0.93651   0.01797   0.00000  Uiso   1.00
H416   H     0.09984   0.75791   0.37443   0.00000  Uiso   1.00
H417   H     0.06373   0.67177   0.25720   0.00000  Uiso   1.00
H418   H     0.18828   0.70754   0.22430   0.00000  Uiso   1.00
H419   H     0.21460   0.70370   0.15647   0.00000  Uiso   1.00
N420   N     0.14493   0.81890   0.23542   0.00000  Uiso   1.00
N421   N     0.18840   0.84777   0.26457   0.00000  Uiso   1.00
O422   O     0.29769   0.91296   0.25357   0.00000  Uiso   1.00
O423   O     0.25269   0.73753   0.37138   0.00000  Uiso   1.00
O424   O     0.21404   0.94922   0.04135   0.00000  Uiso   1.00
O425   O     0.05742   0.90371   0.24423   0.00000  Uiso   1.00
O426   O     0.31490   0.84024   0.33380   0.00000  Uiso   1.00
O427   O     0.07463   0.83099   0.32446   0.00000  Uiso   1.00
O428   O     0.27592   0.76296   0.25576   0.00000  Uiso   1.00
O429   O     0.03565   0.75371   0.24642   0.00000  Uiso   1.00
O430   O     0.25870   0.83567   0.17554   0.00000  Uiso   1.00
O431   O     0.01843   0.82642   0.16620   0.00000  Uiso   1.00
O432   O     0.15714   0.91183   0.31787   0.00000  Uiso   1.00
Zn433  Zn    0.27119   0.83951   0.25623   0.00000  Uiso   1.00
Zn434  Zn    0.06214   0.82716   0.24376   0.00000  Uiso   1.00
C435   C     0.34759   0.93126   0.24720   0.00000  Uiso   1.00
C436   C     0.38929   0.84083   0.41635   0.00000  Uiso   1.00
C437   C     0.35338   0.98607   0.24589   0.00000  Uiso   1.00
C438   C     0.36871   0.83509   0.35506   0.00000  Uiso   1.00
C439   C     0.63945   0.67916   0.23750   0.00000  Uiso   1.00
C440   C     0.65036   0.73487   0.24733   0.00000  Uiso   1.00
C441   C     0.63113   0.83047   0.14482   0.00000  Uiso   1.00
C442   C     0.61105   0.78357   0.49127   0.00000  Uiso   1.00
C443   C     0.61184   0.82678   0.08358   0.00000  Uiso   1.00
C444   C     0.36616   0.87686   0.44914   0.00000  Uiso   1.00
C445   C     0.40094   0.90430   0.49718   0.00000  Uiso   1.00
C446   C     0.47869   0.85158   0.48642   0.00000  Uiso   1.00
C447   C     0.45896   0.89628   0.01222   0.00000  Uiso   1.00
C448   C     0.57822   0.98489   0.21579   0.00000  Uiso   1.00
C449   C     0.53284   0.68258   0.18961   0.00000  Uiso   1.00
C450   C     0.48330   0.79611   0.18014   0.00000  Uiso   1.00
C451   C     0.43809   0.75017   0.15558   0.00000  Uiso   1.00
C452   C     0.51531   0.87303   0.31667   0.00000  Uiso   1.00
C453   C     0.53770   0.73349   0.38122   0.00000  Uiso   1.00
C454   C     0.49753   0.94051   0.04618   0.00000  Uiso   1.00
C455   C     0.44264   0.82359   0.43822   0.00000  Uiso   1.00
C456   C     0.53252   0.83361   0.00617   0.00000  Uiso   1.00
C457   C     0.55538   0.79726   0.47140   0.00000  Uiso   1.00
C458   C     0.51947   0.77193   0.42131   0.00000  Uiso   1.00
C459   C     0.46212   0.78151   0.40937   0.00000  Uiso   1.00
C460   C     0.56010   0.84542   0.06264   0.00000  Uiso   1.00
C461   C     0.63965   0.79950   0.04667   0.00000  Uiso   1.00
H462   H     0.34771   0.78652   0.06131   0.00000  Uiso   1.00
H463   H     0.49366   0.98938   0.16993   0.00000  Uiso   1.00
H464   H     0.57931   0.95369   0.18162   0.00000  Uiso   1.00
H465   H     0.56217   0.96866   0.25149   0.00000  Uiso   1.00
H466   H     0.43293   0.72338   0.18749   0.00000  Uiso   1.00
H467   H     0.39591   0.76078   0.13777   0.00000  Uiso   1.00
H468   H     0.45146   0.72877   0.11946   0.00000  Uiso   1.00
H469   H     0.48090   0.82596   0.15009   0.00000  Uiso   1.00
H470   H     0.52349   0.77922   0.18442   0.00000  Uiso   1.00
H471   H     0.53649   0.86022   0.35606   0.00000  Uiso   1.00
H472   H     0.50647   0.70269   0.35731   0.00000  Uiso   1.00
H473   H     0.63164   0.75763   0.46652   0.00000  Uiso   1.00
H474   H     0.48031   0.96780   0.07300   0.00000  Uiso   1.00
H475   H     0.53895   0.86581   0.09205   0.00000  Uiso   1.00
H476   H     0.65762   0.88911   0.43354   0.00000  Uiso   1.00
H477   H     0.38450   0.93651   0.01797   0.00000  Uiso   1.00
H478   H     0.43317   0.75791   0.37443   0.00000  Uiso   1.00
H479   H     0.39707   0.67177   0.25720   0.00000  Uiso   1.00
H480   H     0.52161   0.70754   0.22430   0.00000  Uiso   1.00
H481   H     0.54793   0.70370   0.15647   0.00000  Uiso   1.00
N482   N     0.47827   0.81890   0.23542   0.00000  Uiso   1.00
N483   N     0.52173   0.84777   0.26457   0.00000  Uiso   1.00
O484   O     0.63102   0.91296   0.25357   0.00000  Uiso   1.00
O485   O     0.58603   0.73753   0.37138   0.00000  Uiso   1.00
O486   O     0.54737   0.94922   0.04135   0.00000  Uiso   1.00
O487   O     0.39075   0.90371   0.24423   0.00000  Uiso   1.00
O488   O     0.64823   0.84024   0.33380   0.00000  Uiso   1.00
O489   O     0.40796   0.83099   0.32446   0.00000  Uiso   1.00
O490   O     0.60925   0.76296   0.25576   0.00000  Uiso   1.00
O491   O     0.36898   0.75371   0.24642   0.00000  Uiso   1.00
O492   O     0.59204   0.83567   0.17554   0.00000  Uiso   1.00
O493   O     0.35177   0.82642   0.16620   0.00000  Uiso   1.00
O494   O     0.49048   0.91183   0.31787   0.00000  Uiso   1.00
Zn495  Zn    0.60453   0.83951   0.25623   0.00000  Uiso   1.00
Zn496  Zn    0.39547   0.82716   0.24376   0.00000  Uiso   1.00
C497   C     0.68092   0.93126   0.24720   0.00000  Uiso   1.00
C498   C     0.72262   0.84083   0.41635   0.00000  Uiso   1.00
C499   C     0.68671   0.98607   0.24589   0.00000  Uiso   1.00
C500   C     0.70204   0.83509   0.35506   0.00000  Uiso   1.00
C501   C     0.97278   0.67916   0.23750   0.00000  Uiso   1.00
C502   C     0.98369   0.73487   0.24733   0.00000  Uiso   1.00
C503   C     0.96446   0.83047   0.14482   0.00000  Uiso   1.00
C504   C     0.94438   0.78357   0.49127   0.00000  Uiso   1.00
C505   C     0.94518   0.82678   0.08358   0.00000  Uiso   1.00
C506   C     0.69950   0.87686   0.44914   0.00000  Uiso   1.00
C507   C     0.73427   0.90430   0.49718   0.00000  Uiso   1.00
C508   C     0.81202   0.85158   0.48642   0.00000  Uiso   1.00
C509   C     0.79230   0.89628   0.01222   0.00000  Uiso   1.00
C510   C     0.91155   0.98489   0.21579   0.00000  Uiso   1.00
C511   C     0.86617   0.68258   0.18961   0.00000  Uiso   1.00
C512   C     0.81663   0.79611   0.18014   0.00000  Uiso   1.00
C513   C     0.77142   0.75017   0.15558   0.00000  Uiso   1.00
C514   C     0.84864   0.87303   0.31667   0.00000  Uiso   1.00
C515   C     0.87104   0.73349   0.38122   0.00000  Uiso   1.00
C516   C     0.83086   0.94051   0.04618   0.00000  Uiso   1.00
C517   C     0.77598   0.82359   0.43822   0.00000  Uiso   1.00
C518   C     0.86585   0.83361   0.00617   0.00000  Uiso   1.00
C519   C     0.88871   0.79726   0.47140   0.00000  Uiso   1.00
C520   C     0.85280   0.77193   0.42131   0.00000  Uiso   1.00
C521   C     0.79545   0.78151   0.40937   0.00000  Uiso   1.00
C522   C     0.89343   0.84542   0.06264   0.00000  Uiso   1.00
C523   C     0.97298   0.79950   0.04667   0.00000  Uiso   1.00
H524   H     0.68104   0.78652   0.06131   0.00000  Uiso   1.00
H525   H     0.82700   0.98938   0.16993   0.00000  Uiso   1.00
H526   H     0.91265   0.95369   0.18162   0.00000  Uiso   1.00
H527   H     0.89550   0.96866   0.25149   0.00000  Uiso   1.00
H528   H     0.76626   0.72338   0.18749   0.00000  Uiso   1.00
H529   H     0.72924   0.76078   0.13777   0.00000  Uiso   1.00
H530   H     0.78479   0.72877   0.11946   0.00000  Uiso   1.00
H531   H     0.81424   0.82596   0.15009   0.00000  Uiso   1.00
H532   H     0.85682   0.77922   0.18442   0.00000  Uiso   1.00
H533   H     0.86982   0.86022   0.35606   0.00000  Uiso   1.00
H534   H     0.83981   0.70269   0.35731   0.00000  Uiso   1.00
H535   H     0.96497   0.75763   0.46652   0.00000  Uiso   1.00
H536   H     0.81364   0.96780   0.07300   0.00000  Uiso   1.00
H537   H     0.87229   0.86581   0.09205   0.00000  Uiso   1.00
H538   H     0.99095   0.88911   0.43354   0.00000  Uiso   1.00
H539   H     0.71784   0.93651   0.01797   0.00000  Uiso   1.00
H540   H     0.76650   0.75791   0.37443   0.00000  Uiso   1.00
H541   H     0.73040   0.67177   0.25720   0.00000  Uiso   1.00
H542   H     0.85494   0.70754   0.22430   0.00000  Uiso   1.00
H543   H     0.88127   0.70370   0.15647   0.00000  Uiso   1.00
N544   N     0.81160   0.81890   0.23542   0.00000  Uiso   1.00
N545   N     0.85507   0.84777   0.26457   0.00000  Uiso   1.00
O546   O     0.96435   0.91296   0.25357   0.00000  Uiso   1.00
O547   O     0.91936   0.73753   0.37138   0.00000  Uiso   1.00
O548   O     0.88070   0.94922   0.04135   0.00000  Uiso   1.00
O549   O     0.72408   0.90371   0.24423   0.00000  Uiso   1.00
O550   O     0.98157   0.84024   0.33380   0.00000  Uiso   1.00
O551   O     0.74130   0.83099   0.32446   0.00000  Uiso   1.00
O552   O     0.94258   0.76296   0.25576   0.00000  Uiso   1.00
O553   O     0.70231   0.75371   0.24642   0.00000  Uiso   1.00
O554   O     0.92537   0.83567   0.17554   0.00000  Uiso   1.00
O555   O     0.68510   0.82642   0.16620   0.00000  Uiso   1.00
O556   O     0.82381   0.91183   0.31787   0.00000  Uiso   1.00
Zn557  Zn    0.93786   0.83951   0.25623   0.00000  Uiso   1.00
Zn558  Zn    0.72881   0.82716   0.24376   0.00000  Uiso   1.00
C559   C     0.01425   0.26459   0.74720   0.00000  Uiso   1.00
C560   C     0.05596   0.17416   0.91635   0.00000  Uiso   1.00
C561   C     0.02004   0.31941   0.74589   0.00000  Uiso   1.00
C562   C     0.03537   0.16842   0.85506   0.00000  Uiso   1.00
C563   C     0.30611   0.01249   0.73750   0.00000  Uiso   1.00
C564   C     0.31703   0.06821   0.74733   0.00000  Uiso   1.00
C565   C     0.29779   0.16380   0.64482   0.00000  Uiso   1.00
C566   C     0.27771   0.11690   0.99127   0.00000  Uiso   1.00
C567   C     0.27851   0.16011   0.58358   0.00000  Uiso   1.00
C568   C     0.03283   0.21019   0.94914   0.00000  Uiso   1.00
C569   C     0.06760   0.23763   0.99718   0.00000  Uiso   1.00
C570   C     0.14536   0.18491   0.98642   0.00000  Uiso   1.00
C571   C     0.12563   0.22961   0.51222   0.00000  Uiso   1.00
C572   C     0.24488   0.31823   0.71579   0.00000  Uiso   1.00
C573   C     0.19951   0.01591   0.68961   0.00000  Uiso   1.00
C574   C     0.14996   0.12944   0.68014   0.00000  Uiso   1.00
C575   C     0.10476   0.08350   0.65558   0.00000  Uiso   1.00
C576   C     0.18197   0.20636   0.81667   0.00000  Uiso   1.00
C577   C     0.20437   0.06682   0.88122   0.00000  Uiso   1.00
C578   C     0.16420   0.27385   0.54618   0.00000  Uiso   1.00
C579   C     0.10931   0.15692   0.93822   0.00000  Uiso   1.00
C580   C     0.19918   0.16694   0.50617   0.00000  Uiso   1.00
C581   C     0.22204   0.13060   0.97140   0.00000  Uiso   1.00
C582   C     0.18613   0.10526   0.92131   0.00000  Uiso   1.00
C583   C     0.12878   0.11485   0.90937   0.00000  Uiso   1.00
C584   C     0.22677   0.17876   0.56264   0.00000  Uiso   1.00
C585   C     0.30631   0.13283   0.54667   0.00000  Uiso   1.00
H586   H     0.01437   0.11986   0.56131   0.00000  Uiso   1.00
H587   H     0.16033   0.32271   0.66993   0.00000  Uiso   1.00
H588   H     0.24598   0.28703   0.68162   0.00000  Uiso   1.00
H589   H     0.22884   0.30200   0.75149   0.00000  Uiso   1.00
H590   H     0.09960   0.05672   0.68749   0.00000  Uiso   1.00
H591   H     0.06257   0.09412   0.63777   0.00000  Uiso   1.00
H592   H     0.11813   0.06210   0.61946   0.00000  Uiso   1.00
H593   H     0.14757   0.15929   0.65009   0.00000  Uiso   1.00
H594   H     0.19015   0.11255   0.68442   0.00000  Uiso   1.00
H595   H     0.20315   0.19355   0.85606   0.00000  Uiso   1.00
H596   H     0.17314   0.03602   0.85731   0.00000  Uiso   1.00
H597   H     0.29830   0.09096   0.96652   0.00000  Uiso   1.00
H598   H     0.14697   0.30114   0.57300   0.00000  Uiso   1.00
H599   H     0.20562   0.19915   0.59205   0.00000  Uiso   1.00
H600   H     0.32428   0.22244   0.93354   0.00000  Uiso   1.00
H601   H     0.05117   0.26984   0.51797   0.00000  Uiso   1.00
H602   H     0.09984   0.09124   0.87443   0.00000  Uiso   1.00
H603   H     0.06373   0.00510   0.75720   0.00000  Uiso   1.00
H604   H     0.18828   0.04087   0.72430   0.00000  Uiso   1.00
H605   H     0.21460   0.03703   0.65647   0.00000  Uiso   1.00
N606   N     0.14493   0.15223   0.73542   0.00000  Uiso   1.00
N607   N     0.18840   0.18110   0.76457   0.00000  Uiso   1.00
O608   O     0.29769   0.24629   0.75357   0.00000  Uiso   1.00
O609   O     0.25269   0.07087   0.87138   0.00000  Uiso   1.00
O610   O     0.21404   0.28255   0.54135   0.00000  Uiso   1.00
O611   O     0.05742   0.23704   0.74423   0.00000  Uiso   1.00
O612   O     0.31490   0.17358   0.83380   0.00000  Uiso   1.00
O613   O     0.07463   0.16433   0.82446   0.00000  Uiso   1.00
O614   O     0.27592   0.09629   0.75576   0.00000  Uiso   1.00
O615   O     0.03565   0.08704   0.74642   0.00000  Uiso   1.00
O616   O     0.25870   0.16901   0.67554   0.00000  Uiso   1.00
O617   O     0.01843   0.15976   0.66620   0.00000  Uiso   1.00
O618   O     0.15714   0.24517   0.81787   0.00000  Uiso   1.00
Zn619  Zn    0.27119   0.17284   0.75623   0.00000  Uiso   1.00
Zn620  Zn    0.06214   0.16049   0.74376   0.00000  Uiso   1.00
C621   C     0.34759   0.26459   0.74720   0.00000  Uiso   1.00
C622   C     0.38929   0.17416   0.91635   0.00000  Uiso   1.00
C623   C     0.35338   0.31941   0.74589   0.00000  Uiso   1.00
C624   C     0.36871   0.16842   0.85506   0.00000  Uiso   1.00
C625   C     0.63945   0.01249   0.73750   0.00000  Uiso   1.00
C626   C     0.65036   0.06821   0.74733   0.00000  Uiso   1.00
C627   C     0.63113   0.16380   0.64482   0.00000  Uiso   1.00
C628   C     0.61105   0.11690   0.99127   0.00000  Uiso   1.00
C629   C     0.61184   0.16011   0.58358   0.00000  Uiso   1.00
C630   C     0.36616   0.21019   0.94914   0.00000  Uiso   1.00
C631   C     0.40094   0.23763   0.99718   0.00000  Uiso   1.00
C632   C     0.47869   0.18491   0.98642   0.00000  Uiso   1.00
C633   C     0.45896   0.22961   0.51222   0.00000  Uiso   1.00
C634   C     0.57822   0.31823   0.71579   0.00000  Uiso   1.00
C635   C     0.53284   0.01591   0.68961   0.00000  Uiso   1.00
C636   C     0.48330   0.12944   0.68014   0.00000  Uiso   1.00
C637   C     0.43809   0.08350   0.65558   0.00000  Uiso   1.00
C638   C     0.51531   0.20636   0.81667   0.00000  Uiso   1.00
C639   C     0.53770   0.06682   0.88122   0.00000  Uiso   1.00
C640   C     0.49753   0.27385   0.54618   0.00000  Uiso   1.00
C641   C     0.44264   0.15692   0.93822   0.00000  Uiso   1.00
C642   C     0.53252   0.16694   0.50617   0.00000  Uiso   1.00
C643   C     0.55538   0.13060   0.97140   0.00000  Uiso   1.00
C644   C     0.51947   0.10526   0.92131   0.00000  Uiso   1.00
C645   C     0.46212   0.11485   0.90937   0.00000  Uiso   1.00
C646   C     0.56010   0.17876   0.56264   0.00000  Uiso   1.00
C647   C     0.63965   0.13283   0.54667   0.00000  Uiso   1.00
H648   H     0.34771   0.11986   0.56131   0.00000  Uiso   1.00
H649   H     0.49366   0.32271   0.66993   0.00000  Uiso   1.00
H650   H     0.57931   0.28703   0.68162   0.00000  Uiso   1.00
H651   H     0.56217   0.30200   0.75149   0.00000  Uiso   1.00
H652   H     0.43293   0.05672   0.68749   0.00000  Uiso   1.00
H653   H     0.39591   0.09412   0.63777   0.00000  Uiso   1.00
H654   H     0.45146   0.06210   0.61946   0.00000  Uiso   1.00
H655   H     0.48090   0.15929   0.65009   0.00000  Uiso   1.00
H656   H     0.52349   0.11255   0.68442   0.00000  Uiso   1.00
H657   H     0.53649   0.19355   0.85606   0.00000  Uiso   1.00
H658   H     0.50647   0.03602   0.85731   0.00000  Uiso   1.00
H659   H     0.63164   0.09096   0.96652   0.00000  Uiso   1.00
H660   H     0.48031   0.30114   0.57300   0.00000  Uiso   1.00
H661   H     0.53895   0.19915   0.59205   0.00000  Uiso   1.00
H662   H     0.65762   0.22244   0.93354   0.00000  Uiso   1.00
H663   H     0.38450   0.26984   0.51797   0.00000  Uiso   1.00
H664   H     0.43317   0.09124   0.87443   0.00000  Uiso   1.00
H665   H     0.39707   0.00510   0.75720   0.00000  Uiso   1.00
H666   H     0.52161   0.04087   0.72430   0.00000  Uiso   1.00
H667   H     0.54793   0.03703   0.65647   0.00000  Uiso   1.00
N668   N     0.47827   0.15223   0.73542   0.00000  Uiso   1.00
N669   N     0.52173   0.18110   0.76457   0.00000  Uiso   1.00
O670   O     0.63102   0.24629   0.75357   0.00000  Uiso   1.00
O671   O     0.58603   0.07087   0.87138   0.00000  Uiso   1.00
O672   O     0.54737   0.28255   0.54135   0.00000  Uiso   1.00
O673   O     0.39075   0.23704   0.74423   0.00000  Uiso   1.00
O674   O     0.64823   0.17358   0.83380   0.00000  Uiso   1.00
O675   O     0.40796   0.16433   0.82446   0.00000  Uiso   1.00
O676   O     0.60925   0.09629   0.75576   0.00000  Uiso   1.00
O677   O     0.36898   0.08704   0.74642   0.00000  Uiso   1.00
O678   O     0.59204   0.16901   0.67554   0.00000  Uiso   1.00
O679   O     0.35177   0.15976   0.66620   0.00000  Uiso   1.00
O680   O     0.49048   0.24517   0.81787   0.00000  Uiso   1.00
Zn681  Zn    0.60453   0.17284   0.75623   0.00000  Uiso   1.00
Zn682  Zn    0.39547   0.16049   0.74376   0.00000  Uiso   1.00
C683   C     0.68092   0.26459   0.74720   0.00000  Uiso   1.00
C684   C     0.72262   0.17416   0.91635   0.00000  Uiso   1.00
C685   C     0.68671   0.31941   0.74589   0.00000  Uiso   1.00
C686   C     0.70204   0.16842   0.85506   0.00000  Uiso   1.00
C687   C     0.97278   0.01249   0.73750   0.00000  Uiso   1.00
C688   C     0.98369   0.06821   0.74733   0.00000  Uiso   1.00
C689   C     0.96446   0.16380   0.64482   0.00000  Uiso   1.00
C690   C     0.94438   0.11690   0.99127   0.00000  Uiso   1.00
C691   C     0.94518   0.16011   0.58358   0.00000  Uiso   1.00
C692   C     0.69950   0.21019   0.94914   0.00000  Uiso   1.00
C693   C     0.73427   0.23763   0.99718   0.00000  Uiso   1.00
C694   C     0.81202   0.18491   0.98642   0.00000  Uiso   1.00
C695   C     0.79230   0.22961   0.51222   0.00000  Uiso   1.00
C696   C     0.91155   0.31823   0.71579   0.00000  Uiso   1.00
C697   C     0.86617   0.01591   0.68961   0.00000  Uiso   1.00
C698   C     0.81663   0.12944   0.68014   0.00000  Uiso   1.00
C699   C     0.77142   0.08350   0.65558   0.00000  Uiso   1.00
C700   C     0.84864   0.20636   0.81667   0.00000  Uiso   1.00
C701   C     0.87104   0.06682   0.88122   0.00000  Uiso   1.00
C702   C     0.83086   0.27385   0.54618   0.00000  Uiso   1.00
C703   C     0.77598   0.15692   0.93822   0.00000  Uiso   1.00
C704   C     0.86585   0.16694   0.50617   0.00000  Uiso   1.00
C705   C     0.88871   0.13060   0.97140   0.00000  Uiso   1.00
C706   C     0.85280   0.10526   0.92131   0.00000  Uiso   1.00
C707   C     0.79545   0.11485   0.90937   0.00000  Uiso   1.00
C708   C     0.89343   0.17876   0.56264   0.00000  Uiso   1.00
C709   C     0.97298   0.13283   0.54667   0.00000  Uiso   1.00
H710   H     0.68104   0.11986   0.56131   0.00000  Uiso   1.00
H711   H     0.82700   0.32271   0.66993   0.00000  Uiso   1.00
H712   H     0.91265   0.28703   0.68162   0.00000  Uiso   1.00
H713   H     0.89550   0.30200   0.75149   0.00000  Uiso   1.00
H714   H     0.76626   0.05672   0.68749   0.00000  Uiso   1.00
H715   H     0.72924   0.09412   0.63777   0.00000  Uiso   1.00
H716   H     0.78479   0.06210   0.61946   0.00000  Uiso   1.00
H717   H     0.81424   0.15929   0.65009   0.00000  Uiso   1.00
H718   H     0.85682   0.11255   0.68442   0.00000  Uiso   1.00
H719   H     0.86982   0.19355   0.85606   0.00000  Uiso   1.00
H720   H     0.83981   0.03602   0.85731   0.00000  Uiso   1.00
H721   H     0.96497   0.09096   0.96652   0.00000  Uiso   1.00
H722   H     0.81364   0.30114   0.57300   0.00000  Uiso   1.00
H723   H     0.87229   0.19915   0.59205   0.00000  Uiso   1.00
H724   H     0.99095   0.22244   0.93354   0.00000  Uiso   1.00
H725   H     0.71784   0.26984   0.51797   0.00000  Uiso   1.00
H726   H     0.76650   0.09124   0.87443   0.00000  Uiso   1.00
H727   H     0.73040   0.00510   0.75720   0.00000  Uiso   1.00
H728   H     0.85494   0.04087   0.72430   0.00000  Uiso   1.00
H729   H     0.88127   0.03703   0.65647   0.00000  Uiso   1.00
N730   N     0.81160   0.15223   0.73542   0.00000  Uiso   1.00
N731   N     0.85507   0.18110   0.76457   0.00000  Uiso   1.00
O732   O     0.96435   0.24629   0.75357   0.00000  Uiso   1.00
O733   O     0.91936   0.07087   0.87138   0.00000  Uiso   1.00
O734   O     0.88070   0.28255   0.54135   0.00000  Uiso   1.00
O735   O     0.72408   0.23704   0.74423   0.00000  Uiso   1.00
O736   O     0.98157   0.17358   0.83380   0.00000  Uiso   1.00
O737   O     0.74130   0.16433   0.82446   0.00000  Uiso   1.00
O738   O     0.94258   0.09629   0.75576   0.00000  Uiso   1.00
O739   O     0.70231   0.08704   0.74642   0.00000  Uiso   1.00
O740   O     0.92537   0.16901   0.67554   0.00000  Uiso   1.00
O741   O     0.68510   0.15976   0.66620   0.00000  Uiso   1.00
O742   O     0.82381   0.24517   0.81787   0.00000  Uiso   1.00
Zn743  Zn    0.93786   0.17284   0.75623   0.00000  Uiso   1.00
Zn744  Zn    0.72881   0.16049   0.74376   0.00000  Uiso   1.00
C745   C     0.01425   0.59792   0.74720   0.00000  Uiso   1.00
C746   C     0.05596   0.50750   0.91635   0.00000  Uiso   1.00
C747   C     0.02004   0.65274   0.74589   0.00000  Uiso   1.00
C748   C     0.03537   0.50176   0.85506   0.00000  Uiso   1.00
C749   C     0.30611   0.34582   0.73750   0.00000  Uiso   1.00
C750   C     0.31703   0.40154   0.74733   0.00000  Uiso   1.00
C751   C     0.29779   0.49713   0.64482   0.00000  Uiso   1.00
C752   C     0.27771   0.45023   0.99127   0.00000  Uiso   1.00
C753   C     0.27851   0.49345   0.58358   0.00000  Uiso   1.00
C754   C     0.03283   0.54352   0.94914   0.00000  Uiso   1.00
C755   C     0.06760   0.57096   0.99718   0.00000  Uiso   1.00
C756   C     0.14536   0.51825   0.98642   0.00000  Uiso   1.00
C757   C     0.12563   0.56295   0.51222   0.00000  Uiso   1.00
C758   C     0.24488   0.65156   0.71579   0.00000  Uiso   1.00
C759   C     0.19951   0.34924   0.68961   0.00000  Uiso   1.00
C760   C     0.14996   0.46278   0.68014   0.00000  Uiso   1.00
C761   C     0.10476   0.41684   0.65558   0.00000  Uiso   1.00
C762   C     0.18197   0.53970   0.81667   0.00000  Uiso   1.00
C763   C     0.20437   0.40015   0.88122   0.00000  Uiso   1.00
C764   C     0.16420   0.60718   0.54618   0.00000  Uiso   1.00
C765   C     0.10931   0.49025   0.93822   0.00000  Uiso   1.00
C766   C     0.19918   0.50028   0.50617   0.00000  Uiso   1.00
C767   C     0.22204   0.46393   0.97140   0.00000  Uiso   1.00
C768   C     0.18613   0.43860   0.92131   0.00000  Uiso   1.00
C769   C     0.12878   0.44818   0.90937   0.00000  Uiso   1.00
C770   C     0.22677   0.51209   0.56264   0.00000  Uiso   1.00
C771   C     0.30631   0.46617   0.54667   0.00000  Uiso   1.00
H772   H     0.01437   0.45319   0.56131   0.00000  Uiso   1.00
H773   H     0.16033   0.65605   0.66993   0.00000  Uiso   1.00
H774   H     0.24598   0.62036   0.68162   0.00000  Uiso   1.00
H775   H     0.22884   0.63533   0.75149   0.00000  Uiso   1.00
H776   H     0.09960   0.39005   0.68749   0.00000  Uiso   1.00
H777   H     0.06257   0.42745   0.63777   0.00000  Uiso   1.00
H778   H     0.11813   0.39543   0.61946   0.00000  Uiso   1.00
H779   H     0.14757   0.49262   0.65009   0.00000  Uiso   1.00
H780   H     0.19015   0.44589   0.68442   0.00000  Uiso   1.00
H781   H     0.20315   0.52689   0.85606   0.00000  Uiso   1.00
H782   H     0.17314   0.36935   0.85731   0.00000  Uiso   1.00
H783   H     0.29830   0.42430   0.96652   0.00000  Uiso   1.00
H784   H     0.14697   0.63447   0.57300   0.00000  Uiso   1.00
H785   H     0.20562   0.53248   0.59205   0.00000  Uiso   1.00
H786   H     0.32428   0.55578   0.93354   0.00000  Uiso   1.00
H787   H     0.05117   0.60317   0.51797   0.00000  Uiso   1.00
H788   H     0.09984   0.42458   0.87443   0.00000  Uiso   1.00
H789   H     0.06373   0.33843   0.75720   0.00000  Uiso   1.00
H790   H     0.18828   0.37421   0.72430   0.00000  Uiso   1.00
H791   H     0.21460   0.37036   0.65647   0.00000  Uiso   1.00
N792   N     0.14493   0.48556   0.73542   0.00000  Uiso   1.00
N793   N     0.18840   0.51444   0.76457   0.00000  Uiso   1.00
O794   O     0.29769   0.57963   0.75357   0.00000  Uiso   1.00
O795   O     0.25269   0.40420   0.87138   0.00000  Uiso   1.00
O796   O     0.21404   0.61588   0.54135   0.00000  Uiso   1.00
O797   O     0.05742   0.57038   0.74423   0.00000  Uiso   1.00
O798   O     0.31490   0.50691   0.83380   0.00000  Uiso   1.00
O799   O     0.07463   0.49766   0.82446   0.00000  Uiso   1.00
O800   O     0.27592   0.42962   0.75576   0.00000  Uiso   1.00
O801   O     0.03565   0.42037   0.74642   0.00000  Uiso   1.00
O802   O     0.25870   0.50234   0.67554   0.00000  Uiso   1.00
O803   O     0.01843   0.49309   0.66620   0.00000  Uiso   1.00
O804   O     0.15714   0.57850   0.81787   0.00000  Uiso   1.00
Zn805  Zn    0.27119   0.50618   0.75623   0.00000  Uiso   1.00
Zn806  Zn    0.06214   0.49382   0.74376   0.00000  Uiso   1.00
C807   C     0.34759   0.59792   0.74720   0.00000  Uiso   1.00
C808   C     0.38929   0.50750   0.91635   0.00000  Uiso   1.00
C809   C     0.35338   0.65274   0.74589   0.00000  Uiso   1.00
C810   C     0.36871   0.50176   0.85506   0.00000  Uiso   1.00
C811   C     0.63945   0.34582   0.73750   0.00000  Uiso   1.00
C812   C     0.65036   0.40154   0.74733   0.00000  Uiso   1.00
C813   C     0.63113   0.49713   0.64482   0.00000  Uiso   1.00
C814   C     0.61105   0.45023   0.99127   0.00000  Uiso   1.00
C815   C     0.61184   0.49345   0.58358   0.00000  Uiso   1.00
C816   C     0.36616   0.54352   0.94914   0.00000  Uiso   1.00
C817   C     0.40094   0.57096   0.99718   0.00000  Uiso   1.00
C818   C     0.47869   0.51825   0.98642   0.00000  Uiso   1.00
C819   C     0.45896   0.56295   0.51222   0.00000  Uiso   1.00
C820   C     0.57822   0.65156   0.71579   0.00000  Uiso   1.00
C821   C     0.53284   0.34924   0.68961   0.00000  Uiso   1.00
C822   C     0.48330   0.46278   0.68014   0.00000  Uiso   1.00
C823   C     0.43809   0.41684   0.65558   0.00000  Uiso   1.00
C824   C     0.51531   0.53970   0.81667   0.00000  Uiso   1.00
C825   C     0.53770   0.40015   0.88122   0.00000  Uiso   1.00
C826   C     0.49753   0.60718   0.54618   0.00000  Uiso   1.00
C827   C     0.44264   0.49025   0.93822   0.00000  Uiso   1.00
C828   C     0.53252   0.50028   0.50617   0.00000  Uiso   1.00
C829   C     0.55538   0.46393   0.97140   0.00000  Uiso   1.00
C830   C     0.51947   0.43860   0.92131   0.00000  Uiso   1.00
C831   C     0.46212   0.44818   0.90937   0.00000  Uiso   1.00
C832   C     0.56010   0.51209   0.56264   0.00000  Uiso   1.00
C833   C     0.63965   0.46617   0.54667   0.00000  Uiso   1.00
H834   H     0.34771   0.45319   0.56131   0.00000  Uiso   1.00
H835   H     0.49366   0.65605   0.66993   0.00000  Uiso   1.00
H836   H     0.57931   0.62036   0.68162   0.00000  Uiso   1.00
H837   H     0.56217   0.63533   0.75149   0.00000  Uiso   1.00
H838   H     0.43293   0.39005   0.68749   0.00000  Uiso   1.00
H839   H     0.39591   0.42745   0.63777   0.00000  Uiso   1.00
H840   H     0.45146   0.39543   0.61946   0.00000  Uiso   1.00
H841   H     0.48090   0.49262   0.65009   0.00000  Uiso   1.00
H842   H     0.52349   0.44589   0.68442   0.00000  Uiso   1.00
H843   H     0.53649   0.52689   0.85606   0.00000  Uiso   1.00
H844   H     0.50647   0.36935   0.85731   0.00000  Uiso   1.00
H845   H     0.63164   0.42430   0.96652   0.00000  Uiso   1.00
H846   H     0.48031   0.63447   0.57300   0.00000  Uiso   1.00
H847   H     0.53895   0.53248   0.59205   0.00000  Uiso   1.00
H848   H     0.65762   0.55578   0.93354   0.00000  Uiso   1.00
H849   H     0.38450   0.60317   0.51797   0.00000  Uiso   1.00
H850   H     0.43317   0.42458   0.87443   0.00000  Uiso   1.00
H851   H     0.39707   0.33843   0.75720   0.00000  Uiso   1.00
H852   H     0.52161   0.37421   0.72430   0.00000  Uiso   1.00
H853   H     0.54793   0.37036   0.65647   0.00000  Uiso   1.00
N854   N     0.47827   0.48556   0.73542   0.00000  Uiso   1.00
N855   N     0.52173   0.51444   0.76457   0.00000  Uiso   1.00
O856   O     0.63102   0.57963   0.75357   0.00000  Uiso   1.00
O857   O     0.58603   0.40420   0.87138   0.00000  Uiso   1.00
O858   O     0.54737   0.61588   0.54135   0.00000  Uiso   1.00
O859   O     0.39075   0.57038   0.74423   0.00000  Uiso   1.00
O860   O     0.64823   0.50691   0.83380   0.00000  Uiso   1.00
O861   O     0.40796   0.49766   0.82446   0.00000  Uiso   1.00
O862   O     0.60925   0.42962   0.75576   0.00000  Uiso   1.00
O863   O     0.36898   0.42037   0.74642   0.00000  Uiso   1.00
O864   O     0.59204   0.50234   0.67554   0.00000  Uiso   1.00
O865   O     0.35177   0.49309   0.66620   0.00000  Uiso   1.00
O866   O     0.49048   0.57850   0.81787   0.00000  Uiso   1.00
Zn867  Zn    0.60453   0.50618   0.75623   0.00000  Uiso   1.00
Zn868  Zn    0.39547   0.49382   0.74376   0.00000  Uiso   1.00
C869   C     0.68092   0.59792   0.74720   0.00000  Uiso   1.00
C870   C     0.72262   0.50750   0.91635   0.00000  Uiso   1.00
C871   C     0.68671   0.65274   0.74589   0.00000  Uiso   1.00
C872   C     0.70204   0.50176   0.85506   0.00000  Uiso   1.00
C873   C     0.97278   0.34582   0.73750   0.00000  Uiso   1.00
C874   C     0.98369   0.40154   0.74733   0.00000  Uiso   1.00
C875   C     0.96446   0.49713   0.64482   0.00000  Uiso   1.00
C876   C     0.94438   0.45023   0.99127   0.00000  Uiso   1.00
C877   C     0.94518   0.49345   0.58358   0.00000  Uiso   1.00
C878   C     0.69950   0.54352   0.94914   0.00000  Uiso   1.00
C879   C     0.73427   0.57096   0.99718   0.00000  Uiso   1.00
C880   C     0.81202   0.51825   0.98642   0.00000  Uiso   1.00
C881   C     0.79230   0.56295   0.51222   0.00000  Uiso   1.00
C882   C     0.91155   0.65156   0.71579   0.00000  Uiso   1.00
C883   C     0.86617   0.34924   0.68961   0.00000  Uiso   1.00
C884   C     0.81663   0.46278   0.68014   0.00000  Uiso   1.00
C885   C     0.77142   0.41684   0.65558   0.00000  Uiso   1.00
C886   C     0.84864   0.53970   0.81667   0.00000  Uiso   1.00
C887   C     0.87104   0.40015   0.88122   0.00000  Uiso   1.00
C888   C     0.83086   0.60718   0.54618   0.00000  Uiso   1.00
C889   C     0.77598   0.49025   0.93822   0.00000  Uiso   1.00
C890   C     0.86585   0.50028   0.50617   0.00000  Uiso   1.00
C891   C     0.88871   0.46393   0.97140   0.00000  Uiso   1.00
C892   C     0.85280   0.43860   0.92131   0.00000  Uiso   1.00
C893   C     0.79545   0.44818   0.90937   0.00000  Uiso   1.00
C894   C     0.89343   0.51209   0.56264   0.00000  Uiso   1.00
C895   C     0.97298   0.46617   0.54667   0.00000  Uiso   1.00
H896   H     0.68104   0.45319   0.56131   0.00000  Uiso   1.00
H897   H     0.82700   0.65605   0.66993   0.00000  Uiso   1.00
H898   H     0.91265   0.62036   0.68162   0.00000  Uiso   1.00
H899   H     0.89550   0.63533   0.75149   0.00000  Uiso   1.00
H900   H     0.76626   0.39005   0.68749   0.00000  Uiso   1.00
H901   H     0.72924   0.42745   0.63777   0.00000  Uiso   1.00
H902   H     0.78479   0.39543   0.61946   0.00000  Uiso   1.00
H903   H     0.81424   0.49262   0.65009   0.00000  Uiso   1.00
H904   H     0.85682   0.44589   0.68442   0.00000  Uiso   1.00
H905   H     0.86982   0.52689   0.85606   0.00000  Uiso   1.00
H906   H     0.83981   0.36935   0.85731   0.00000  Uiso   1.00
H907   H     0.96497   0.42430   0.96652   0.00000  Uiso   1.00
H908   H     0.81364   0.63447   0.57300   0.00000  Uiso   1.00
H909   H     0.87229   0.53248   0.59205   0.00000  Uiso   1.00
H910   H     0.99095   0.55578   0.93354   0.00000  Uiso   1.00
H911   H     0.71784   0.60317   0.51797   0.00000  Uiso   1.00
H912   H     0.76650   0.42458   0.87443   0.00000  Uiso   1.00
H913   H     0.73040   0.33843   0.75720   0.00000  Uiso   1.00
H914   H     0.85494   0.37421   0.72430   0.00000  Uiso   1.00
H915   H     0.88127   0.37036   0.65647   0.00000  Uiso   1.00
N916   N     0.81160   0.48556   0.73542   0.00000  Uiso   1.00
N917   N     0.85507   0.51444   0.76457   0.00000  Uiso   1.00
O918   O     0.96435   0.57963   0.75357   0.00000  Uiso   1.00
O919   O     0.91936   0.40420   0.87138   0.00000  Uiso   1.00
O920   O     0.88070   0.61588   0.54135   0.00000  Uiso   1.00
O921   O     0.72408   0.57038   0.74423   0.00000  Uiso   1.00
O922   O     0.98157   0.50691   0.83380   0.00000  Uiso   1.00
O923   O     0.74130   0.49766   0.82446   0.00000  Uiso   1.00
O924   O     0.94258   0.42962   0.75576   0.00000  Uiso   1.00
O925   O     0.70231   0.42037   0.74642   0.00000  Uiso   1.00
O926   O     0.92537   0.50234   0.67554   0.00000  Uiso   1.00
O927   O     0.68510   0.49309   0.66620   0.00000  Uiso   1.00
O928   O     0.82381   0.57850   0.81787   0.00000  Uiso   1.00
Zn929  Zn    0.93786   0.50618   0.75623   0.00000  Uiso   1.00
Zn930  Zn    0.72881   0.49382   0.74376   0.00000  Uiso   1.00
C931   C     0.01425   0.93126   0.74720   0.00000  Uiso   1.00
C932   C     0.05596   0.84083   0.91635   0.00000  Uiso   1.00
C933   C     0.02004   0.98607   0.74589   0.00000  Uiso   1.00
C934   C     0.03537   0.83509   0.85506   0.00000  Uiso   1.00
C935   C     0.30611   0.67916   0.73750   0.00000  Uiso   1.00
C936   C     0.31703   0.73487   0.74733   0.00000  Uiso   1.00
C937   C     0.29779   0.83047   0.64482   0.00000  Uiso   1.00
C938   C     0.27771   0.78357   0.99127   0.00000  Uiso   1.00
C939   C     0.27851   0.82678   0.58358   0.00000  Uiso   1.00
C940   C     0.03283   0.87686   0.94914   0.00000  Uiso   1.00
C941   C     0.06760   0.90430   0.99718   0.00000  Uiso   1.00
C942   C     0.14536   0.85158   0.98642   0.00000  Uiso   1.00
C943   C     0.12563   0.89628   0.51222   0.00000  Uiso   1.00
C944   C     0.24488   0.98489   0.71579   0.00000  Uiso   1.00
C945   C     0.19951   0.68258   0.68961   0.00000  Uiso   1.00
C946   C     0.14996   0.79611   0.68014   0.00000  Uiso   1.00
C947   C     0.10476   0.75017   0.65558   0.00000  Uiso   1.00
C948   C     0.18197   0.87303   0.81667   0.00000  Uiso   1.00
C949   C     0.20437   0.73349   0.88122   0.00000  Uiso   1.00
C950   C     0.16420   0.94051   0.54618   0.00000  Uiso   1.00
C951   C     0.10931   0.82359   0.93822   0.00000  Uiso   1.00
C952   C     0.19918   0.83361   0.50617   0.00000  Uiso   1.00
C953   C     0.22204   0.79726   0.97140   0.00000  Uiso   1.00
C954   C     0.18613   0.77193   0.92131   0.00000  Uiso   1.00
C955   C     0.12878   0.78151   0.90937   0.00000  Uiso   1.00
C956   C     0.22677   0.84542   0.56264   0.00000  Uiso   1.00
C957   C     0.30631   0.79950   0.54667   0.00000  Uiso   1.00
H958   H     0.01437   0.78652   0.56131   0.00000  Uiso   1.00
H959   H     0.16033   0.98938   0.66993   0.00000  Uiso   1.00
H960   H     0.24598   0.95369   0.68162   0.00000  Uiso   1.00
H961   H     0.22884   0.96866   0.75149   0.00000  Uiso   1.00
H962   H     0.09960   0.72338   0.68749   0.00000  Uiso   1.00
H963   H     0.06257   0.76078   0.63777   0.00000  Uiso   1.00
H964   H     0.11813   0.72877   0.61946   0.00000  Uiso   1.00
H965   H     0.14757   0.82596   0.65009   0.00000  Uiso   1.00
H966   H     0.19015   0.77922   0.68442   0.00000  Uiso   1.00
H967   H     0.20315   0.86022   0.85606   0.00000  Uiso   1.00
H968   H     0.17314   0.70269   0.85731   0.00000  Uiso   1.00
H969   H     0.29830   0.75763   0.96652   0.00000  Uiso   1.00
H970   H     0.14697   0.96780   0.57300   0.00000  Uiso   1.00
H971   H     0.20562   0.86581   0.59205   0.00000  Uiso   1.00
H972   H     0.32428   0.88911   0.93354   0.00000  Uiso   1.00
H973   H     0.05117   0.93651   0.51797   0.00000  Uiso   1.00
H974   H     0.09984   0.75791   0.87443   0.00000  Uiso   1.00
H975   H     0.06373   0.67177   0.75720   0.00000  Uiso   1.00
H976   H     0.18828   0.70754   0.72430   0.00000  Uiso   1.00
H977   H     0.21460   0.70370   0.65647   0.00000  Uiso   1.00
N978   N     0.14493   0.81890   0.73542   0.00000  Uiso   1.00
N979   N     0.18840   0.84777   0.76457   0.00000  Uiso   1.00
O980   O     0.29769   0.91296   0.75357   0.00000  Uiso   1.00
O981   O     0.25269   0.73753   0.87138   0.00000  Uiso   1.00
O982   O     0.21404   0.94922   0.54135   0.00000  Uiso   1.00
O983   O     0.05742   0.90371   0.74423   0.00000  Uiso   1.00
O984   O     0.31490   0.84024   0.83380   0.00000  Uiso   1.00
O985   O     0.07463   0.83099   0.82446   0.00000  Uiso   1.00
O986   O     0.27592   0.76296   0.75576   0.00000  Uiso   1.00
O987   O     0.03565   0.75371   0.74642   0.00000  Uiso   1.00
O988   O     0.25870   0.83567   0.67554   0.00000  Uiso   1.00
O989   O     0.01843   0.82642   0.66620   0.00000  Uiso   1.00
O990   O     0.15714   0.91183   0.81787   0.00000  Uiso   1.00
Zn991  Zn    0.27119   0.83951   0.75623   0.00000  Uiso   1.00
Zn992  Zn    0.06214   0.82716   0.74376   0.00000  Uiso   1.00
C993   C     0.34759   0.93126   0.74720   0.00000  Uiso   1.00
C994   C     0.38929   0.84083   0.91635   0.00000  Uiso   1.00
C995   C     0.35338   0.98607   0.74589   0.00000  Uiso   1.00
C996   C     0.36871   0.83509   0.85506   0.00000  Uiso   1.00
C997   C     0.63945   0.67916   0.73750   0.00000  Uiso   1.00
C998   C     0.65036   0.73487   0.74733   0.00000  Uiso   1.00
C999   C     0.63113   0.83047   0.64482   0.00000  Uiso   1.00
C1000  C     0.61105   0.78357   0.99127   0.00000  Uiso   1.00
C1001  C     0.61184   0.82678   0.58358   0.00000  Uiso   1.00
C1002  C     0.36616   0.87686   0.94914   0.00000  Uiso   1.00
C1003  C     0.40094   0.90430   0.99718   0.00000  Uiso   1.00
C1004  C     0.47869   0.85158   0.98642   0.00000  Uiso   1.00
C1005  C     0.45896   0.89628   0.51222   0.00000  Uiso   1.00
C1006  C     0.57822   0.98489   0.71579   0.00000  Uiso   1.00
C1007  C     0.53284   0.68258   0.68961   0.00000  Uiso   1.00
C1008  C     0.48330   0.79611   0.68014   0.00000  Uiso   1.00
C1009  C     0.43809   0.75017   0.65558   0.00000  Uiso   1.00
C1010  C     0.51531   0.87303   0.81667   0.00000  Uiso   1.00
C1011  C     0.53770   0.73349   0.88122   0.00000  Uiso   1.00
C1012  C     0.49753   0.94051   0.54618   0.00000  Uiso   1.00
C1013  C     0.44264   0.82359   0.93822   0.00000  Uiso   1.00
C1014  C     0.53252   0.83361   0.50617   0.00000  Uiso   1.00
C1015  C     0.55538   0.79726   0.97140   0.00000  Uiso   1.00
C1016  C     0.51947   0.77193   0.92131   0.00000  Uiso   1.00
C1017  C     0.46212   0.78151   0.90937   0.00000  Uiso   1.00
C1018  C     0.56010   0.84542   0.56264   0.00000  Uiso   1.00
C1019  C     0.63965   0.79950   0.54667   0.00000  Uiso   1.00
H1020  H     0.34771   0.78652   0.56131   0.00000  Uiso   1.00
H1021  H     0.49366   0.98938   0.66993   0.00000  Uiso   1.00
H1022  H     0.57931   0.95369   0.68162   0.00000  Uiso   1.00
H1023  H     0.56217   0.96866   0.75149   0.00000  Uiso   1.00
H1024  H     0.43293   0.72338   0.68749   0.00000  Uiso   1.00
H1025  H     0.39591   0.76078   0.63777   0.00000  Uiso   1.00
H1026  H     0.45146   0.72877   0.61946   0.00000  Uiso   1.00
H1027  H     0.48090   0.82596   0.65009   0.00000  Uiso   1.00
H1028  H     0.52349   0.77922   0.68442   0.00000  Uiso   1.00
H1029  H     0.53649   0.86022   0.85606   0.00000  Uiso   1.00
H1030  H     0.50647   0.70269   0.85731   0.00000  Uiso   1.00
H1031  H     0.63164   0.75763   0.96652   0.00000  Uiso   1.00
H1032  H     0.48031   0.96780   0.57300   0.00000  Uiso   1.00
H1033  H     0.53895   0.86581   0.59205   0.00000  Uiso   1.00
H1034  H     0.65762   0.88911   0.93354   0.00000  Uiso   1.00
H1035  H     0.38450   0.93651   0.51797   0.00000  Uiso   1.00
H1036  H     0.43317   0.75791   0.87443   0.00000  Uiso   1.00
H1037  H     0.39707   0.67177   0.75720   0.00000  Uiso   1.00
H1038  H     0.52161   0.70754   0.72430   0.00000  Uiso   1.00
H1039  H     0.54793   0.70370   0.65647   0.00000  Uiso   1.00
N1040  N     0.47827   0.81890   0.73542   0.00000  Uiso   1.00
N1041  N     0.52173   0.84777   0.76457   0.00000  Uiso   1.00
O1042  O     0.63102   0.91296   0.75357   0.00000  Uiso   1.00
O1043  O     0.58603   0.73753   0.87138   0.00000  Uiso   1.00
O1044  O     0.54737   0.94922   0.54135   0.00000  Uiso   1.00
O1045  O     0.39075   0.90371   0.74423   0.00000  Uiso   1.00
O1046  O     0.64823   0.84024   0.83380   0.00000  Uiso   1.00
O1047  O     0.40796   0.83099   0.82446   0.00000  Uiso   1.00
O1048  O     0.60925   0.76296   0.75576   0.00000  Uiso   1.00
O1049  O     0.36898   0.75371   0.74642   0.00000  Uiso   1.00
O1050  O     0.59204   0.83567   0.67554   0.00000  Uiso   1.00
O1051  O     0.35177   0.82642   0.66620   0.00000  Uiso   1.00
O1052  O     0.49048   0.91183   0.81787   0.00000  Uiso   1.00
Zn1053 Zn    0.60453   0.83951   0.75623   0.00000  Uiso   1.00
Zn1054 Zn    0.39547   0.82716   0.74376   0.00000  Uiso   1.00
C1055  C     0.68092   0.93126   0.74720   0.00000  Uiso   1.00
C1056  C     0.72262   0.84083   0.91635   0.00000  Uiso   1.00
C1057  C     0.68671   0.98607   0.74589   0.00000  Uiso   1.00
C1058  C     0.70204   0.83509   0.85506   0.00000  Uiso   1.00
C1059  C     0.97278   0.67916   0.73750   0.00000  Uiso   1.00
C1060  C     0.98369   0.73487   0.74733   0.00000  Uiso   1.00
C1061  C     0.96446   0.83047   0.64482   0.00000  Uiso   1.00
C1062  C     0.94438   0.78357   0.99127   0.00000  Uiso   1.00
C1063  C     0.94518   0.82678   0.58358   0.00000  Uiso   1.00
C1064  C     0.69950   0.87686   0.94914   0.00000  Uiso   1.00
C1065  C     0.73427   0.90430   0.99718   0.00000  Uiso   1.00
C1066  C     0.81202   0.85158   0.98642   0.00000  Uiso   1.00
C1067  C     0.79230   0.89628   0.51222   0.00000  Uiso   1.00
C1068  C     0.91155   0.98489   0.71579   0.00000  Uiso   1.00
C1069  C     0.86617   0.68258   0.68961   0.00000  Uiso   1.00
C1070  C     0.81663   0.79611   0.68014   0.00000  Uiso   1.00
C1071  C     0.77142   0.75017   0.65558   0.00000  Uiso   1.00
C1072  C     0.84864   0.87303   0.81667   0.00000  Uiso   1.00
C1073  C     0.87104   0.73349   0.88122   0.00000  Uiso   1.00
C1074  C     0.83086   0.94051   0.54618   0.00000  Uiso   1.00
C1075  C     0.77598   0.82359   0.93822   0.00000  Uiso   1.00
C1076  C     0.86585   0.83361   0.50617   0.00000  Uiso   1.00
C1077  C     0.88871   0.79726   0.97140   0.00000  Uiso   1.00
C1078  C     0.85280   0.77193   0.92131   0.00000  Uiso   1.00
C1079  C     0.79545   0.78151   0.90937   0.00000  Uiso   1.00
C1080  C     0.89343   0.84542   0.56264   0.00000  Uiso   1.00
C1081  C     0.97298   0.79950   0.54667   0.00000  Uiso   1.00
H1082  H     0.68104   0.78652   0.56131   0.00000  Uiso   1.00
H1083  H     0.82700   0.98938   0.66993   0.00000  Uiso   1.00
H1084  H     0.91265   0.95369   0.68162   0.00000  Uiso   1.00
H1085  H     0.89550   0.96866   0.75149   0.00000  Uiso   1.00
H1086  H     0.76626   0.72338   0.68749   0.00000  Uiso   1.00
H1087  H     0.72924   0.76078   0.63777   0.00000  Uiso   1.00
H1088  H     0.78479   0.72877   0.61946   0.00000  Uiso   1.00
H1089  H     0.81424   0.82596   0.65009   0.00000  Uiso   1.00
H1090  H     0.85682   0.77922   0.68442   0.00000  Uiso   1.00
H1091  H     0.86982   0.86022   0.85606   0.00000  Uiso   1.00
H1092  H     0.83981   0.70269   0.85731   0.00000  Uiso   1.00
H1093  H     0.96497   0.75763   0.96652   0.00000  Uiso   1.00
H1094  H     0.81364   0.96780   0.57300   0.00000  Uiso   1.00
H1095  H     0.87229   0.86581   0.59205   0.00000  Uiso   1.00
H1096  H     0.99095   0.88911   0.93354   0.00000  Uiso   1.00
H1097  H     0.71784   0.93651   0.51797   0.00000  Uiso   1.00
H1098  H     0.76650   0.75791   0.87443   0.00000  Uiso   1.00
H1099  H     0.73040   0.67177   0.75720   0.00000  Uiso   1.00
H1100  H     0.85494   0.70754   0.72430   0.00000  Uiso   1.00
H1101  H     0.88127   0.70370   0.65647   0.00000  Uiso   1.00
N1102  N     0.81160   0.81890   0.73542   0.00000  Uiso   1.00
N1103  N     0.85507   0.84777   0.76457   0.00000  Uiso   1.00
O1104  O     0.96435   0.91296   0.75357   0.00000  Uiso   1.00
O1105  O     0.91936   0.73753   0.87138   0.00000  Uiso   1.00
O1106  O     0.88070   0.94922   0.54135   0.00000  Uiso   1.00
O1107  O     0.72408   0.90371   0.74423   0.00000  Uiso   1.00
O1108  O     0.98157   0.84024   0.83380   0.00000  Uiso   1.00
O1109  O     0.74130   0.83099   0.82446   0.00000  Uiso   1.00
O1110  O     0.94258   0.76296   0.75576   0.00000  Uiso   1.00
O1111  O     0.70231   0.75371   0.74642   0.00000  Uiso   1.00
O1112  O     0.92537   0.83567   0.67554   0.00000  Uiso   1.00
O1113  O     0.68510   0.82642   0.66620   0.00000  Uiso   1.00
O1114  O     0.82381   0.91183   0.81787   0.00000  Uiso   1.00
Zn1115 Zn    0.93786   0.83951   0.75623   0.00000  Uiso   1.00
Zn1116 Zn    0.72881   0.82716   0.74376   0.00000  Uiso   1.00
loop_
_geom_bond_atom_site_label_1
_geom_bond_atom_site_label_2
_geom_bond_distance
_geom_bond_site_symmetry_2
_ccdc_geom_bond_type
C1     O53     1.317   .     A
C1     C3      1.429   .     S
C1     O174    1.286   1_455 S
C2     C4      1.459   .     S
C2     C21     1.409   .     A
C2     C10     1.397   .     A
C3     C315    1.365   1_455 S
C3     H231    1.087   .     S
C4     O55     1.309   .     A
C4     O178    1.310   1_455 S
C5     C6      1.445   .     S
C5     C437    1.365   1_545 S
C5     C386    1.541   1_545 S
C6     O56     1.312   .     A
C6     O119    1.298   .     S
C7     O58     1.311   .     A
C7     C9      1.456   .     S
C7     O121    1.308   .     S
C8     H39     1.078   .     S
C8     C23     1.410   .     A
C8     C585    1.390   .     S
C9     C26     1.387   .     A
C9     C27     1.396   .     A
C10    C11     1.387   .     A
C10    H166    1.084   1_455 S
C11    C571    1.401   .     S
C11    H601    1.084   .     S
C12    C21     1.408   .     A
C12    C571    1.434   .     S
C12    C580    1.416   .     S
C13    C20     1.484   .     S
C13    C569    1.401   1_554 S
C13    C570    1.434   1_554 S
C14    H31     1.113   .     S
C14    H30     1.114   .     S
C14    C191    1.541   .     S
C14    C201    1.486   .     S
C15    H47     1.111   .     S
C15    H46     1.107   .     S
C15    C386    1.486   1_545 S
C15    H401    1.110   1_545 S
C16    N48     1.448   .     S
C16    H36     1.081   .     S
C16    H35     1.110   .     S
C16    C17     1.533   .     S
C17    H33     1.085   .     S
C17    H34     1.111   .     S
C17    H32     1.104   .     S
C18    O60     1.219   .     D
C18    H37     1.084   .     S
C18    N49     1.413   .     S
C19    C24     1.487   .     S
C19    H38     1.086   .     S
C19    O51     1.220   .     D
C20    O52     1.221   .     D
C20    H40     1.083   .     S
C21    C25     1.411   .     A
C22    C26     1.391   .     A
C22    C570    1.416   1_554 S
C22    C581    1.427   1_554 S
C23    C24     1.412   .     A
C23    C580    1.427   .     S
C24    C25     1.392   .     A
C25    H44     1.085   .     S
C26    H41     1.080   .     S
C27    C566    1.390   1_554 S
C27    H90     1.077   .     S
H28    C151    1.077   1_455 S
H29    C201    1.110   .     S
H42    C72     1.084   .     S
H43    C569    1.084   1_554 S
H45    C375    1.087   1_545 S
N48    Zn62    2.053   .     S
N48    N49     1.274   .     D
N49    Zn61    2.053   .     S
O50    Zn61    1.975   .     S
O50    C63     1.286   .     S
O53    Zn62    2.011   .     S
O54    Zn61    1.960   .     S
O54    C66     1.310   .     S
O55    Zn62    1.910   .     S
O56    Zn61    2.011   .     S
O57    Zn62    1.975   .     S
O57    C130    1.298   1_455 S
O58    Zn61    1.910   .     S
O59    Zn62    1.960   .     S
O59    C131    1.308   1_455 S
C63    O115    1.317   .     A
C63    C65     1.429   .     S
C64    C66     1.459   .     S
C64    C83     1.409   .     A
C64    C72     1.397   .     A
C65    C191    1.365   .     S
C65    H293    1.087   .     S
C66    O117    1.309   .     A
C67    C68     1.445   .     S
C67    C499    1.365   1_545 S
C67    C448    1.541   1_545 S
C68    O118    1.312   .     A
C68    O181    1.298   .     S
C69    O120    1.311   .     A
C69    C71     1.456   .     S
C69    O183    1.308   .     S
C70    H101    1.078   .     S
C70    C85     1.410   .     A
C70    C647    1.390   .     S
C71    C88     1.387   .     A
C71    C89     1.396   .     A
C72    C73     1.387   .     A
C73    C633    1.401   .     S
C73    H663    1.084   .     S
C74    C83     1.408   .     A
C74    C633    1.434   .     S
C74    C642    1.416   .     S
C75    C82     1.484   .     S
C75    C631    1.401   1_554 S
C75    C632    1.434   1_554 S
C76    H93     1.113   .     S
C76    H92     1.114   .     S
C76    C253    1.541   .     S
C76    C263    1.486   .     S
C77    H109    1.111   .     S
C77    H108    1.107   .     S
C77    C448    1.486   1_545 S
C77    H463    1.110   1_545 S
C78    N110    1.448   .     S
C78    H98     1.081   .     S
C78    H97     1.110   .     S
C78    C79     1.533   .     S
C79    H95     1.085   .     S
C79    H96     1.111   .     S
C79    H94     1.104   .     S
C80    O122    1.219   .     D
C80    H99     1.084   .     S
C80    N111    1.413   .     S
C81    C86     1.487   .     S
C81    H100    1.086   .     S
C81    O113    1.220   .     D
C82    O114    1.221   .     D
C82    H102    1.083   .     S
C83    C87     1.411   .     A
C84    C88     1.391   .     A
C84    C632    1.416   1_554 S
C84    C643    1.427   1_554 S
C85    C86     1.412   .     A
C85    C642    1.427   .     S
C86    C87     1.392   .     A
C87    H106    1.085   .     S
C88    H103    1.080   .     S
C89    C628    1.390   1_554 S
C89    H152    1.077   .     S
H91    C263    1.110   .     S
H104   C134    1.084   .     S
H105   C631    1.084   1_554 S
H107   C437    1.087   1_545 S
N110   Zn124   2.053   .     S
N110   N111    1.274   .     D
N111   Zn123   2.053   .     S
O112   Zn123   1.975   .     S
O112   C125    1.286   .     S
O115   Zn124   2.011   .     S
O116   Zn123   1.960   .     S
O116   C128    1.310   .     S
O117   Zn124   1.910   .     S
O118   Zn123   2.011   .     S
O119   Zn124   1.975   .     S
O120   Zn123   1.910   .     S
O121   Zn124   1.960   .     S
C125   O177    1.317   .     A
C125   C127    1.429   .     S
C126   C128    1.459   .     S
C126   C145    1.409   .     A
C126   C134    1.397   .     A
C127   C253    1.365   .     S
C127   H355    1.087   .     S
C128   O179    1.309   .     A
C129   C130    1.445   .     S
C129   C375    1.365   1_645 S
C129   C510    1.541   1_545 S
C130   O180    1.312   .     A
C130   O57     1.298   1_655 S
C131   O182    1.311   .     A
C131   C133    1.456   .     S
C131   O59     1.308   1_655 S
C132   H163    1.078   .     S
C132   C147    1.410   .     A
C132   C709    1.390   .     S
C133   C150    1.387   .     A
C133   C151    1.396   .     A
C134   C135    1.387   .     A
C135   C695    1.401   .     S
C135   H725    1.084   .     S
C136   C145    1.408   .     A
C136   C695    1.434   .     S
C136   C704    1.416   .     S
C137   C144    1.484   .     S
C137   C693    1.401   1_554 S
C137   C694    1.434   1_554 S
C138   H155    1.113   .     S
C138   H154    1.114   .     S
C138   C315    1.541   .     S
C138   C325    1.486   .     S
C139   H171    1.111   .     S
C139   H170    1.107   .     S
C139   C510    1.486   1_545 S
C139   H525    1.110   1_545 S
C140   N172    1.448   .     S
C140   H160    1.081   .     S
C140   H159    1.110   .     S
C140   C141    1.533   .     S
C141   H157    1.085   .     S
C141   H158    1.111   .     S
C141   H156    1.104   .     S
C142   O184    1.219   .     D
C142   H161    1.084   .     S
C142   N173    1.413   .     S
C143   C148    1.487   .     S
C143   H162    1.086   .     S
C143   O175    1.220   .     D
C144   O176    1.221   .     D
C144   H164    1.083   .     S
C145   C149    1.411   .     A
C146   C150    1.391   .     A
C146   C694    1.416   1_554 S
C146   C705    1.427   1_554 S
C147   C148    1.412   .     A
C147   C704    1.427   .     S
C148   C149    1.392   .     A
C149   H168    1.085   .     S
C150   H165    1.080   .     S
C151   C690    1.390   1_554 S
C151   H28     1.077   1_655 S
H153   C325    1.110   .     S
H166   C10     1.084   1_655 S
H167   C693    1.084   1_554 S
H169   C499    1.087   1_545 S
N172   Zn186   2.053   .     S
N172   N173    1.274   .     D
N173   Zn185   2.053   .     S
O174   Zn185   1.975   .     S
O174   C1      1.286   1_655 S
O177   Zn186   2.011   .     S
O178   Zn185   1.960   .     S
O178   C4      1.310   1_655 S
O179   Zn186   1.910   .     S
O180   Zn185   2.011   .     S
O181   Zn186   1.975   .     S
O182   Zn185   1.910   .     S
O183   Zn186   1.960   .     S
C187   O239    1.317   .     A
C187   C189    1.429   .     S
C187   O360    1.286   1_455 S
C188   C190    1.459   .     S
C188   C207    1.409   .     A
C188   C196    1.397   .     A
C189   C501    1.365   1_455 S
C189   H417    1.087   .     S
C190   O241    1.309   .     A
C190   O364    1.310   1_455 S
C191   C192    1.445   .     S
C192   O242    1.312   .     A
C192   O305    1.298   .     S
C193   O244    1.311   .     A
C193   C195    1.456   .     S
C193   O307    1.308   .     S
C194   H225    1.078   .     S
C194   C209    1.410   .     A
C194   C771    1.390   .     S
C195   C212    1.387   .     A
C195   C213    1.396   .     A
C196   C197    1.387   .     A
C196   H352    1.084   1_455 S
C197   C757    1.401   .     S
C197   H787    1.084   .     S
C198   C207    1.408   .     A
C198   C757    1.434   .     S
C198   C766    1.416   .     S
C199   C206    1.484   .     S
C199   C755    1.401   1_554 S
C199   C756    1.434   1_554 S
C200   H217    1.113   .     S
C200   H216    1.114   .     S
C200   C377    1.541   .     S
C200   C387    1.486   .     S
C201   H233    1.111   .     S
C201   H232    1.107   .     S
C202   N234    1.448   .     S
C202   H222    1.081   .     S
C202   H221    1.110   .     S
C202   C203    1.533   .     S
C203   H219    1.085   .     S
C203   H220    1.111   .     S
C203   H218    1.104   .     S
C204   O246    1.219   .     D
C204   H223    1.084   .     S
C204   N235    1.413   .     S
C205   C210    1.487   .     S
C205   H224    1.086   .     S
C205   O237    1.220   .     D
C206   O238    1.221   .     D
C206   H226    1.083   .     S
C207   C211    1.411   .     A
C208   C212    1.391   .     A
C208   C756    1.416   1_554 S
C208   C767    1.427   1_554 S
C209   C210    1.412   .     A
C209   C766    1.427   .     S
C210   C211    1.392   .     A
C211   H230    1.085   .     S
C212   H227    1.080   .     S
C213   C752    1.390   1_554 S
C213   H276    1.077   .     S
H214   C337    1.077   1_455 S
H215   C387    1.110   .     S
H228   C258    1.084   .     S
H229   C755    1.084   1_554 S
N234   Zn248   2.053   .     S
N234   N235    1.274   .     D
N235   Zn247   2.053   .     S
O236   Zn247   1.975   .     S
O236   C249    1.286   .     S
O239   Zn248   2.011   .     S
O240   Zn247   1.960   .     S
O240   C252    1.310   .     S
O241   Zn248   1.910   .     S
O242   Zn247   2.011   .     S
O243   Zn248   1.975   .     S
O243   C316    1.298   1_455 S
O244   Zn247   1.910   .     S
O245   Zn248   1.960   .     S
O245   C317    1.308   1_455 S
C249   O301    1.317   .     A
C249   C251    1.429   .     S
C250   C252    1.459   .     S
C250   C269    1.409   .     A
C250   C258    1.397   .     A
C251   C377    1.365   .     S
C251   H479    1.087   .     S
C252   O303    1.309   .     A
C253   C254    1.445   .     S
C254   O304    1.312   .     A
C254   O367    1.298   .     S
C255   O306    1.311   .     A
C255   C257    1.456   .     S
C255   O369    1.308   .     S
C256   H287    1.078   .     S
C256   C271    1.410   .     A
C256   C833    1.390   .     S
C257   C274    1.387   .     A
C257   C275    1.396   .     A
C258   C259    1.387   .     A
C259   C819    1.401   .     S
C259   H849    1.084   .     S
C260   C269    1.408   .     A
C260   C819    1.434   .     S
C260   C828    1.416   .     S
C261   C268    1.484   .     S
C261   C817    1.401   1_554 S
C261   C818    1.434   1_554 S
C262   H279    1.113   .     S
C262   H278    1.114   .     S
C262   C439    1.541   .     S
C262   C449    1.486   .     S
C263   H295    1.111   .     S
C263   H294    1.107   .     S
C264   N296    1.448   .     S
C264   H284    1.081   .     S
C264   H283    1.110   .     S
C264   C265    1.533   .     S
C265   H281    1.085   .     S
C265   H282    1.111   .     S
C265   H280    1.104   .     S
C266   O308    1.219   .     D
C266   H285    1.084   .     S
C266   N297    1.413   .     S
C267   C272    1.487   .     S
C267   H286    1.086   .     S
C267   O299    1.220   .     D
C268   O300    1.221   .     D
C268   H288    1.083   .     S
C269   C273    1.411   .     A
C270   C274    1.391   .     A
C270   C818    1.416   1_554 S
C270   C829    1.427   1_554 S
C271   C272    1.412   .     A
C271   C828    1.427   .     S
C272   C273    1.392   .     A
C273   H292    1.085   .     S
C274   H289    1.080   .     S
C275   C814    1.390   1_554 S
C275   H338    1.077   .     S
H277   C449    1.110   .     S
H290   C320    1.084   .     S
H291   C817    1.084   1_554 S
N296   Zn310   2.053   .     S
N296   N297    1.274   .     D
N297   Zn309   2.053   .     S
O298   Zn309   1.975   .     S
O298   C311    1.286   .     S
O301   Zn310   2.011   .     S
O302   Zn309   1.960   .     S
O302   C314    1.310   .     S
O303   Zn310   1.910   .     S
O304   Zn309   2.011   .     S
O305   Zn310   1.975   .     S
O306   Zn309   1.910   .     S
O307   Zn310   1.960   .     S
C311   O363    1.317   .     A
C311   C313    1.429   .     S
C312   C314    1.459   .     S
C312   C331    1.409   .     A
C312   C320    1.397   .     A
C313   C439    1.365   .     S
C313   H541    1.087   .     S
C314   O365    1.309   .     A
C315   C316    1.445   .     S
C315   C3      1.365   1_655 S
C316   O366    1.312   .     A
C316   O243    1.298   1_655 S
C317   O368    1.311   .     A
C317   C319    1.456   .     S
C317   O245    1.308   1_655 S
C318   H349    1.078   .     S
C318   C333    1.410   .     A
C318   C895    1.390   .     S
C319   C336    1.387   .     A
C319   C337    1.396   .     A
C320   C321    1.387   .     A
C321   C881    1.401   .     S
C321   H911    1.084   .     S
C322   C331    1.408   .     A
C322   C881    1.434   .     S
C322   C890    1.416   .     S
C323   C330    1.484   .     S
C323   C879    1.401   1_554 S
C323   C880    1.434   1_554 S
C324   H341    1.113   .     S
C324   H340    1.114   .     S
C324   C501    1.541   .     S
C324   C511    1.486   .     S
C325   H357    1.111   .     S
C325   H356    1.107   .     S
C326   N358    1.448   .     S
C326   H346    1.081   .     S
C326   H345    1.110   .     S
C326   C327    1.533   .     S
C327   H343    1.085   .     S
C327   H344    1.111   .     S
C327   H342    1.104   .     S
C328   O370    1.219   .     D
C328   H347    1.084   .     S
C328   N359    1.413   .     S
C329   C334    1.487   .     S
C329   H348    1.086   .     S
C329   O361    1.220   .     D
C330   O362    1.221   .     D
C330   H350    1.083   .     S
C331   C335    1.411   .     A
C332   C336    1.391   .     A
C332   C880    1.416   1_554 S
C332   C891    1.427   1_554 S
C333   C334    1.412   .     A
C333   C890    1.427   .     S
C334   C335    1.392   .     A
C335   H354    1.085   .     S
C336   H351    1.080   .     S
C337   C876    1.390   1_554 S
C337   H214    1.077   1_655 S
H339   C511    1.110   .     S
H352   C196    1.084   1_655 S
H353   C879    1.084   1_554 S
N358   Zn372   2.053   .     S
N358   N359    1.274   .     D
N359   Zn371   2.053   .     S
O360   Zn371   1.975   .     S
O360   C187    1.286   1_655 S
O363   Zn372   2.011   .     S
O364   Zn371   1.960   .     S
O364   C190    1.310   1_655 S
O365   Zn372   1.910   .     S
O366   Zn371   2.011   .     S
O367   Zn372   1.975   .     S
O368   Zn371   1.910   .     S
O369   Zn372   1.960   .     S
C373   O425    1.317   .     A
C373   C375    1.429   .     S
C373   O546    1.286   1_455 S
C374   C376    1.459   .     S
C374   C393    1.409   .     A
C374   C382    1.397   .     A
C375   C129    1.365   1_465 S
C375   H45     1.087   1_565 S
C376   O427    1.309   .     A
C376   O550    1.310   1_455 S
C377   C378    1.445   .     S
C378   O428    1.312   .     A
C378   O491    1.298   .     S
C379   O430    1.311   .     A
C379   C381    1.456   .     S
C379   O493    1.308   .     S
C380   H411    1.078   .     S
C380   C395    1.410   .     A
C380   C957    1.390   .     S
C381   C398    1.387   .     A
C381   C399    1.396   .     A
C382   C383    1.387   .     A
C382   H538    1.084   1_455 S
C383   C943    1.401   .     S
C383   H973    1.084   .     S
C384   C393    1.408   .     A
C384   C943    1.434   .     S
C384   C952    1.416   .     S
C385   C392    1.484   .     S
C385   C941    1.401   1_554 S
C385   C942    1.434   1_554 S
C386   H403    1.113   .     S
C386   H402    1.114   .     S
C386   C5      1.541   1_565 S
C386   C15     1.486   1_565 S
C387   H419    1.111   .     S
C387   H418    1.107   .     S
C388   N420    1.448   .     S
C388   H408    1.081   .     S
C388   H407    1.110   .     S
C388   C389    1.533   .     S
C389   H405    1.085   .     S
C389   H406    1.111   .     S
C389   H404    1.104   .     S
C390   O432    1.219   .     D
C390   H409    1.084   .     S
C390   N421    1.413   .     S
C391   C396    1.487   .     S
C391   H410    1.086   .     S
C391   O423    1.220   .     D
C392   O424    1.221   .     D
C392   H412    1.083   .     S
C393   C397    1.411   .     A
C394   C398    1.391   .     A
C394   C942    1.416   1_554 S
C394   C953    1.427   1_554 S
C395   C396    1.412   .     A
C395   C952    1.427   .     S
C396   C397    1.392   .     A
C397   H416    1.085   .     S
C398   H413    1.080   .     S
C399   C938    1.390   1_554 S
C399   H462    1.077   .     S
H400   C523    1.077   1_455 S
H401   C15     1.110   1_565 S
H414   C444    1.084   .     S
H415   C941    1.084   1_554 S
N420   Zn434   2.053   .     S
N420   N421    1.274   .     D
N421   Zn433   2.053   .     S
O422   Zn433   1.975   .     S
O422   C435    1.286   .     S
O425   Zn434   2.011   .     S
O426   Zn433   1.960   .     S
O426   C438    1.310   .     S
O427   Zn434   1.910   .     S
O428   Zn433   2.011   .     S
O429   Zn434   1.975   .     S
O429   C502    1.298   1_455 S
O430   Zn433   1.910   .     S
O431   Zn434   1.960   .     S
O431   C503    1.308   1_455 S
C435   O487    1.317   .     A
C435   C437    1.429   .     S
C436   C438    1.459   .     S
C436   C455    1.409   .     A
C436   C444    1.397   .     A
C437   C5      1.365   1_565 S
C437   H107    1.087   1_565 S
C438   O489    1.309   .     A
C439   C440    1.445   .     S
C440   O490    1.312   .     A
C440   O553    1.298   .     S
C441   O492    1.311   .     A
C441   C443    1.456   .     S
C441   O555    1.308   .     S
C442   H473    1.078   .     S
C442   C457    1.410   .     A
C442   C1019   1.390   .     S
C443   C460    1.387   .     A
C443   C461    1.396   .     A
C444   C445    1.387   .     A
C445   C1005   1.401   .     S
C445   H1035   1.084   .     S
C446   C455    1.408   .     A
C446   C1005   1.434   .     S
C446   C1014   1.416   .     S
C447   C454    1.484   .     S
C447   C1003   1.401   1_554 S
C447   C1004   1.434   1_554 S
C448   H465    1.113   .     S
C448   H464    1.114   .     S
C448   C67     1.541   1_565 S
C448   C77     1.486   1_565 S
C449   H481    1.111   .     S
C449   H480    1.107   .     S
C450   N482    1.448   .     S
C450   H470    1.081   .     S
C450   H469    1.110   .     S
C450   C451    1.533   .     S
C451   H467    1.085   .     S
C451   H468    1.111   .     S
C451   H466    1.104   .     S
C452   O494    1.219   .     D
C452   H471    1.084   .     S
C452   N483    1.413   .     S
C453   C458    1.487   .     S
C453   H472    1.086   .     S
C453   O485    1.220   .     D
C454   O486    1.221   .     D
C454   H474    1.083   .     S
C455   C459    1.411   .     A
C456   C460    1.391   .     A
C456   C1004   1.416   1_554 S
C456   C1015   1.427   1_554 S
C457   C458    1.412   .     A
C457   C1014   1.427   .     S
C458   C459    1.392   .     A
C459   H478    1.085   .     S
C460   H475    1.080   .     S
C461   C1000   1.390   1_554 S
C461   H524    1.077   .     S
H463   C77     1.110   1_565 S
H476   C506    1.084   .     S
H477   C1003   1.084   1_554 S
N482   Zn496   2.053   .     S
N482   N483    1.274   .     D
N483   Zn495   2.053   .     S
O484   Zn495   1.975   .     S
O484   C497    1.286   .     S
O487   Zn496   2.011   .     S
O488   Zn495   1.960   .     S
O488   C500    1.310   .     S
O489   Zn496   1.910   .     S
O490   Zn495   2.011   .     S
O491   Zn496   1.975   .     S
O492   Zn495   1.910   .     S
O493   Zn496   1.960   .     S
C497   O549    1.317   .     A
C497   C499    1.429   .     S
C498   C500    1.459   .     S
C498   C517    1.409   .     A
C498   C506    1.397   .     A
C499   C67     1.365   1_565 S
C499   H169    1.087   1_565 S
C500   O551    1.309   .     A
C501   C502    1.445   .     S
C501   C189    1.365   1_655 S
C502   O552    1.312   .     A
C502   O429    1.298   1_655 S
C503   O554    1.311   .     A
C503   C505    1.456   .     S
C503   O431    1.308   1_655 S
C504   H535    1.078   .     S
C504   C519    1.410   .     A
C504   C1081   1.390   .     S
C505   C522    1.387   .     A
C505   C523    1.396   .     A
C506   C507    1.387   .     A
C507   C1067   1.401   .     S
C507   H1097   1.084   .     S
C508   C517    1.408   .     A
C508   C1067   1.434   .     S
C508   C1076   1.416   .     S
C509   C516    1.484   .     S
C509   C1065   1.401   1_554 S
C509   C1066   1.434   1_554 S
C510   H527    1.113   .     S
C510   H526    1.114   .     S
C510   C129    1.541   1_565 S
C510   C139    1.486   1_565 S
C511   H543    1.111   .     S
C511   H542    1.107   .     S
C512   N544    1.448   .     S
C512   H532    1.081   .     S
C512   H531    1.110   .     S
C512   C513    1.533   .     S
C513   H529    1.085   .     S
C513   H530    1.111   .     S
C513   H528    1.104   .     S
C514   O556    1.219   .     D
C514   H533    1.084   .     S
C514   N545    1.413   .     S
C515   C520    1.487   .     S
C515   H534    1.086   .     S
C515   O547    1.220   .     D
C516   O548    1.221   .     D
C516   H536    1.083   .     S
C517   C521    1.411   .     A
C518   C522    1.391   .     A
C518   C1066   1.416   1_554 S
C518   C1077   1.427   1_554 S
C519   C520    1.412   .     A
C519   C1076   1.427   .     S
C520   C521    1.392   .     A
C521   H540    1.085   .     S
C522   H537    1.080   .     S
C523   C1062   1.390   1_554 S
C523   H400    1.077   1_655 S
H525   C139    1.110   1_565 S
H538   C382    1.084   1_655 S
H539   C1065   1.084   1_554 S
N544   Zn558   2.053   .     S
N544   N545    1.274   .     D
N545   Zn557   2.053   .     S
O546   Zn557   1.975   .     S
O546   C373    1.286   1_655 S
O549   Zn558   2.011   .     S
O550   Zn557   1.960   .     S
O550   C376    1.310   1_655 S
O551   Zn558   1.910   .     S
O552   Zn557   2.011   .     S
O553   Zn558   1.975   .     S
O554   Zn557   1.910   .     S
O555   Zn558   1.960   .     S
C559   O611    1.317   .     A
C559   C561    1.429   .     S
C559   O732    1.286   1_455 S
C560   C562    1.459   .     S
C560   C579    1.409   .     A
C560   C568    1.397   .     A
C561   C873    1.365   1_455 S
C561   H789    1.087   .     S
C562   O613    1.309   .     A
C562   O736    1.310   1_455 S
C563   C564    1.445   .     S
C563   C995    1.365   1_545 S
C563   C944    1.541   1_545 S
C564   O614    1.312   .     A
C564   O677    1.298   .     S
C565   O616    1.311   .     A
C565   C567    1.456   .     S
C565   O679    1.308   .     S
C566   H597    1.078   .     S
C566   C581    1.410   .     A
C566   C27     1.390   1_556 S
C567   C584    1.387   .     A
C567   C585    1.396   .     A
C568   C569    1.387   .     A
C568   H724    1.084   1_455 S
C569   C13     1.401   1_556 S
C569   H43     1.084   1_556 S
C570   C579    1.408   .     A
C570   C13     1.434   1_556 S
C570   C22     1.416   1_556 S
C571   C578    1.484   .     S
C572   H589    1.113   .     S
C572   H588    1.114   .     S
C572   C749    1.541   .     S
C572   C759    1.486   .     S
C573   H605    1.111   .     S
C573   H604    1.107   .     S
C573   C944    1.486   1_545 S
C573   H959    1.110   1_545 S
C574   N606    1.448   .     S
C574   H594    1.081   .     S
C574   H593    1.110   .     S
C574   C575    1.533   .     S
C575   H591    1.085   .     S
C575   H592    1.111   .     S
C575   H590    1.104   .     S
C576   O618    1.219   .     D
C576   H595    1.084   .     S
C576   N607    1.413   .     S
C577   C582    1.487   .     S
C577   H596    1.086   .     S
C577   O609    1.220   .     D
C578   O610    1.221   .     D
C578   H598    1.083   .     S
C579   C583    1.411   .     A
C580   C584    1.391   .     A
C581   C582    1.412   .     A
C581   C22     1.427   1_556 S
C582   C583    1.392   .     A
C583   H602    1.085   .     S
C584   H599    1.080   .     S
C585   H648    1.077   .     S
H586   C709    1.077   1_455 S
H587   C759    1.110   .     S
H600   C630    1.084   .     S
H603   C933    1.087   1_545 S
N606   Zn620   2.053   .     S
N606   N607    1.274   .     D
N607   Zn619   2.053   .     S
O608   Zn619   1.975   .     S
O608   C621    1.286   .     S
O611   Zn620   2.011   .     S
O612   Zn619   1.960   .     S
O612   C624    1.310   .     S
O613   Zn620   1.910   .     S
O614   Zn619   2.011   .     S
O615   Zn620   1.975   .     S
O615   C688    1.298   1_455 S
O616   Zn619   1.910   .     S
O617   Zn620   1.960   .     S
O617   C689    1.308   1_455 S
C621   O673    1.317   .     A
C621   C623    1.429   .     S
C622   C624    1.459   .     S
C622   C641    1.409   .     A
C622   C630    1.397   .     A
C623   C749    1.365   .     S
C623   H851    1.087   .     S
C624   O675    1.309   .     A
C625   C626    1.445   .     S
C625   C1057   1.365   1_545 S
C625   C1006   1.541   1_545 S
C626   O676    1.312   .     A
C626   O739    1.298   .     S
C627   O678    1.311   .     A
C627   C629    1.456   .     S
C627   O741    1.308   .     S
C628   H659    1.078   .     S
C628   C643    1.410   .     A
C628   C89     1.390   1_556 S
C629   C646    1.387   .     A
C629   C647    1.396   .     A
C630   C631    1.387   .     A
C631   C75     1.401   1_556 S
C631   H105    1.084   1_556 S
C632   C641    1.408   .     A
C632   C75     1.434   1_556 S
C632   C84     1.416   1_556 S
C633   C640    1.484   .     S
C634   H651    1.113   .     S
C634   H650    1.114   .     S
C634   C811    1.541   .     S
C634   C821    1.486   .     S
C635   H667    1.111   .     S
C635   H666    1.107   .     S
C635   C1006   1.486   1_545 S
C635   H1021   1.110   1_545 S
C636   N668    1.448   .     S
C636   H656    1.081   .     S
C636   H655    1.110   .     S
C636   C637    1.533   .     S
C637   H653    1.085   .     S
C637   H654    1.111   .     S
C637   H652    1.104   .     S
C638   O680    1.219   .     D
C638   H657    1.084   .     S
C638   N669    1.413   .     S
C639   C644    1.487   .     S
C639   H658    1.086   .     S
C639   O671    1.220   .     D
C640   O672    1.221   .     D
C640   H660    1.083   .     S
C641   C645    1.411   .     A
C642   C646    1.391   .     A
C643   C644    1.412   .     A
C643   C84     1.427   1_556 S
C644   C645    1.392   .     A
C645   H664    1.085   .     S
C646   H661    1.080   .     S
C647   H710    1.077   .     S
H649   C821    1.110   .     S
H662   C692    1.084   .     S
H665   C995    1.087   1_545 S
N668   Zn682   2.053   .     S
N668   N669    1.274   .     D
N669   Zn681   2.053   .     S
O670   Zn681   1.975   .     S
O670   C683    1.286   .     S
O673   Zn682   2.011   .     S
O674   Zn681   1.960   .     S
O674   C686    1.310   .     S
O675   Zn682   1.910   .     S
O676   Zn681   2.011   .     S
O677   Zn682   1.975   .     S
O678   Zn681   1.910   .     S
O679   Zn682   1.960   .     S
C683   O735    1.317   .     A
C683   C685    1.429   .     S
C684   C686    1.459   .     S
C684   C703    1.409   .     A
C684   C692    1.397   .     A
C685   C811    1.365   .     S
C685   H913    1.087   .     S
C686   O737    1.309   .     A
C687   C688    1.445   .     S
C687   C933    1.365   1_645 S
C687   C1068   1.541   1_545 S
C688   O738    1.312   .     A
C688   O615    1.298   1_655 S
C689   O740    1.311   .     A
C689   C691    1.456   .     S
C689   O617    1.308   1_655 S
C690   H721    1.078   .     S
C690   C705    1.410   .     A
C690   C151    1.390   1_556 S
C691   C708    1.387   .     A
C691   C709    1.396   .     A
C692   C693    1.387   .     A
C693   C137    1.401   1_556 S
C693   H167    1.084   1_556 S
C694   C703    1.408   .     A
C694   C137    1.434   1_556 S
C694   C146    1.416   1_556 S
C695   C702    1.484   .     S
C696   H713    1.113   .     S
C696   H712    1.114   .     S
C696   C873    1.541   .     S
C696   C883    1.486   .     S
C697   H729    1.111   .     S
C697   H728    1.107   .     S
C697   C1068   1.486   1_545 S
C697   H1083   1.110   1_545 S
C698   N730    1.448   .     S
C698   H718    1.081   .     S
C698   H717    1.110   .     S
C698   C699    1.533   .     S
C699   H715    1.085   .     S
C699   H716    1.111   .     S
C699   H714    1.104   .     S
C700   O742    1.219   .     D
C700   H719    1.084   .     S
C700   N731    1.413   .     S
C701   C706    1.487   .     S
C701   H720    1.086   .     S
C701   O733    1.220   .     D
C702   O734    1.221   .     D
C702   H722    1.083   .     S
C703   C707    1.411   .     A
C704   C708    1.391   .     A
C705   C706    1.412   .     A
C705   C146    1.427   1_556 S
C706   C707    1.392   .     A
C707   H726    1.085   .     S
C708   H723    1.080   .     S
C709   H586    1.077   1_655 S
H711   C883    1.110   .     S
H724   C568    1.084   1_655 S
H727   C1057   1.087   1_545 S
N730   Zn744   2.053   .     S
N730   N731    1.274   .     D
N731   Zn743   2.053   .     S
O732   Zn743   1.975   .     S
O732   C559    1.286   1_655 S
O735   Zn744   2.011   .     S
O736   Zn743   1.960   .     S
O736   C562    1.310   1_655 S
O737   Zn744   1.910   .     S
O738   Zn743   2.011   .     S
O739   Zn744   1.975   .     S
O740   Zn743   1.910   .     S
O741   Zn744   1.960   .     S
C745   O797    1.317   .     A
C745   C747    1.429   .     S
C745   O918    1.286   1_455 S
C746   C748    1.459   .     S
C746   C765    1.409   .     A
C746   C754    1.397   .     A
C747   C1059   1.365   1_455 S
C747   H975    1.087   .     S
C748   O799    1.309   .     A
C748   O922    1.310   1_455 S
C749   C750    1.445   .     S
C750   O800    1.312   .     A
C750   O863    1.298   .     S
C751   O802    1.311   .     A
C751   C753    1.456   .     S
C751   O865    1.308   .     S
C752   H783    1.078   .     S
C752   C767    1.410   .     A
C752   C213    1.390   1_556 S
C753   C770    1.387   .     A
C753   C771    1.396   .     A
C754   C755    1.387   .     A
C754   H910    1.084   1_455 S
C755   C199    1.401   1_556 S
C755   H229    1.084   1_556 S
C756   C765    1.408   .     A
C756   C199    1.434   1_556 S
C756   C208    1.416   1_556 S
C757   C764    1.484   .     S
C758   H775    1.113   .     S
C758   H774    1.114   .     S
C758   C935    1.541   .     S
C758   C945    1.486   .     S
C759   H791    1.111   .     S
C759   H790    1.107   .     S
C760   N792    1.448   .     S
C760   H780    1.081   .     S
C760   H779    1.110   .     S
C760   C761    1.533   .     S
C761   H777    1.085   .     S
C761   H778    1.111   .     S
C761   H776    1.104   .     S
C762   O804    1.219   .     D
C762   H781    1.084   .     S
C762   N793    1.413   .     S
C763   C768    1.487   .     S
C763   H782    1.086   .     S
C763   O795    1.220   .     D
C764   O796    1.221   .     D
C764   H784    1.083   .     S
C765   C769    1.411   .     A
C766   C770    1.391   .     A
C767   C768    1.412   .     A
C767   C208    1.427   1_556 S
C768   C769    1.392   .     A
C769   H788    1.085   .     S
C770   H785    1.080   .     S
C771   H834    1.077   .     S
H772   C895    1.077   1_455 S
H773   C945    1.110   .     S
H786   C816    1.084   .     S
N792   Zn806   2.053   .     S
N792   N793    1.274   .     D
N793   Zn805   2.053   .     S
O794   Zn805   1.975   .     S
O794   C807    1.286   .     S
O797   Zn806   2.011   .     S
O798   Zn805   1.960   .     S
O798   C810    1.310   .     S
O799   Zn806   1.910   .     S
O800   Zn805   2.011   .     S
O801   Zn806   1.975   .     S
O801   C874    1.298   1_455 S
O802   Zn805   1.910   .     S
O803   Zn806   1.960   .     S
O803   C875    1.308   1_455 S
C807   O859    1.317   .     A
C807   C809    1.429   .     S
C808   C810    1.459   .     S
C808   C827    1.409   .     A
C808   C816    1.397   .     A
C809   C935    1.365   .     S
C809   H1037   1.087   .     S
C810   O861    1.309   .     A
C811   C812    1.445   .     S
C812   O862    1.312   .     A
C812   O925    1.298   .     S
C813   O864    1.311   .     A
C813   C815    1.456   .     S
C813   O927    1.308   .     S
C814   H845    1.078   .     S
C814   C829    1.410   .     A
C814   C275    1.390   1_556 S
C815   C832    1.387   .     A
C815   C833    1.396   .     A
C816   C817    1.387   .     A
C817   C261    1.401   1_556 S
C817   H291    1.084   1_556 S
C818   C827    1.408   .     A
C818   C261    1.434   1_556 S
C818   C270    1.416   1_556 S
C819   C826    1.484   .     S
C820   H837    1.113   .     S
C820   H836    1.114   .     S
C820   C997    1.541   .     S
C820   C1007   1.486   .     S
C821   H853    1.111   .     S
C821   H852    1.107   .     S
C822   N854    1.448   .     S
C822   H842    1.081   .     S
C822   H841    1.110   .     S
C822   C823    1.533   .     S
C823   H839    1.085   .     S
C823   H840    1.111   .     S
C823   H838    1.104   .     S
C824   O866    1.219   .     D
C824   H843    1.084   .     S
C824   N855    1.413   .     S
C825   C830    1.487   .     S
C825   H844    1.086   .     S
C825   O857    1.220   .     D
C826   O858    1.221   .     D
C826   H846    1.083   .     S
C827   C831    1.411   .     A
C828   C832    1.391   .     A
C829   C830    1.412   .     A
C829   C270    1.427   1_556 S
C830   C831    1.392   .     A
C831   H850    1.085   .     S
C832   H847    1.080   .     S
C833   H896    1.077   .     S
H835   C1007   1.110   .     S
H848   C878    1.084   .     S
N854   Zn868   2.053   .     S
N854   N855    1.274   .     D
N855   Zn867   2.053   .     S
O856   Zn867   1.975   .     S
O856   C869    1.286   .     S
O859   Zn868   2.011   .     S
O860   Zn867   1.960   .     S
O860   C872    1.310   .     S
O861   Zn868   1.910   .     S
O862   Zn867   2.011   .     S
O863   Zn868   1.975   .     S
O864   Zn867   1.910   .     S
O865   Zn868   1.960   .     S
C869   O921    1.317   .     A
C869   C871    1.429   .     S
C870   C872    1.459   .     S
C870   C889    1.409   .     A
C870   C878    1.397   .     A
C871   C997    1.365   .     S
C871   H1099   1.087   .     S
C872   O923    1.309   .     A
C873   C874    1.445   .     S
C873   C561    1.365   1_655 S
C874   O924    1.312   .     A
C874   O801    1.298   1_655 S
C875   O926    1.311   .     A
C875   C877    1.456   .     S
C875   O803    1.308   1_655 S
C876   H907    1.078   .     S
C876   C891    1.410   .     A
C876   C337    1.390   1_556 S
C877   C894    1.387   .     A
C877   C895    1.396   .     A
C878   C879    1.387   .     A
C879   C323    1.401   1_556 S
C879   H353    1.084   1_556 S
C880   C889    1.408   .     A
C880   C323    1.434   1_556 S
C880   C332    1.416   1_556 S
C881   C888    1.484   .     S
C882   H899    1.113   .     S
C882   H898    1.114   .     S
C882   C1059   1.541   .     S
C882   C1069   1.486   .     S
C883   H915    1.111   .     S
C883   H914    1.107   .     S
C884   N916    1.448   .     S
C884   H904    1.081   .     S
C884   H903    1.110   .     S
C884   C885    1.533   .     S
C885   H901    1.085   .     S
C885   H902    1.111   .     S
C885   H900    1.104   .     S
C886   O928    1.219   .     D
C886   H905    1.084   .     S
C886   N917    1.413   .     S
C887   C892    1.487   .     S
C887   H906    1.086   .     S
C887   O919    1.220   .     D
C888   O920    1.221   .     D
C888   H908    1.083   .     S
C889   C893    1.411   .     A
C890   C894    1.391   .     A
C891   C892    1.412   .     A
C891   C332    1.427   1_556 S
C892   C893    1.392   .     A
C893   H912    1.085   .     S
C894   H909    1.080   .     S
C895   H772    1.077   1_655 S
H897   C1069   1.110   .     S
H910   C754    1.084   1_655 S
N916   Zn930   2.053   .     S
N916   N917    1.274   .     D
N917   Zn929   2.053   .     S
O918   Zn929   1.975   .     S
O918   C745    1.286   1_655 S
O921   Zn930   2.011   .     S
O922   Zn929   1.960   .     S
O922   C748    1.310   1_655 S
O923   Zn930   1.910   .     S
O924   Zn929   2.011   .     S
O925   Zn930   1.975   .     S
O926   Zn929   1.910   .     S
O927   Zn930   1.960   .     S
C931   O983    1.317   .     A
C931   C933    1.429   .     S
C931   O1104   1.286   1_455 S
C932   C934    1.459   .     S
C932   C951    1.409   .     A
C932   C940    1.397   .     A
C933   C687    1.365   1_465 S
C933   H603    1.087   1_565 S
C934   O985    1.309   .     A
C934   O1108   1.310   1_455 S
C935   C936    1.445   .     S
C936   O986    1.312   .     A
C936   O1049   1.298   .     S
C937   O988    1.311   .     A
C937   C939    1.456   .     S
C937   O1051   1.308   .     S
C938   H969    1.078   .     S
C938   C953    1.410   .     A
C938   C399    1.390   1_556 S
C939   C956    1.387   .     A
C939   C957    1.396   .     A
C940   C941    1.387   .     A
C940   H1096   1.084   1_455 S
C941   C385    1.401   1_556 S
C941   H415    1.084   1_556 S
C942   C951    1.408   .     A
C942   C385    1.434   1_556 S
C942   C394    1.416   1_556 S
C943   C950    1.484   .     S
C944   H961    1.113   .     S
C944   H960    1.114   .     S
C944   C563    1.541   1_565 S
C944   C573    1.486   1_565 S
C945   H977    1.111   .     S
C945   H976    1.107   .     S
C946   N978    1.448   .     S
C946   H966    1.081   .     S
C946   H965    1.110   .     S
C946   C947    1.533   .     S
C947   H963    1.085   .     S
C947   H964    1.111   .     S
C947   H962    1.104   .     S
C948   O990    1.219   .     D
C948   H967    1.084   .     S
C948   N979    1.413   .     S
C949   C954    1.487   .     S
C949   H968    1.086   .     S
C949   O981    1.220   .     D
C950   O982    1.221   .     D
C950   H970    1.083   .     S
C951   C955    1.411   .     A
C952   C956    1.391   .     A
C953   C954    1.412   .     A
C953   C394    1.427   1_556 S
C954   C955    1.392   .     A
C955   H974    1.085   .     S
C956   H971    1.080   .     S
C957   H1020   1.077   .     S
H958   C1081   1.077   1_455 S
H959   C573    1.110   1_565 S
H972   C1002   1.084   .     S
N978   Zn992   2.053   .     S
N978   N979    1.274   .     D
N979   Zn991   2.053   .     S
O980   Zn991   1.975   .     S
O980   C993    1.286   .     S
O983   Zn992   2.011   .     S
O984   Zn991   1.960   .     S
O984   C996    1.310   .     S
O985   Zn992   1.910   .     S
O986   Zn991   2.011   .     S
O987   Zn992   1.975   .     S
O987   C1060   1.298   1_455 S
O988   Zn991   1.910   .     S
O989   Zn992   1.960   .     S
O989   C1061   1.308   1_455 S
C993   O1045   1.317   .     A
C993   C995    1.429   .     S
C994   C996    1.459   .     S
C994   C1013   1.409   .     A
C994   C1002   1.397   .     A
C995   C563    1.365   1_565 S
C995   H665    1.087   1_565 S
C996   O1047   1.309   .     A
C997   C998    1.445   .     S
C998   O1048   1.312   .     A
C998   O1111   1.298   .     S
C999   O1050   1.311   .     A
C999   C1001   1.456   .     S
C999   O1113   1.308   .     S
C1000  H1031   1.078   .     S
C1000  C1015   1.410   .     A
C1000  C461    1.390   1_556 S
C1001  C1018   1.387   .     A
C1001  C1019   1.396   .     A
C1002  C1003   1.387   .     A
C1003  C447    1.401   1_556 S
C1003  H477    1.084   1_556 S
C1004  C1013   1.408   .     A
C1004  C447    1.434   1_556 S
C1004  C456    1.416   1_556 S
C1005  C1012   1.484   .     S
C1006  H1023   1.113   .     S
C1006  H1022   1.114   .     S
C1006  C625    1.541   1_565 S
C1006  C635    1.486   1_565 S
C1007  H1039   1.111   .     S
C1007  H1038   1.107   .     S
C1008  N1040   1.448   .     S
C1008  H1028   1.081   .     S
C1008  H1027   1.110   .     S
C1008  C1009   1.533   .     S
C1009  H1025   1.085   .     S
C1009  H1026   1.111   .     S
C1009  H1024   1.104   .     S
C1010  O1052   1.219   .     D
C1010  H1029   1.084   .     S
C1010  N1041   1.413   .     S
C1011  C1016   1.487   .     S
C1011  H1030   1.086   .     S
C1011  O1043   1.220   .     D
C1012  O1044   1.221   .     D
C1012  H1032   1.083   .     S
C1013  C1017   1.411   .     A
C1014  C1018   1.391   .     A
C1015  C1016   1.412   .     A
C1015  C456    1.427   1_556 S
C1016  C1017   1.392   .     A
C1017  H1036   1.085   .     S
C1018  H1033   1.080   .     S
C1019  H1082   1.077   .     S
H1021  C635    1.110   1_565 S
H1034  C1064   1.084   .     S
N1040  Zn1054  2.053   .     S
N1040  N1041   1.274   .     D
N1041  Zn1053  2.053   .     S
O1042  Zn1053  1.975   .     S
O1042  C1055   1.286   .     S
O1045  Zn1054  2.011   .     S
O1046  Zn1053  1.960   .     S
O1046  C1058   1.310   .     S
O1047  Zn1054  1.910   .     S
O1048  Zn1053  2.011   .     S
O1049  Zn1054  1.975   .     S
O1050  Zn1053  1.910   .     S
O1051  Zn1054  1.960   .     S
C1055  O1107   1.317   .     A
C1055  C1057   1.429   .     S
C1056  C1058   1.459   .     S
C1056  C1075   1.409   .     A
C1056  C1064   1.397   .     A
C1057  C625    1.365   1_565 S
C1057  H727    1.087   1_565 S
C1058  O1109   1.309   .     A
C1059  C1060   1.445   .     S
C1059  C747    1.365   1_655 S
C1060  O1110   1.312   .     A
C1060  O987    1.298   1_655 S
C1061  O1112   1.311   .     A
C1061  C1063   1.456   .     S
C1061  O989    1.308   1_655 S
C1062  H1093   1.078   .     S
C1062  C1077   1.410   .     A
C1062  C523    1.390   1_556 S
C1063  C1080   1.387   .     A
C1063  C1081   1.396   .     A
C1064  C1065   1.387   .     A
C1065  C509    1.401   1_556 S
C1065  H539    1.084   1_556 S
C1066  C1075   1.408   .     A
C1066  C509    1.434   1_556 S
C1066  C518    1.416   1_556 S
C1067  C1074   1.484   .     S
C1068  H1085   1.113   .     S
C1068  H1084   1.114   .     S
C1068  C687    1.541   1_565 S
C1068  C697    1.486   1_565 S
C1069  H1101   1.111   .     S
C1069  H1100   1.107   .     S
C1070  N1102   1.448   .     S
C1070  H1090   1.081   .     S
C1070  H1089   1.110   .     S
C1070  C1071   1.533   .     S
C1071  H1087   1.085   .     S
C1071  H1088   1.111   .     S
C1071  H1086   1.104   .     S
C1072  O1114   1.219   .     D
C1072  H1091   1.084   .     S
C1072  N1103   1.413   .     S
C1073  C1078   1.487   .     S
C1073  H1092   1.086   .     S
C1073  O1105   1.220   .     D
C1074  O1106   1.221   .     D
C1074  H1094   1.083   .     S
C1075  C1079   1.411   .     A
C1076  C1080   1.391   .     A
C1077  C1078   1.412   .     A
C1077  C518    1.427   1_556 S
C1078  C1079   1.392   .     A
C1079  H1098   1.085   .     S
C1080  H1095   1.080   .     S
C1081  H958    1.077   1_655 S
H1083  C697    1.110   1_565 S
H1096  C940    1.084   1_655 S
N1102  Zn1116  2.053   .     S
N1102  N1103   1.274   .     D
N1103  Zn1115  2.053   .     S
O1104  Zn1115  1.975   .     S
O1104  C931    1.286   1_655 S
O1107  Zn1116  2.011   .     S
O1108  Zn1115  1.960   .     S
O1108  C934    1.310   1_655 S
O1109  Zn1116  1.910   .     S
O1110  Zn1115  2.011   .     S
O1111  Zn1116  1.975   .     S
O1112  Zn1115  1.910   .     S
O1113  Zn1116  1.960   .     S
