data_str_m1_o10_o16_pcu_sym.105
_audit_creation_date              2020-01-03
_audit_creation_method            'Materials Studio'
_symmetry_space_group_name_H-M    'P1'
_symmetry_Int_Tables_number       1
_symmetry_cell_setting            triclinic
loop_
_symmetry_equiv_pos_as_xyz
  x,y,z
_cell_length_a                    32.5468
_cell_length_b                    32.4610
_cell_length_c                    31.2738
_cell_angle_alpha                 96.2519
_cell_angle_beta                  74.2461
_cell_angle_gamma                 98.2358
loop_
_atom_site_label
_atom_site_type_symbol
_atom_site_fract_x
_atom_site_fract_y
_atom_site_fract_z
_atom_site_U_iso_or_equiv
_atom_site_adp_type
_atom_site_occupancy
C1     C     0.05277   0.15992   0.26001   0.00000  Uiso   1.00
C2     C     0.17013   0.16798   0.06072   0.00000  Uiso   1.00
C3     C     0.22490   0.12253   0.05666   0.00000  Uiso   1.00
C4     C     0.28081   0.17386   0.23994   0.00000  Uiso   1.00
C5     C     0.13690   0.18885   0.42034   0.00000  Uiso   1.00
C6     C     0.32678   0.17643   0.23561   0.00000  Uiso   1.00
C7     C     0.00743   0.15795   0.26422   0.00000  Uiso   1.00
C8     C     0.18022   0.32248   0.23620   0.00000  Uiso   1.00
C9     C     0.15200   0.01188   0.26417   0.00000  Uiso   1.00
C10    C     0.15616   0.05599   0.26028   0.00000  Uiso   1.00
C11    C     0.17654   0.27794   0.24012   0.00000  Uiso   1.00
C12    C     0.07907   0.18718   0.48860   0.00000  Uiso   1.00
C13    C     0.18485   0.14910   0.12958   0.00000  Uiso   1.00
C14    C     0.14859   0.18496   0.37097   0.00000  Uiso   1.00
C15    C     0.23836   0.12422   0.01077   0.00000  Uiso   1.00
C16    C     0.19177   0.14498   0.08169   0.00000  Uiso   1.00
C17    C     0.09467   0.19691   0.44445   0.00000  Uiso   1.00
C18    C     0.14527   0.20340   0.08737   0.00000  Uiso   1.00
C19    C     0.17417   0.23906   0.10491   0.00000  Uiso   1.00
C20    C     0.10532   0.17260   0.01030   0.00000  Uiso   1.00
C21    C     0.14947   0.17192   0.49006   0.00000  Uiso   1.00
C22    C     0.16503   0.17778   0.44398   0.00000  Uiso   1.00
C23    C     0.17772   0.16165   0.01367   0.00000  Uiso   1.00
C24    C     0.21593   0.14491   0.48891   0.00000  Uiso   1.00
C25    C     0.23133   0.15070   0.44325   0.00000  Uiso   1.00
C26    C     0.20798   0.17110   0.42272   0.00000  Uiso   1.00
H27    H     0.24247   0.10621   0.07304   0.00000  Uiso   1.00
H28    H     0.17143   0.23650   0.14063   0.00000  Uiso   1.00
H29    H     0.20830   0.23949   0.08545   0.00000  Uiso   1.00
H30    H     0.16363   0.26966   0.10262   0.00000  Uiso   1.00
H31    H     0.13017   0.21894   0.06692   0.00000  Uiso   1.00
H32    H     0.11904   0.19075   0.11535   0.00000  Uiso   1.00
H33    H     0.31885   0.14137   0.29135   0.00000  Uiso   1.00
H34    H     0.20617   0.00358   0.21038   0.00000  Uiso   1.00
H35    H     0.12587   0.33163   0.29033   0.00000  Uiso   1.00
H36    H     0.26633   0.10926   0.49288   0.00000  Uiso   1.00
H37    H     0.09089   0.16251   0.04351   0.00000  Uiso   1.00
H38    H     0.04591   0.19018   0.00617   0.00000  Uiso   1.00
H39    H     0.22371   0.18000   0.38945   0.00000  Uiso   1.00
H40    H     0.01599   0.19330   0.20902   0.00000  Uiso   1.00
I41    I     0.29005   0.13115   0.40262   0.00000  Uiso   1.00
I42    I     0.04948   0.22083   0.41842   0.00000  Uiso   1.00
O43    O     0.16667   0.16667   0.25000   0.00000  Uiso   1.00
O44    O     0.15451   0.12637   0.15459   0.00000  Uiso   1.00
O45    O     0.12940   0.20391   0.34968   0.00000  Uiso   1.00
O46    O     0.20824   0.17759   0.14606   0.00000  Uiso   1.00
O47    O     0.17451   0.15880   0.34968   0.00000  Uiso   1.00
O48    O     0.17930   0.08019   0.28214   0.00000  Uiso   1.00
O49    O     0.14632   0.26085   0.27014   0.00000  Uiso   1.00
O50    O     0.07412   0.13291   0.23413   0.00000  Uiso   1.00
O51    O     0.26693   0.19272   0.21361   0.00000  Uiso   1.00
O52    O     0.07071   0.18878   0.28213   0.00000  Uiso   1.00
O53    O     0.25491   0.15226   0.27014   0.00000  Uiso   1.00
O54    O     0.13760   0.06944   0.23413   0.00000  Uiso   1.00
O55    O     0.20345   0.25620   0.21361   0.00000  Uiso   1.00
Zn56   Zn    0.19338   0.13994   0.28734   0.00000  Uiso   1.00
Zn57   Zn    0.13379   0.12458   0.21876   0.00000  Uiso   1.00
Zn58   Zn    0.21056   0.19775   0.20657   0.00000  Uiso   1.00
Zn59   Zn    0.12893   0.20439   0.28734   0.00000  Uiso   1.00
C60    C     0.38611   0.15992   0.26001   0.00000  Uiso   1.00
C61    C     0.50347   0.16798   0.06072   0.00000  Uiso   1.00
C62    C     0.55823   0.12253   0.05666   0.00000  Uiso   1.00
C63    C     0.61415   0.17386   0.23994   0.00000  Uiso   1.00
C64    C     0.47023   0.18885   0.42034   0.00000  Uiso   1.00
C65    C     0.66011   0.17643   0.23561   0.00000  Uiso   1.00
C66    C     0.34076   0.15795   0.26422   0.00000  Uiso   1.00
C67    C     0.51355   0.32248   0.23620   0.00000  Uiso   1.00
C68    C     0.48533   0.01188   0.26417   0.00000  Uiso   1.00
C69    C     0.48949   0.05599   0.26028   0.00000  Uiso   1.00
C70    C     0.50987   0.27794   0.24012   0.00000  Uiso   1.00
C71    C     0.41240   0.18718   0.48860   0.00000  Uiso   1.00
C72    C     0.51818   0.14910   0.12958   0.00000  Uiso   1.00
C73    C     0.48192   0.18496   0.37097   0.00000  Uiso   1.00
C74    C     0.57170   0.12422   0.01077   0.00000  Uiso   1.00
C75    C     0.52511   0.14498   0.08169   0.00000  Uiso   1.00
C76    C     0.42801   0.19691   0.44445   0.00000  Uiso   1.00
C77    C     0.47860   0.20340   0.08737   0.00000  Uiso   1.00
C78    C     0.50750   0.23906   0.10491   0.00000  Uiso   1.00
C79    C     0.43865   0.17260   0.01030   0.00000  Uiso   1.00
C80    C     0.48280   0.17192   0.49006   0.00000  Uiso   1.00
C81    C     0.49836   0.17778   0.44398   0.00000  Uiso   1.00
C82    C     0.51105   0.16165   0.01367   0.00000  Uiso   1.00
C83    C     0.54926   0.14491   0.48891   0.00000  Uiso   1.00
C84    C     0.56466   0.15070   0.44325   0.00000  Uiso   1.00
C85    C     0.54131   0.17110   0.42272   0.00000  Uiso   1.00
H86    H     0.57580   0.10621   0.07304   0.00000  Uiso   1.00
H87    H     0.50476   0.23650   0.14063   0.00000  Uiso   1.00
H88    H     0.54164   0.23949   0.08545   0.00000  Uiso   1.00
H89    H     0.49697   0.26966   0.10262   0.00000  Uiso   1.00
H90    H     0.46350   0.21894   0.06692   0.00000  Uiso   1.00
H91    H     0.45238   0.19075   0.11535   0.00000  Uiso   1.00
H92    H     0.65218   0.14137   0.29135   0.00000  Uiso   1.00
H93    H     0.53950   0.00358   0.21038   0.00000  Uiso   1.00
H94    H     0.45921   0.33163   0.29033   0.00000  Uiso   1.00
H95    H     0.59966   0.10926   0.49288   0.00000  Uiso   1.00
H96    H     0.42423   0.16251   0.04351   0.00000  Uiso   1.00
H97    H     0.37925   0.19018   0.00617   0.00000  Uiso   1.00
H98    H     0.55704   0.18000   0.38945   0.00000  Uiso   1.00
H99    H     0.34933   0.19330   0.20902   0.00000  Uiso   1.00
I100   I     0.62339   0.13115   0.40262   0.00000  Uiso   1.00
I101   I     0.38281   0.22083   0.41842   0.00000  Uiso   1.00
O102   O     0.50000   0.16667   0.25000   0.00000  Uiso   1.00
O103   O     0.48784   0.12637   0.15459   0.00000  Uiso   1.00
O104   O     0.46274   0.20391   0.34968   0.00000  Uiso   1.00
O105   O     0.54157   0.17759   0.14606   0.00000  Uiso   1.00
O106   O     0.50785   0.15880   0.34968   0.00000  Uiso   1.00
O107   O     0.51264   0.08019   0.28214   0.00000  Uiso   1.00
O108   O     0.47965   0.26085   0.27014   0.00000  Uiso   1.00
O109   O     0.40745   0.13291   0.23413   0.00000  Uiso   1.00
O110   O     0.60026   0.19272   0.21361   0.00000  Uiso   1.00
O111   O     0.40405   0.18878   0.28213   0.00000  Uiso   1.00
O112   O     0.58824   0.15226   0.27014   0.00000  Uiso   1.00
O113   O     0.47093   0.06944   0.23413   0.00000  Uiso   1.00
O114   O     0.53678   0.25620   0.21361   0.00000  Uiso   1.00
Zn115  Zn    0.52672   0.13994   0.28734   0.00000  Uiso   1.00
Zn116  Zn    0.46713   0.12458   0.21876   0.00000  Uiso   1.00
Zn117  Zn    0.54389   0.19775   0.20657   0.00000  Uiso   1.00
Zn118  Zn    0.46226   0.20439   0.28734   0.00000  Uiso   1.00
C119   C     0.71944   0.15992   0.26001   0.00000  Uiso   1.00
C120   C     0.83680   0.16798   0.06072   0.00000  Uiso   1.00
C121   C     0.89156   0.12253   0.05666   0.00000  Uiso   1.00
C122   C     0.94748   0.17386   0.23994   0.00000  Uiso   1.00
C123   C     0.80357   0.18885   0.42034   0.00000  Uiso   1.00
C124   C     0.99345   0.17643   0.23561   0.00000  Uiso   1.00
C125   C     0.67410   0.15795   0.26422   0.00000  Uiso   1.00
C126   C     0.84689   0.32248   0.23620   0.00000  Uiso   1.00
C127   C     0.81867   0.01188   0.26417   0.00000  Uiso   1.00
C128   C     0.82283   0.05599   0.26028   0.00000  Uiso   1.00
C129   C     0.84321   0.27794   0.24012   0.00000  Uiso   1.00
C130   C     0.74574   0.18718   0.48860   0.00000  Uiso   1.00
C131   C     0.85152   0.14910   0.12958   0.00000  Uiso   1.00
C132   C     0.81525   0.18496   0.37097   0.00000  Uiso   1.00
C133   C     0.90503   0.12422   0.01077   0.00000  Uiso   1.00
C134   C     0.85844   0.14498   0.08169   0.00000  Uiso   1.00
C135   C     0.76134   0.19691   0.44445   0.00000  Uiso   1.00
C136   C     0.81193   0.20340   0.08737   0.00000  Uiso   1.00
C137   C     0.84084   0.23906   0.10491   0.00000  Uiso   1.00
C138   C     0.77198   0.17260   0.01030   0.00000  Uiso   1.00
C139   C     0.81613   0.17192   0.49006   0.00000  Uiso   1.00
C140   C     0.83170   0.17778   0.44398   0.00000  Uiso   1.00
C141   C     0.84438   0.16165   0.01367   0.00000  Uiso   1.00
C142   C     0.88260   0.14491   0.48891   0.00000  Uiso   1.00
C143   C     0.89800   0.15070   0.44325   0.00000  Uiso   1.00
C144   C     0.87464   0.17110   0.42272   0.00000  Uiso   1.00
H145   H     0.90914   0.10621   0.07304   0.00000  Uiso   1.00
H146   H     0.83809   0.23650   0.14063   0.00000  Uiso   1.00
H147   H     0.87497   0.23949   0.08545   0.00000  Uiso   1.00
H148   H     0.83030   0.26966   0.10262   0.00000  Uiso   1.00
H149   H     0.79684   0.21894   0.06692   0.00000  Uiso   1.00
H150   H     0.78571   0.19075   0.11535   0.00000  Uiso   1.00
H151   H     0.98551   0.14137   0.29135   0.00000  Uiso   1.00
H152   H     0.87284   0.00358   0.21038   0.00000  Uiso   1.00
H153   H     0.79254   0.33163   0.29033   0.00000  Uiso   1.00
H154   H     0.93299   0.10926   0.49288   0.00000  Uiso   1.00
H155   H     0.75756   0.16251   0.04351   0.00000  Uiso   1.00
H156   H     0.71258   0.19018   0.00617   0.00000  Uiso   1.00
H157   H     0.89038   0.18000   0.38945   0.00000  Uiso   1.00
H158   H     0.68266   0.19330   0.20902   0.00000  Uiso   1.00
I159   I     0.95672   0.13115   0.40262   0.00000  Uiso   1.00
I160   I     0.71614   0.22083   0.41842   0.00000  Uiso   1.00
O161   O     0.83333   0.16667   0.25000   0.00000  Uiso   1.00
O162   O     0.82118   0.12637   0.15459   0.00000  Uiso   1.00
O163   O     0.79607   0.20391   0.34968   0.00000  Uiso   1.00
O164   O     0.87491   0.17759   0.14606   0.00000  Uiso   1.00
O165   O     0.84118   0.15880   0.34968   0.00000  Uiso   1.00
O166   O     0.84597   0.08019   0.28214   0.00000  Uiso   1.00
O167   O     0.81298   0.26085   0.27014   0.00000  Uiso   1.00
O168   O     0.74078   0.13291   0.23413   0.00000  Uiso   1.00
O169   O     0.93360   0.19272   0.21361   0.00000  Uiso   1.00
O170   O     0.73738   0.18878   0.28213   0.00000  Uiso   1.00
O171   O     0.92158   0.15226   0.27014   0.00000  Uiso   1.00
O172   O     0.80426   0.06944   0.23413   0.00000  Uiso   1.00
O173   O     0.87012   0.25620   0.21361   0.00000  Uiso   1.00
Zn174  Zn    0.86005   0.13994   0.28734   0.00000  Uiso   1.00
Zn175  Zn    0.80046   0.12458   0.21876   0.00000  Uiso   1.00
Zn176  Zn    0.87723   0.19775   0.20657   0.00000  Uiso   1.00
Zn177  Zn    0.79560   0.20439   0.28734   0.00000  Uiso   1.00
C178   C     0.05277   0.49325   0.26001   0.00000  Uiso   1.00
C179   C     0.17013   0.50132   0.06072   0.00000  Uiso   1.00
C180   C     0.22490   0.45586   0.05666   0.00000  Uiso   1.00
C181   C     0.28081   0.50719   0.23994   0.00000  Uiso   1.00
C182   C     0.13690   0.52219   0.42034   0.00000  Uiso   1.00
C183   C     0.32678   0.50976   0.23561   0.00000  Uiso   1.00
C184   C     0.00743   0.49129   0.26422   0.00000  Uiso   1.00
C185   C     0.18022   0.65582   0.23620   0.00000  Uiso   1.00
C186   C     0.15200   0.34522   0.26417   0.00000  Uiso   1.00
C187   C     0.15616   0.38932   0.26028   0.00000  Uiso   1.00
C188   C     0.17654   0.61127   0.24012   0.00000  Uiso   1.00
C189   C     0.07907   0.52051   0.48860   0.00000  Uiso   1.00
C190   C     0.18485   0.48244   0.12958   0.00000  Uiso   1.00
C191   C     0.14859   0.51829   0.37097   0.00000  Uiso   1.00
C192   C     0.23836   0.45755   0.01077   0.00000  Uiso   1.00
C193   C     0.19177   0.47831   0.08169   0.00000  Uiso   1.00
C194   C     0.09467   0.53025   0.44445   0.00000  Uiso   1.00
C195   C     0.14527   0.53674   0.08737   0.00000  Uiso   1.00
C196   C     0.17417   0.57239   0.10491   0.00000  Uiso   1.00
C197   C     0.10532   0.50593   0.01030   0.00000  Uiso   1.00
C198   C     0.14947   0.50525   0.49006   0.00000  Uiso   1.00
C199   C     0.16503   0.51112   0.44398   0.00000  Uiso   1.00
C200   C     0.17772   0.49498   0.01367   0.00000  Uiso   1.00
C201   C     0.21593   0.47825   0.48891   0.00000  Uiso   1.00
C202   C     0.23133   0.48403   0.44325   0.00000  Uiso   1.00
C203   C     0.20798   0.50443   0.42272   0.00000  Uiso   1.00
H204   H     0.24247   0.43955   0.07304   0.00000  Uiso   1.00
H205   H     0.17143   0.56983   0.14063   0.00000  Uiso   1.00
H206   H     0.20830   0.57282   0.08545   0.00000  Uiso   1.00
H207   H     0.16363   0.60299   0.10262   0.00000  Uiso   1.00
H208   H     0.13017   0.55228   0.06692   0.00000  Uiso   1.00
H209   H     0.11904   0.52408   0.11535   0.00000  Uiso   1.00
H210   H     0.31885   0.47470   0.29135   0.00000  Uiso   1.00
H211   H     0.20617   0.33691   0.21038   0.00000  Uiso   1.00
H212   H     0.12587   0.66496   0.29033   0.00000  Uiso   1.00
H213   H     0.26633   0.44259   0.49288   0.00000  Uiso   1.00
H214   H     0.09089   0.49584   0.04351   0.00000  Uiso   1.00
H215   H     0.04591   0.52352   0.00617   0.00000  Uiso   1.00
H216   H     0.22371   0.51333   0.38945   0.00000  Uiso   1.00
H217   H     0.01599   0.52663   0.20902   0.00000  Uiso   1.00
I218   I     0.29005   0.46448   0.40262   0.00000  Uiso   1.00
I219   I     0.04948   0.55416   0.41842   0.00000  Uiso   1.00
O220   O     0.16667   0.50000   0.25000   0.00000  Uiso   1.00
O221   O     0.15451   0.45970   0.15459   0.00000  Uiso   1.00
O222   O     0.12940   0.53724   0.34968   0.00000  Uiso   1.00
O223   O     0.20824   0.51092   0.14606   0.00000  Uiso   1.00
O224   O     0.17451   0.49213   0.34968   0.00000  Uiso   1.00
O225   O     0.17930   0.41352   0.28214   0.00000  Uiso   1.00
O226   O     0.14632   0.59418   0.27014   0.00000  Uiso   1.00
O227   O     0.07412   0.46625   0.23413   0.00000  Uiso   1.00
O228   O     0.26693   0.52605   0.21361   0.00000  Uiso   1.00
O229   O     0.07071   0.52211   0.28213   0.00000  Uiso   1.00
O230   O     0.25491   0.48559   0.27014   0.00000  Uiso   1.00
O231   O     0.13760   0.40277   0.23413   0.00000  Uiso   1.00
O232   O     0.20345   0.58953   0.21361   0.00000  Uiso   1.00
Zn233  Zn    0.19338   0.47327   0.28734   0.00000  Uiso   1.00
Zn234  Zn    0.13379   0.45791   0.21876   0.00000  Uiso   1.00
Zn235  Zn    0.21056   0.53109   0.20657   0.00000  Uiso   1.00
Zn236  Zn    0.12893   0.53773   0.28734   0.00000  Uiso   1.00
C237   C     0.38611   0.49325   0.26001   0.00000  Uiso   1.00
C238   C     0.50347   0.50132   0.06072   0.00000  Uiso   1.00
C239   C     0.55823   0.45586   0.05666   0.00000  Uiso   1.00
C240   C     0.61415   0.50719   0.23994   0.00000  Uiso   1.00
C241   C     0.47023   0.52219   0.42034   0.00000  Uiso   1.00
C242   C     0.66011   0.50976   0.23561   0.00000  Uiso   1.00
C243   C     0.34076   0.49129   0.26422   0.00000  Uiso   1.00
C244   C     0.51355   0.65582   0.23620   0.00000  Uiso   1.00
C245   C     0.48533   0.34522   0.26417   0.00000  Uiso   1.00
C246   C     0.48949   0.38932   0.26028   0.00000  Uiso   1.00
C247   C     0.50987   0.61127   0.24012   0.00000  Uiso   1.00
C248   C     0.41240   0.52051   0.48860   0.00000  Uiso   1.00
C249   C     0.51818   0.48244   0.12958   0.00000  Uiso   1.00
C250   C     0.48192   0.51829   0.37097   0.00000  Uiso   1.00
C251   C     0.57170   0.45755   0.01077   0.00000  Uiso   1.00
C252   C     0.52511   0.47831   0.08169   0.00000  Uiso   1.00
C253   C     0.42801   0.53025   0.44445   0.00000  Uiso   1.00
C254   C     0.47860   0.53674   0.08737   0.00000  Uiso   1.00
C255   C     0.50750   0.57239   0.10491   0.00000  Uiso   1.00
C256   C     0.43865   0.50593   0.01030   0.00000  Uiso   1.00
C257   C     0.48280   0.50525   0.49006   0.00000  Uiso   1.00
C258   C     0.49836   0.51112   0.44398   0.00000  Uiso   1.00
C259   C     0.51105   0.49498   0.01367   0.00000  Uiso   1.00
C260   C     0.54926   0.47825   0.48891   0.00000  Uiso   1.00
C261   C     0.56466   0.48403   0.44325   0.00000  Uiso   1.00
C262   C     0.54131   0.50443   0.42272   0.00000  Uiso   1.00
H263   H     0.57580   0.43955   0.07304   0.00000  Uiso   1.00
H264   H     0.50476   0.56983   0.14063   0.00000  Uiso   1.00
H265   H     0.54164   0.57282   0.08545   0.00000  Uiso   1.00
H266   H     0.49697   0.60299   0.10262   0.00000  Uiso   1.00
H267   H     0.46350   0.55228   0.06692   0.00000  Uiso   1.00
H268   H     0.45238   0.52408   0.11535   0.00000  Uiso   1.00
H269   H     0.65218   0.47470   0.29135   0.00000  Uiso   1.00
H270   H     0.53950   0.33691   0.21038   0.00000  Uiso   1.00
H271   H     0.45921   0.66496   0.29033   0.00000  Uiso   1.00
H272   H     0.59966   0.44259   0.49288   0.00000  Uiso   1.00
H273   H     0.42423   0.49584   0.04351   0.00000  Uiso   1.00
H274   H     0.37925   0.52352   0.00617   0.00000  Uiso   1.00
H275   H     0.55704   0.51333   0.38945   0.00000  Uiso   1.00
H276   H     0.34933   0.52663   0.20902   0.00000  Uiso   1.00
I277   I     0.62339   0.46448   0.40262   0.00000  Uiso   1.00
I278   I     0.38281   0.55416   0.41842   0.00000  Uiso   1.00
O279   O     0.50000   0.50000   0.25000   0.00000  Uiso   1.00
O280   O     0.48784   0.45970   0.15459   0.00000  Uiso   1.00
O281   O     0.46274   0.53724   0.34968   0.00000  Uiso   1.00
O282   O     0.54157   0.51092   0.14606   0.00000  Uiso   1.00
O283   O     0.50785   0.49213   0.34968   0.00000  Uiso   1.00
O284   O     0.51264   0.41352   0.28214   0.00000  Uiso   1.00
O285   O     0.47965   0.59418   0.27014   0.00000  Uiso   1.00
O286   O     0.40745   0.46625   0.23413   0.00000  Uiso   1.00
O287   O     0.60026   0.52605   0.21361   0.00000  Uiso   1.00
O288   O     0.40405   0.52211   0.28213   0.00000  Uiso   1.00
O289   O     0.58824   0.48559   0.27014   0.00000  Uiso   1.00
O290   O     0.47093   0.40277   0.23413   0.00000  Uiso   1.00
O291   O     0.53678   0.58953   0.21361   0.00000  Uiso   1.00
Zn292  Zn    0.52672   0.47327   0.28734   0.00000  Uiso   1.00
Zn293  Zn    0.46713   0.45791   0.21876   0.00000  Uiso   1.00
Zn294  Zn    0.54389   0.53109   0.20657   0.00000  Uiso   1.00
Zn295  Zn    0.46226   0.53773   0.28734   0.00000  Uiso   1.00
C296   C     0.71944   0.49325   0.26001   0.00000  Uiso   1.00
C297   C     0.83680   0.50132   0.06072   0.00000  Uiso   1.00
C298   C     0.89156   0.45586   0.05666   0.00000  Uiso   1.00
C299   C     0.94748   0.50719   0.23994   0.00000  Uiso   1.00
C300   C     0.80357   0.52219   0.42034   0.00000  Uiso   1.00
C301   C     0.99345   0.50976   0.23561   0.00000  Uiso   1.00
C302   C     0.67410   0.49129   0.26422   0.00000  Uiso   1.00
C303   C     0.84689   0.65582   0.23620   0.00000  Uiso   1.00
C304   C     0.81867   0.34522   0.26417   0.00000  Uiso   1.00
C305   C     0.82283   0.38932   0.26028   0.00000  Uiso   1.00
C306   C     0.84321   0.61127   0.24012   0.00000  Uiso   1.00
C307   C     0.74574   0.52051   0.48860   0.00000  Uiso   1.00
C308   C     0.85152   0.48244   0.12958   0.00000  Uiso   1.00
C309   C     0.81525   0.51829   0.37097   0.00000  Uiso   1.00
C310   C     0.90503   0.45755   0.01077   0.00000  Uiso   1.00
C311   C     0.85844   0.47831   0.08169   0.00000  Uiso   1.00
C312   C     0.76134   0.53025   0.44445   0.00000  Uiso   1.00
C313   C     0.81193   0.53674   0.08737   0.00000  Uiso   1.00
C314   C     0.84084   0.57239   0.10491   0.00000  Uiso   1.00
C315   C     0.77198   0.50593   0.01030   0.00000  Uiso   1.00
C316   C     0.81613   0.50525   0.49006   0.00000  Uiso   1.00
C317   C     0.83170   0.51112   0.44398   0.00000  Uiso   1.00
C318   C     0.84438   0.49498   0.01367   0.00000  Uiso   1.00
C319   C     0.88260   0.47825   0.48891   0.00000  Uiso   1.00
C320   C     0.89800   0.48403   0.44325   0.00000  Uiso   1.00
C321   C     0.87464   0.50443   0.42272   0.00000  Uiso   1.00
H322   H     0.90914   0.43955   0.07304   0.00000  Uiso   1.00
H323   H     0.83809   0.56983   0.14063   0.00000  Uiso   1.00
H324   H     0.87497   0.57282   0.08545   0.00000  Uiso   1.00
H325   H     0.83030   0.60299   0.10262   0.00000  Uiso   1.00
H326   H     0.79684   0.55228   0.06692   0.00000  Uiso   1.00
H327   H     0.78571   0.52408   0.11535   0.00000  Uiso   1.00
H328   H     0.98551   0.47470   0.29135   0.00000  Uiso   1.00
H329   H     0.87284   0.33691   0.21038   0.00000  Uiso   1.00
H330   H     0.79254   0.66496   0.29033   0.00000  Uiso   1.00
H331   H     0.93299   0.44259   0.49288   0.00000  Uiso   1.00
H332   H     0.75756   0.49584   0.04351   0.00000  Uiso   1.00
H333   H     0.71258   0.52352   0.00617   0.00000  Uiso   1.00
H334   H     0.89038   0.51333   0.38945   0.00000  Uiso   1.00
H335   H     0.68266   0.52663   0.20902   0.00000  Uiso   1.00
I336   I     0.95672   0.46448   0.40262   0.00000  Uiso   1.00
I337   I     0.71614   0.55416   0.41842   0.00000  Uiso   1.00
O338   O     0.83333   0.50000   0.25000   0.00000  Uiso   1.00
O339   O     0.82118   0.45970   0.15459   0.00000  Uiso   1.00
O340   O     0.79607   0.53724   0.34968   0.00000  Uiso   1.00
O341   O     0.87491   0.51092   0.14606   0.00000  Uiso   1.00
O342   O     0.84118   0.49213   0.34968   0.00000  Uiso   1.00
O343   O     0.84597   0.41352   0.28214   0.00000  Uiso   1.00
O344   O     0.81298   0.59418   0.27014   0.00000  Uiso   1.00
O345   O     0.74078   0.46625   0.23413   0.00000  Uiso   1.00
O346   O     0.93360   0.52605   0.21361   0.00000  Uiso   1.00
O347   O     0.73738   0.52211   0.28213   0.00000  Uiso   1.00
O348   O     0.92158   0.48559   0.27014   0.00000  Uiso   1.00
O349   O     0.80426   0.40277   0.23413   0.00000  Uiso   1.00
O350   O     0.87012   0.58953   0.21361   0.00000  Uiso   1.00
Zn351  Zn    0.86005   0.47327   0.28734   0.00000  Uiso   1.00
Zn352  Zn    0.80046   0.45791   0.21876   0.00000  Uiso   1.00
Zn353  Zn    0.87723   0.53109   0.20657   0.00000  Uiso   1.00
Zn354  Zn    0.79560   0.53773   0.28734   0.00000  Uiso   1.00
C355   C     0.05277   0.82659   0.26001   0.00000  Uiso   1.00
C356   C     0.17013   0.83465   0.06072   0.00000  Uiso   1.00
C357   C     0.22490   0.78919   0.05666   0.00000  Uiso   1.00
C358   C     0.28081   0.84053   0.23994   0.00000  Uiso   1.00
C359   C     0.13690   0.85552   0.42034   0.00000  Uiso   1.00
C360   C     0.32678   0.84309   0.23561   0.00000  Uiso   1.00
C361   C     0.00743   0.82462   0.26422   0.00000  Uiso   1.00
C362   C     0.18022   0.98915   0.23620   0.00000  Uiso   1.00
C363   C     0.15200   0.67855   0.26417   0.00000  Uiso   1.00
C364   C     0.15616   0.72265   0.26028   0.00000  Uiso   1.00
C365   C     0.17654   0.94461   0.24012   0.00000  Uiso   1.00
C366   C     0.07907   0.85385   0.48860   0.00000  Uiso   1.00
C367   C     0.18485   0.81577   0.12958   0.00000  Uiso   1.00
C368   C     0.14859   0.85162   0.37097   0.00000  Uiso   1.00
C369   C     0.23836   0.79088   0.01077   0.00000  Uiso   1.00
C370   C     0.19177   0.81164   0.08169   0.00000  Uiso   1.00
C371   C     0.09467   0.86358   0.44445   0.00000  Uiso   1.00
C372   C     0.14527   0.87007   0.08737   0.00000  Uiso   1.00
C373   C     0.17417   0.90573   0.10491   0.00000  Uiso   1.00
C374   C     0.10532   0.83927   0.01030   0.00000  Uiso   1.00
C375   C     0.14947   0.83858   0.49006   0.00000  Uiso   1.00
C376   C     0.16503   0.84445   0.44398   0.00000  Uiso   1.00
C377   C     0.17772   0.82832   0.01367   0.00000  Uiso   1.00
C378   C     0.21593   0.81158   0.48891   0.00000  Uiso   1.00
C379   C     0.23133   0.81737   0.44325   0.00000  Uiso   1.00
C380   C     0.20798   0.83776   0.42272   0.00000  Uiso   1.00
H381   H     0.24247   0.77288   0.07304   0.00000  Uiso   1.00
H382   H     0.17143   0.90317   0.14063   0.00000  Uiso   1.00
H383   H     0.20830   0.90615   0.08545   0.00000  Uiso   1.00
H384   H     0.16363   0.93632   0.10262   0.00000  Uiso   1.00
H385   H     0.13017   0.88561   0.06692   0.00000  Uiso   1.00
H386   H     0.11904   0.85741   0.11535   0.00000  Uiso   1.00
H387   H     0.31885   0.80803   0.29135   0.00000  Uiso   1.00
H388   H     0.20617   0.67024   0.21038   0.00000  Uiso   1.00
H389   H     0.12587   0.99829   0.29033   0.00000  Uiso   1.00
H390   H     0.26633   0.77593   0.49288   0.00000  Uiso   1.00
H391   H     0.09089   0.82918   0.04351   0.00000  Uiso   1.00
H392   H     0.04591   0.85685   0.00617   0.00000  Uiso   1.00
H393   H     0.22371   0.84666   0.38945   0.00000  Uiso   1.00
H394   H     0.01599   0.85997   0.20902   0.00000  Uiso   1.00
I395   I     0.29005   0.79781   0.40262   0.00000  Uiso   1.00
I396   I     0.04948   0.88750   0.41842   0.00000  Uiso   1.00
O397   O     0.16667   0.83333   0.25000   0.00000  Uiso   1.00
O398   O     0.15451   0.79304   0.15459   0.00000  Uiso   1.00
O399   O     0.12940   0.87058   0.34968   0.00000  Uiso   1.00
O400   O     0.20824   0.84425   0.14606   0.00000  Uiso   1.00
O401   O     0.17451   0.82546   0.34968   0.00000  Uiso   1.00
O402   O     0.17930   0.74686   0.28214   0.00000  Uiso   1.00
O403   O     0.14632   0.92751   0.27014   0.00000  Uiso   1.00
O404   O     0.07412   0.79958   0.23413   0.00000  Uiso   1.00
O405   O     0.26693   0.85939   0.21361   0.00000  Uiso   1.00
O406   O     0.07071   0.85544   0.28213   0.00000  Uiso   1.00
O407   O     0.25491   0.81892   0.27014   0.00000  Uiso   1.00
O408   O     0.13760   0.73610   0.23413   0.00000  Uiso   1.00
O409   O     0.20345   0.92286   0.21361   0.00000  Uiso   1.00
Zn410  Zn    0.19338   0.80661   0.28734   0.00000  Uiso   1.00
Zn411  Zn    0.13379   0.79124   0.21876   0.00000  Uiso   1.00
Zn412  Zn    0.21056   0.86442   0.20657   0.00000  Uiso   1.00
Zn413  Zn    0.12893   0.87106   0.28734   0.00000  Uiso   1.00
C414   C     0.38611   0.82659   0.26001   0.00000  Uiso   1.00
C415   C     0.50347   0.83465   0.06072   0.00000  Uiso   1.00
C416   C     0.55823   0.78919   0.05666   0.00000  Uiso   1.00
C417   C     0.61415   0.84053   0.23994   0.00000  Uiso   1.00
C418   C     0.47023   0.85552   0.42034   0.00000  Uiso   1.00
C419   C     0.66011   0.84309   0.23561   0.00000  Uiso   1.00
C420   C     0.34076   0.82462   0.26422   0.00000  Uiso   1.00
C421   C     0.51355   0.98915   0.23620   0.00000  Uiso   1.00
C422   C     0.48533   0.67855   0.26417   0.00000  Uiso   1.00
C423   C     0.48949   0.72265   0.26028   0.00000  Uiso   1.00
C424   C     0.50987   0.94461   0.24012   0.00000  Uiso   1.00
C425   C     0.41240   0.85385   0.48860   0.00000  Uiso   1.00
C426   C     0.51818   0.81577   0.12958   0.00000  Uiso   1.00
C427   C     0.48192   0.85162   0.37097   0.00000  Uiso   1.00
C428   C     0.57170   0.79088   0.01077   0.00000  Uiso   1.00
C429   C     0.52511   0.81164   0.08169   0.00000  Uiso   1.00
C430   C     0.42801   0.86358   0.44445   0.00000  Uiso   1.00
C431   C     0.47860   0.87007   0.08737   0.00000  Uiso   1.00
C432   C     0.50750   0.90573   0.10491   0.00000  Uiso   1.00
C433   C     0.43865   0.83927   0.01030   0.00000  Uiso   1.00
C434   C     0.48280   0.83858   0.49006   0.00000  Uiso   1.00
C435   C     0.49836   0.84445   0.44398   0.00000  Uiso   1.00
C436   C     0.51105   0.82832   0.01367   0.00000  Uiso   1.00
C437   C     0.54926   0.81158   0.48891   0.00000  Uiso   1.00
C438   C     0.56466   0.81737   0.44325   0.00000  Uiso   1.00
C439   C     0.54131   0.83776   0.42272   0.00000  Uiso   1.00
H440   H     0.57580   0.77288   0.07304   0.00000  Uiso   1.00
H441   H     0.50476   0.90317   0.14063   0.00000  Uiso   1.00
H442   H     0.54164   0.90615   0.08545   0.00000  Uiso   1.00
H443   H     0.49697   0.93632   0.10262   0.00000  Uiso   1.00
H444   H     0.46350   0.88561   0.06692   0.00000  Uiso   1.00
H445   H     0.45238   0.85741   0.11535   0.00000  Uiso   1.00
H446   H     0.65218   0.80803   0.29135   0.00000  Uiso   1.00
H447   H     0.53950   0.67024   0.21038   0.00000  Uiso   1.00
H448   H     0.45921   0.99829   0.29033   0.00000  Uiso   1.00
H449   H     0.59966   0.77593   0.49288   0.00000  Uiso   1.00
H450   H     0.42423   0.82918   0.04351   0.00000  Uiso   1.00
H451   H     0.37925   0.85685   0.00617   0.00000  Uiso   1.00
H452   H     0.55704   0.84666   0.38945   0.00000  Uiso   1.00
H453   H     0.34933   0.85997   0.20902   0.00000  Uiso   1.00
I454   I     0.62339   0.79781   0.40262   0.00000  Uiso   1.00
I455   I     0.38281   0.88750   0.41842   0.00000  Uiso   1.00
O456   O     0.50000   0.83333   0.25000   0.00000  Uiso   1.00
O457   O     0.48784   0.79304   0.15459   0.00000  Uiso   1.00
O458   O     0.46274   0.87058   0.34968   0.00000  Uiso   1.00
O459   O     0.54157   0.84425   0.14606   0.00000  Uiso   1.00
O460   O     0.50785   0.82546   0.34968   0.00000  Uiso   1.00
O461   O     0.51264   0.74686   0.28214   0.00000  Uiso   1.00
O462   O     0.47965   0.92751   0.27014   0.00000  Uiso   1.00
O463   O     0.40745   0.79958   0.23413   0.00000  Uiso   1.00
O464   O     0.60026   0.85939   0.21361   0.00000  Uiso   1.00
O465   O     0.40405   0.85544   0.28213   0.00000  Uiso   1.00
O466   O     0.58824   0.81892   0.27014   0.00000  Uiso   1.00
O467   O     0.47093   0.73610   0.23413   0.00000  Uiso   1.00
O468   O     0.53678   0.92286   0.21361   0.00000  Uiso   1.00
Zn469  Zn    0.52672   0.80661   0.28734   0.00000  Uiso   1.00
Zn470  Zn    0.46713   0.79124   0.21876   0.00000  Uiso   1.00
Zn471  Zn    0.54389   0.86442   0.20657   0.00000  Uiso   1.00
Zn472  Zn    0.46226   0.87106   0.28734   0.00000  Uiso   1.00
C473   C     0.71944   0.82659   0.26001   0.00000  Uiso   1.00
C474   C     0.83680   0.83465   0.06072   0.00000  Uiso   1.00
C475   C     0.89156   0.78919   0.05666   0.00000  Uiso   1.00
C476   C     0.94748   0.84053   0.23994   0.00000  Uiso   1.00
C477   C     0.80357   0.85552   0.42034   0.00000  Uiso   1.00
C478   C     0.99345   0.84309   0.23561   0.00000  Uiso   1.00
C479   C     0.67410   0.82462   0.26422   0.00000  Uiso   1.00
C480   C     0.84689   0.98915   0.23620   0.00000  Uiso   1.00
C481   C     0.81867   0.67855   0.26417   0.00000  Uiso   1.00
C482   C     0.82283   0.72265   0.26028   0.00000  Uiso   1.00
C483   C     0.84321   0.94461   0.24012   0.00000  Uiso   1.00
C484   C     0.74574   0.85385   0.48860   0.00000  Uiso   1.00
C485   C     0.85152   0.81577   0.12958   0.00000  Uiso   1.00
C486   C     0.81525   0.85162   0.37097   0.00000  Uiso   1.00
C487   C     0.90503   0.79088   0.01077   0.00000  Uiso   1.00
C488   C     0.85844   0.81164   0.08169   0.00000  Uiso   1.00
C489   C     0.76134   0.86358   0.44445   0.00000  Uiso   1.00
C490   C     0.81193   0.87007   0.08737   0.00000  Uiso   1.00
C491   C     0.84084   0.90573   0.10491   0.00000  Uiso   1.00
C492   C     0.77198   0.83927   0.01030   0.00000  Uiso   1.00
C493   C     0.81613   0.83858   0.49006   0.00000  Uiso   1.00
C494   C     0.83170   0.84445   0.44398   0.00000  Uiso   1.00
C495   C     0.84438   0.82832   0.01367   0.00000  Uiso   1.00
C496   C     0.88260   0.81158   0.48891   0.00000  Uiso   1.00
C497   C     0.89800   0.81737   0.44325   0.00000  Uiso   1.00
C498   C     0.87464   0.83776   0.42272   0.00000  Uiso   1.00
H499   H     0.90914   0.77288   0.07304   0.00000  Uiso   1.00
H500   H     0.83809   0.90317   0.14063   0.00000  Uiso   1.00
H501   H     0.87497   0.90615   0.08545   0.00000  Uiso   1.00
H502   H     0.83030   0.93632   0.10262   0.00000  Uiso   1.00
H503   H     0.79684   0.88561   0.06692   0.00000  Uiso   1.00
H504   H     0.78571   0.85741   0.11535   0.00000  Uiso   1.00
H505   H     0.98551   0.80803   0.29135   0.00000  Uiso   1.00
H506   H     0.87284   0.67024   0.21038   0.00000  Uiso   1.00
H507   H     0.79254   0.99829   0.29033   0.00000  Uiso   1.00
H508   H     0.93299   0.77593   0.49288   0.00000  Uiso   1.00
H509   H     0.75756   0.82918   0.04351   0.00000  Uiso   1.00
H510   H     0.71258   0.85685   0.00617   0.00000  Uiso   1.00
H511   H     0.89038   0.84666   0.38945   0.00000  Uiso   1.00
H512   H     0.68266   0.85997   0.20902   0.00000  Uiso   1.00
I513   I     0.95672   0.79781   0.40262   0.00000  Uiso   1.00
I514   I     0.71614   0.88750   0.41842   0.00000  Uiso   1.00
O515   O     0.83333   0.83333   0.25000   0.00000  Uiso   1.00
O516   O     0.82118   0.79304   0.15459   0.00000  Uiso   1.00
O517   O     0.79607   0.87058   0.34968   0.00000  Uiso   1.00
O518   O     0.87491   0.84425   0.14606   0.00000  Uiso   1.00
O519   O     0.84118   0.82546   0.34968   0.00000  Uiso   1.00
O520   O     0.84597   0.74686   0.28214   0.00000  Uiso   1.00
O521   O     0.81298   0.92751   0.27014   0.00000  Uiso   1.00
O522   O     0.74078   0.79958   0.23413   0.00000  Uiso   1.00
O523   O     0.93360   0.85939   0.21361   0.00000  Uiso   1.00
O524   O     0.73738   0.85544   0.28213   0.00000  Uiso   1.00
O525   O     0.92158   0.81892   0.27014   0.00000  Uiso   1.00
O526   O     0.80426   0.73610   0.23413   0.00000  Uiso   1.00
O527   O     0.87012   0.92286   0.21361   0.00000  Uiso   1.00
Zn528  Zn    0.86005   0.80661   0.28734   0.00000  Uiso   1.00
Zn529  Zn    0.80046   0.79124   0.21876   0.00000  Uiso   1.00
Zn530  Zn    0.87723   0.86442   0.20657   0.00000  Uiso   1.00
Zn531  Zn    0.79560   0.87106   0.28734   0.00000  Uiso   1.00
C532   C     0.05277   0.15992   0.76001   0.00000  Uiso   1.00
C533   C     0.17013   0.16798   0.56072   0.00000  Uiso   1.00
C534   C     0.22490   0.12253   0.55666   0.00000  Uiso   1.00
C535   C     0.28081   0.17386   0.73994   0.00000  Uiso   1.00
C536   C     0.13690   0.18885   0.92034   0.00000  Uiso   1.00
C537   C     0.32678   0.17643   0.73561   0.00000  Uiso   1.00
C538   C     0.00743   0.15795   0.76422   0.00000  Uiso   1.00
C539   C     0.18022   0.32248   0.73620   0.00000  Uiso   1.00
C540   C     0.15200   0.01188   0.76417   0.00000  Uiso   1.00
C541   C     0.15616   0.05599   0.76028   0.00000  Uiso   1.00
C542   C     0.17654   0.27794   0.74012   0.00000  Uiso   1.00
C543   C     0.07907   0.18718   0.98860   0.00000  Uiso   1.00
C544   C     0.18485   0.14910   0.62958   0.00000  Uiso   1.00
C545   C     0.14859   0.18496   0.87097   0.00000  Uiso   1.00
C546   C     0.23836   0.12422   0.51077   0.00000  Uiso   1.00
C547   C     0.19177   0.14498   0.58169   0.00000  Uiso   1.00
C548   C     0.09467   0.19691   0.94445   0.00000  Uiso   1.00
C549   C     0.14527   0.20340   0.58737   0.00000  Uiso   1.00
C550   C     0.17417   0.23906   0.60491   0.00000  Uiso   1.00
C551   C     0.10532   0.17260   0.51030   0.00000  Uiso   1.00
C552   C     0.14947   0.17192   0.99006   0.00000  Uiso   1.00
C553   C     0.16503   0.17778   0.94398   0.00000  Uiso   1.00
C554   C     0.17772   0.16165   0.51367   0.00000  Uiso   1.00
C555   C     0.21593   0.14491   0.98891   0.00000  Uiso   1.00
C556   C     0.23133   0.15070   0.94325   0.00000  Uiso   1.00
C557   C     0.20798   0.17110   0.92272   0.00000  Uiso   1.00
H558   H     0.24247   0.10621   0.57304   0.00000  Uiso   1.00
H559   H     0.17143   0.23650   0.64063   0.00000  Uiso   1.00
H560   H     0.20830   0.23949   0.58545   0.00000  Uiso   1.00
H561   H     0.16363   0.26966   0.60262   0.00000  Uiso   1.00
H562   H     0.13017   0.21894   0.56692   0.00000  Uiso   1.00
H563   H     0.11904   0.19075   0.61535   0.00000  Uiso   1.00
H564   H     0.31885   0.14137   0.79135   0.00000  Uiso   1.00
H565   H     0.20617   0.00358   0.71038   0.00000  Uiso   1.00
H566   H     0.12587   0.33163   0.79033   0.00000  Uiso   1.00
H567   H     0.26633   0.10926   0.99288   0.00000  Uiso   1.00
H568   H     0.09089   0.16251   0.54351   0.00000  Uiso   1.00
H569   H     0.04591   0.19018   0.50617   0.00000  Uiso   1.00
H570   H     0.22371   0.18000   0.88945   0.00000  Uiso   1.00
H571   H     0.01599   0.19330   0.70902   0.00000  Uiso   1.00
I572   I     0.29005   0.13115   0.90262   0.00000  Uiso   1.00
I573   I     0.04948   0.22083   0.91842   0.00000  Uiso   1.00
O574   O     0.16667   0.16667   0.75000   0.00000  Uiso   1.00
O575   O     0.15451   0.12637   0.65459   0.00000  Uiso   1.00
O576   O     0.12940   0.20391   0.84968   0.00000  Uiso   1.00
O577   O     0.20824   0.17759   0.64606   0.00000  Uiso   1.00
O578   O     0.17451   0.15880   0.84968   0.00000  Uiso   1.00
O579   O     0.17930   0.08019   0.78214   0.00000  Uiso   1.00
O580   O     0.14632   0.26085   0.77014   0.00000  Uiso   1.00
O581   O     0.07412   0.13291   0.73413   0.00000  Uiso   1.00
O582   O     0.26693   0.19272   0.71361   0.00000  Uiso   1.00
O583   O     0.07071   0.18878   0.78213   0.00000  Uiso   1.00
O584   O     0.25491   0.15226   0.77014   0.00000  Uiso   1.00
O585   O     0.13760   0.06944   0.73413   0.00000  Uiso   1.00
O586   O     0.20345   0.25620   0.71361   0.00000  Uiso   1.00
Zn587  Zn    0.19338   0.13994   0.78734   0.00000  Uiso   1.00
Zn588  Zn    0.13379   0.12458   0.71876   0.00000  Uiso   1.00
Zn589  Zn    0.21056   0.19775   0.70657   0.00000  Uiso   1.00
Zn590  Zn    0.12893   0.20439   0.78734   0.00000  Uiso   1.00
C591   C     0.38611   0.15992   0.76001   0.00000  Uiso   1.00
C592   C     0.50347   0.16798   0.56072   0.00000  Uiso   1.00
C593   C     0.55823   0.12253   0.55666   0.00000  Uiso   1.00
C594   C     0.61415   0.17386   0.73994   0.00000  Uiso   1.00
C595   C     0.47023   0.18885   0.92034   0.00000  Uiso   1.00
C596   C     0.66011   0.17643   0.73561   0.00000  Uiso   1.00
C597   C     0.34076   0.15795   0.76422   0.00000  Uiso   1.00
C598   C     0.51355   0.32248   0.73620   0.00000  Uiso   1.00
C599   C     0.48533   0.01188   0.76417   0.00000  Uiso   1.00
C600   C     0.48949   0.05599   0.76028   0.00000  Uiso   1.00
C601   C     0.50987   0.27794   0.74012   0.00000  Uiso   1.00
C602   C     0.41240   0.18718   0.98860   0.00000  Uiso   1.00
C603   C     0.51818   0.14910   0.62958   0.00000  Uiso   1.00
C604   C     0.48192   0.18496   0.87097   0.00000  Uiso   1.00
C605   C     0.57170   0.12422   0.51077   0.00000  Uiso   1.00
C606   C     0.52511   0.14498   0.58169   0.00000  Uiso   1.00
C607   C     0.42801   0.19691   0.94445   0.00000  Uiso   1.00
C608   C     0.47860   0.20340   0.58737   0.00000  Uiso   1.00
C609   C     0.50750   0.23906   0.60491   0.00000  Uiso   1.00
C610   C     0.43865   0.17260   0.51030   0.00000  Uiso   1.00
C611   C     0.48280   0.17192   0.99006   0.00000  Uiso   1.00
C612   C     0.49836   0.17778   0.94398   0.00000  Uiso   1.00
C613   C     0.51105   0.16165   0.51367   0.00000  Uiso   1.00
C614   C     0.54926   0.14491   0.98891   0.00000  Uiso   1.00
C615   C     0.56466   0.15070   0.94325   0.00000  Uiso   1.00
C616   C     0.54131   0.17110   0.92272   0.00000  Uiso   1.00
H617   H     0.57580   0.10621   0.57304   0.00000  Uiso   1.00
H618   H     0.50476   0.23650   0.64063   0.00000  Uiso   1.00
H619   H     0.54164   0.23949   0.58545   0.00000  Uiso   1.00
H620   H     0.49697   0.26966   0.60262   0.00000  Uiso   1.00
H621   H     0.46350   0.21894   0.56692   0.00000  Uiso   1.00
H622   H     0.45238   0.19075   0.61535   0.00000  Uiso   1.00
H623   H     0.65218   0.14137   0.79135   0.00000  Uiso   1.00
H624   H     0.53950   0.00358   0.71038   0.00000  Uiso   1.00
H625   H     0.45921   0.33163   0.79033   0.00000  Uiso   1.00
H626   H     0.59966   0.10926   0.99288   0.00000  Uiso   1.00
H627   H     0.42423   0.16251   0.54351   0.00000  Uiso   1.00
H628   H     0.37925   0.19018   0.50617   0.00000  Uiso   1.00
H629   H     0.55704   0.18000   0.88945   0.00000  Uiso   1.00
H630   H     0.34933   0.19330   0.70902   0.00000  Uiso   1.00
I631   I     0.62339   0.13115   0.90262   0.00000  Uiso   1.00
I632   I     0.38281   0.22083   0.91842   0.00000  Uiso   1.00
O633   O     0.50000   0.16667   0.75000   0.00000  Uiso   1.00
O634   O     0.48784   0.12637   0.65459   0.00000  Uiso   1.00
O635   O     0.46274   0.20391   0.84968   0.00000  Uiso   1.00
O636   O     0.54157   0.17759   0.64606   0.00000  Uiso   1.00
O637   O     0.50785   0.15880   0.84968   0.00000  Uiso   1.00
O638   O     0.51264   0.08019   0.78214   0.00000  Uiso   1.00
O639   O     0.47965   0.26085   0.77014   0.00000  Uiso   1.00
O640   O     0.40745   0.13291   0.73413   0.00000  Uiso   1.00
O641   O     0.60026   0.19272   0.71361   0.00000  Uiso   1.00
O642   O     0.40405   0.18878   0.78213   0.00000  Uiso   1.00
O643   O     0.58824   0.15226   0.77014   0.00000  Uiso   1.00
O644   O     0.47093   0.06944   0.73413   0.00000  Uiso   1.00
O645   O     0.53678   0.25620   0.71361   0.00000  Uiso   1.00
Zn646  Zn    0.52672   0.13994   0.78734   0.00000  Uiso   1.00
Zn647  Zn    0.46713   0.12458   0.71876   0.00000  Uiso   1.00
Zn648  Zn    0.54389   0.19775   0.70657   0.00000  Uiso   1.00
Zn649  Zn    0.46226   0.20439   0.78734   0.00000  Uiso   1.00
C650   C     0.71944   0.15992   0.76001   0.00000  Uiso   1.00
C651   C     0.83680   0.16798   0.56072   0.00000  Uiso   1.00
C652   C     0.89156   0.12253   0.55666   0.00000  Uiso   1.00
C653   C     0.94748   0.17386   0.73994   0.00000  Uiso   1.00
C654   C     0.80357   0.18885   0.92034   0.00000  Uiso   1.00
C655   C     0.99345   0.17643   0.73561   0.00000  Uiso   1.00
C656   C     0.67410   0.15795   0.76422   0.00000  Uiso   1.00
C657   C     0.84689   0.32248   0.73620   0.00000  Uiso   1.00
C658   C     0.81867   0.01188   0.76417   0.00000  Uiso   1.00
C659   C     0.82283   0.05599   0.76028   0.00000  Uiso   1.00
C660   C     0.84321   0.27794   0.74012   0.00000  Uiso   1.00
C661   C     0.74574   0.18718   0.98860   0.00000  Uiso   1.00
C662   C     0.85152   0.14910   0.62958   0.00000  Uiso   1.00
C663   C     0.81525   0.18496   0.87097   0.00000  Uiso   1.00
C664   C     0.90503   0.12422   0.51077   0.00000  Uiso   1.00
C665   C     0.85844   0.14498   0.58169   0.00000  Uiso   1.00
C666   C     0.76134   0.19691   0.94445   0.00000  Uiso   1.00
C667   C     0.81193   0.20340   0.58737   0.00000  Uiso   1.00
C668   C     0.84084   0.23906   0.60491   0.00000  Uiso   1.00
C669   C     0.77198   0.17260   0.51030   0.00000  Uiso   1.00
C670   C     0.81613   0.17192   0.99006   0.00000  Uiso   1.00
C671   C     0.83170   0.17778   0.94398   0.00000  Uiso   1.00
C672   C     0.84438   0.16165   0.51367   0.00000  Uiso   1.00
C673   C     0.88260   0.14491   0.98891   0.00000  Uiso   1.00
C674   C     0.89800   0.15070   0.94325   0.00000  Uiso   1.00
C675   C     0.87464   0.17110   0.92272   0.00000  Uiso   1.00
H676   H     0.90914   0.10621   0.57304   0.00000  Uiso   1.00
H677   H     0.83809   0.23650   0.64063   0.00000  Uiso   1.00
H678   H     0.87497   0.23949   0.58545   0.00000  Uiso   1.00
H679   H     0.83030   0.26966   0.60262   0.00000  Uiso   1.00
H680   H     0.79684   0.21894   0.56692   0.00000  Uiso   1.00
H681   H     0.78571   0.19075   0.61535   0.00000  Uiso   1.00
H682   H     0.98551   0.14137   0.79135   0.00000  Uiso   1.00
H683   H     0.87284   0.00358   0.71038   0.00000  Uiso   1.00
H684   H     0.79254   0.33163   0.79033   0.00000  Uiso   1.00
H685   H     0.93299   0.10926   0.99288   0.00000  Uiso   1.00
H686   H     0.75756   0.16251   0.54351   0.00000  Uiso   1.00
H687   H     0.71258   0.19018   0.50617   0.00000  Uiso   1.00
H688   H     0.89038   0.18000   0.88945   0.00000  Uiso   1.00
H689   H     0.68266   0.19330   0.70902   0.00000  Uiso   1.00
I690   I     0.95672   0.13115   0.90262   0.00000  Uiso   1.00
I691   I     0.71614   0.22083   0.91842   0.00000  Uiso   1.00
O692   O     0.83333   0.16667   0.75000   0.00000  Uiso   1.00
O693   O     0.82118   0.12637   0.65459   0.00000  Uiso   1.00
O694   O     0.79607   0.20391   0.84968   0.00000  Uiso   1.00
O695   O     0.87491   0.17759   0.64606   0.00000  Uiso   1.00
O696   O     0.84118   0.15880   0.84968   0.00000  Uiso   1.00
O697   O     0.84597   0.08019   0.78214   0.00000  Uiso   1.00
O698   O     0.81298   0.26085   0.77014   0.00000  Uiso   1.00
O699   O     0.74078   0.13291   0.73413   0.00000  Uiso   1.00
O700   O     0.93360   0.19272   0.71361   0.00000  Uiso   1.00
O701   O     0.73738   0.18878   0.78213   0.00000  Uiso   1.00
O702   O     0.92158   0.15226   0.77014   0.00000  Uiso   1.00
O703   O     0.80426   0.06944   0.73413   0.00000  Uiso   1.00
O704   O     0.87012   0.25620   0.71361   0.00000  Uiso   1.00
Zn705  Zn    0.86005   0.13994   0.78734   0.00000  Uiso   1.00
Zn706  Zn    0.80046   0.12458   0.71876   0.00000  Uiso   1.00
Zn707  Zn    0.87723   0.19775   0.70657   0.00000  Uiso   1.00
Zn708  Zn    0.79560   0.20439   0.78734   0.00000  Uiso   1.00
C709   C     0.05277   0.49325   0.76001   0.00000  Uiso   1.00
C710   C     0.17013   0.50132   0.56072   0.00000  Uiso   1.00
C711   C     0.22490   0.45586   0.55666   0.00000  Uiso   1.00
C712   C     0.28081   0.50719   0.73994   0.00000  Uiso   1.00
C713   C     0.13690   0.52219   0.92034   0.00000  Uiso   1.00
C714   C     0.32678   0.50976   0.73561   0.00000  Uiso   1.00
C715   C     0.00743   0.49129   0.76422   0.00000  Uiso   1.00
C716   C     0.18022   0.65582   0.73620   0.00000  Uiso   1.00
C717   C     0.15200   0.34522   0.76417   0.00000  Uiso   1.00
C718   C     0.15616   0.38932   0.76028   0.00000  Uiso   1.00
C719   C     0.17654   0.61127   0.74012   0.00000  Uiso   1.00
C720   C     0.07907   0.52051   0.98860   0.00000  Uiso   1.00
C721   C     0.18485   0.48244   0.62958   0.00000  Uiso   1.00
C722   C     0.14859   0.51829   0.87097   0.00000  Uiso   1.00
C723   C     0.23836   0.45755   0.51077   0.00000  Uiso   1.00
C724   C     0.19177   0.47831   0.58169   0.00000  Uiso   1.00
C725   C     0.09467   0.53025   0.94445   0.00000  Uiso   1.00
C726   C     0.14527   0.53674   0.58737   0.00000  Uiso   1.00
C727   C     0.17417   0.57239   0.60491   0.00000  Uiso   1.00
C728   C     0.10532   0.50593   0.51030   0.00000  Uiso   1.00
C729   C     0.14947   0.50525   0.99006   0.00000  Uiso   1.00
C730   C     0.16503   0.51112   0.94398   0.00000  Uiso   1.00
C731   C     0.17772   0.49498   0.51367   0.00000  Uiso   1.00
C732   C     0.21593   0.47825   0.98891   0.00000  Uiso   1.00
C733   C     0.23133   0.48403   0.94325   0.00000  Uiso   1.00
C734   C     0.20798   0.50443   0.92272   0.00000  Uiso   1.00
H735   H     0.24247   0.43955   0.57304   0.00000  Uiso   1.00
H736   H     0.17143   0.56983   0.64063   0.00000  Uiso   1.00
H737   H     0.20830   0.57282   0.58545   0.00000  Uiso   1.00
H738   H     0.16363   0.60299   0.60262   0.00000  Uiso   1.00
H739   H     0.13017   0.55228   0.56692   0.00000  Uiso   1.00
H740   H     0.11904   0.52408   0.61535   0.00000  Uiso   1.00
H741   H     0.31885   0.47470   0.79135   0.00000  Uiso   1.00
H742   H     0.20617   0.33691   0.71038   0.00000  Uiso   1.00
H743   H     0.12587   0.66496   0.79033   0.00000  Uiso   1.00
H744   H     0.26633   0.44259   0.99288   0.00000  Uiso   1.00
H745   H     0.09089   0.49584   0.54351   0.00000  Uiso   1.00
H746   H     0.04591   0.52352   0.50617   0.00000  Uiso   1.00
H747   H     0.22371   0.51333   0.88945   0.00000  Uiso   1.00
H748   H     0.01599   0.52663   0.70902   0.00000  Uiso   1.00
I749   I     0.29005   0.46448   0.90262   0.00000  Uiso   1.00
I750   I     0.04948   0.55416   0.91842   0.00000  Uiso   1.00
O751   O     0.16667   0.50000   0.75000   0.00000  Uiso   1.00
O752   O     0.15451   0.45970   0.65459   0.00000  Uiso   1.00
O753   O     0.12940   0.53724   0.84968   0.00000  Uiso   1.00
O754   O     0.20824   0.51092   0.64606   0.00000  Uiso   1.00
O755   O     0.17451   0.49213   0.84968   0.00000  Uiso   1.00
O756   O     0.17930   0.41352   0.78214   0.00000  Uiso   1.00
O757   O     0.14632   0.59418   0.77014   0.00000  Uiso   1.00
O758   O     0.07412   0.46625   0.73413   0.00000  Uiso   1.00
O759   O     0.26693   0.52605   0.71361   0.00000  Uiso   1.00
O760   O     0.07071   0.52211   0.78213   0.00000  Uiso   1.00
O761   O     0.25491   0.48559   0.77014   0.00000  Uiso   1.00
O762   O     0.13760   0.40277   0.73413   0.00000  Uiso   1.00
O763   O     0.20345   0.58953   0.71361   0.00000  Uiso   1.00
Zn764  Zn    0.19338   0.47327   0.78734   0.00000  Uiso   1.00
Zn765  Zn    0.13379   0.45791   0.71876   0.00000  Uiso   1.00
Zn766  Zn    0.21056   0.53109   0.70657   0.00000  Uiso   1.00
Zn767  Zn    0.12893   0.53773   0.78734   0.00000  Uiso   1.00
C768   C     0.38611   0.49325   0.76001   0.00000  Uiso   1.00
C769   C     0.50347   0.50132   0.56072   0.00000  Uiso   1.00
C770   C     0.55823   0.45586   0.55666   0.00000  Uiso   1.00
C771   C     0.61415   0.50719   0.73994   0.00000  Uiso   1.00
C772   C     0.47023   0.52219   0.92034   0.00000  Uiso   1.00
C773   C     0.66011   0.50976   0.73561   0.00000  Uiso   1.00
C774   C     0.34076   0.49129   0.76422   0.00000  Uiso   1.00
C775   C     0.51355   0.65582   0.73620   0.00000  Uiso   1.00
C776   C     0.48533   0.34522   0.76417   0.00000  Uiso   1.00
C777   C     0.48949   0.38932   0.76028   0.00000  Uiso   1.00
C778   C     0.50987   0.61127   0.74012   0.00000  Uiso   1.00
C779   C     0.41240   0.52051   0.98860   0.00000  Uiso   1.00
C780   C     0.51818   0.48244   0.62958   0.00000  Uiso   1.00
C781   C     0.48192   0.51829   0.87097   0.00000  Uiso   1.00
C782   C     0.57170   0.45755   0.51077   0.00000  Uiso   1.00
C783   C     0.52511   0.47831   0.58169   0.00000  Uiso   1.00
C784   C     0.42801   0.53025   0.94445   0.00000  Uiso   1.00
C785   C     0.47860   0.53674   0.58737   0.00000  Uiso   1.00
C786   C     0.50750   0.57239   0.60491   0.00000  Uiso   1.00
C787   C     0.43865   0.50593   0.51030   0.00000  Uiso   1.00
C788   C     0.48280   0.50525   0.99006   0.00000  Uiso   1.00
C789   C     0.49836   0.51112   0.94398   0.00000  Uiso   1.00
C790   C     0.51105   0.49498   0.51367   0.00000  Uiso   1.00
C791   C     0.54926   0.47825   0.98891   0.00000  Uiso   1.00
C792   C     0.56466   0.48403   0.94325   0.00000  Uiso   1.00
C793   C     0.54131   0.50443   0.92272   0.00000  Uiso   1.00
H794   H     0.57580   0.43955   0.57304   0.00000  Uiso   1.00
H795   H     0.50476   0.56983   0.64063   0.00000  Uiso   1.00
H796   H     0.54164   0.57282   0.58545   0.00000  Uiso   1.00
H797   H     0.49697   0.60299   0.60262   0.00000  Uiso   1.00
H798   H     0.46350   0.55228   0.56692   0.00000  Uiso   1.00
H799   H     0.45238   0.52408   0.61535   0.00000  Uiso   1.00
H800   H     0.65218   0.47470   0.79135   0.00000  Uiso   1.00
H801   H     0.53950   0.33691   0.71038   0.00000  Uiso   1.00
H802   H     0.45921   0.66496   0.79033   0.00000  Uiso   1.00
H803   H     0.59966   0.44259   0.99288   0.00000  Uiso   1.00
H804   H     0.42423   0.49584   0.54351   0.00000  Uiso   1.00
H805   H     0.37925   0.52352   0.50617   0.00000  Uiso   1.00
H806   H     0.55704   0.51333   0.88945   0.00000  Uiso   1.00
H807   H     0.34933   0.52663   0.70902   0.00000  Uiso   1.00
I808   I     0.62339   0.46448   0.90262   0.00000  Uiso   1.00
I809   I     0.38281   0.55416   0.91842   0.00000  Uiso   1.00
O810   O     0.50000   0.50000   0.75000   0.00000  Uiso   1.00
O811   O     0.48784   0.45970   0.65459   0.00000  Uiso   1.00
O812   O     0.46274   0.53724   0.84968   0.00000  Uiso   1.00
O813   O     0.54157   0.51092   0.64606   0.00000  Uiso   1.00
O814   O     0.50785   0.49213   0.84968   0.00000  Uiso   1.00
O815   O     0.51264   0.41352   0.78214   0.00000  Uiso   1.00
O816   O     0.47965   0.59418   0.77014   0.00000  Uiso   1.00
O817   O     0.40745   0.46625   0.73413   0.00000  Uiso   1.00
O818   O     0.60026   0.52605   0.71361   0.00000  Uiso   1.00
O819   O     0.40405   0.52211   0.78213   0.00000  Uiso   1.00
O820   O     0.58824   0.48559   0.77014   0.00000  Uiso   1.00
O821   O     0.47093   0.40277   0.73413   0.00000  Uiso   1.00
O822   O     0.53678   0.58953   0.71361   0.00000  Uiso   1.00
Zn823  Zn    0.52672   0.47327   0.78734   0.00000  Uiso   1.00
Zn824  Zn    0.46713   0.45791   0.71876   0.00000  Uiso   1.00
Zn825  Zn    0.54389   0.53109   0.70657   0.00000  Uiso   1.00
Zn826  Zn    0.46226   0.53773   0.78734   0.00000  Uiso   1.00
C827   C     0.71944   0.49325   0.76001   0.00000  Uiso   1.00
C828   C     0.83680   0.50132   0.56072   0.00000  Uiso   1.00
C829   C     0.89156   0.45586   0.55666   0.00000  Uiso   1.00
C830   C     0.94748   0.50719   0.73994   0.00000  Uiso   1.00
C831   C     0.80357   0.52219   0.92034   0.00000  Uiso   1.00
C832   C     0.99345   0.50976   0.73561   0.00000  Uiso   1.00
C833   C     0.67410   0.49129   0.76422   0.00000  Uiso   1.00
C834   C     0.84689   0.65582   0.73620   0.00000  Uiso   1.00
C835   C     0.81867   0.34522   0.76417   0.00000  Uiso   1.00
C836   C     0.82283   0.38932   0.76028   0.00000  Uiso   1.00
C837   C     0.84321   0.61127   0.74012   0.00000  Uiso   1.00
C838   C     0.74574   0.52051   0.98860   0.00000  Uiso   1.00
C839   C     0.85152   0.48244   0.62958   0.00000  Uiso   1.00
C840   C     0.81525   0.51829   0.87097   0.00000  Uiso   1.00
C841   C     0.90503   0.45755   0.51077   0.00000  Uiso   1.00
C842   C     0.85844   0.47831   0.58169   0.00000  Uiso   1.00
C843   C     0.76134   0.53025   0.94445   0.00000  Uiso   1.00
C844   C     0.81193   0.53674   0.58737   0.00000  Uiso   1.00
C845   C     0.84084   0.57239   0.60491   0.00000  Uiso   1.00
C846   C     0.77198   0.50593   0.51030   0.00000  Uiso   1.00
C847   C     0.81613   0.50525   0.99006   0.00000  Uiso   1.00
C848   C     0.83170   0.51112   0.94398   0.00000  Uiso   1.00
C849   C     0.84438   0.49498   0.51367   0.00000  Uiso   1.00
C850   C     0.88260   0.47825   0.98891   0.00000  Uiso   1.00
C851   C     0.89800   0.48403   0.94325   0.00000  Uiso   1.00
C852   C     0.87464   0.50443   0.92272   0.00000  Uiso   1.00
H853   H     0.90914   0.43955   0.57304   0.00000  Uiso   1.00
H854   H     0.83809   0.56983   0.64063   0.00000  Uiso   1.00
H855   H     0.87497   0.57282   0.58545   0.00000  Uiso   1.00
H856   H     0.83030   0.60299   0.60262   0.00000  Uiso   1.00
H857   H     0.79684   0.55228   0.56692   0.00000  Uiso   1.00
H858   H     0.78571   0.52408   0.61535   0.00000  Uiso   1.00
H859   H     0.98551   0.47470   0.79135   0.00000  Uiso   1.00
H860   H     0.87284   0.33691   0.71038   0.00000  Uiso   1.00
H861   H     0.79254   0.66496   0.79033   0.00000  Uiso   1.00
H862   H     0.93299   0.44259   0.99288   0.00000  Uiso   1.00
H863   H     0.75756   0.49584   0.54351   0.00000  Uiso   1.00
H864   H     0.71258   0.52352   0.50617   0.00000  Uiso   1.00
H865   H     0.89038   0.51333   0.88945   0.00000  Uiso   1.00
H866   H     0.68266   0.52663   0.70902   0.00000  Uiso   1.00
I867   I     0.95672   0.46448   0.90262   0.00000  Uiso   1.00
I868   I     0.71614   0.55416   0.91842   0.00000  Uiso   1.00
O869   O     0.83333   0.50000   0.75000   0.00000  Uiso   1.00
O870   O     0.82118   0.45970   0.65459   0.00000  Uiso   1.00
O871   O     0.79607   0.53724   0.84968   0.00000  Uiso   1.00
O872   O     0.87491   0.51092   0.64606   0.00000  Uiso   1.00
O873   O     0.84118   0.49213   0.84968   0.00000  Uiso   1.00
O874   O     0.84597   0.41352   0.78214   0.00000  Uiso   1.00
O875   O     0.81298   0.59418   0.77014   0.00000  Uiso   1.00
O876   O     0.74078   0.46625   0.73413   0.00000  Uiso   1.00
O877   O     0.93360   0.52605   0.71361   0.00000  Uiso   1.00
O878   O     0.73738   0.52211   0.78213   0.00000  Uiso   1.00
O879   O     0.92158   0.48559   0.77014   0.00000  Uiso   1.00
O880   O     0.80426   0.40277   0.73413   0.00000  Uiso   1.00
O881   O     0.87012   0.58953   0.71361   0.00000  Uiso   1.00
Zn882  Zn    0.86005   0.47327   0.78734   0.00000  Uiso   1.00
Zn883  Zn    0.80046   0.45791   0.71876   0.00000  Uiso   1.00
Zn884  Zn    0.87723   0.53109   0.70657   0.00000  Uiso   1.00
Zn885  Zn    0.79560   0.53773   0.78734   0.00000  Uiso   1.00
C886   C     0.05277   0.82659   0.76001   0.00000  Uiso   1.00
C887   C     0.17013   0.83465   0.56072   0.00000  Uiso   1.00
C888   C     0.22490   0.78919   0.55666   0.00000  Uiso   1.00
C889   C     0.28081   0.84053   0.73994   0.00000  Uiso   1.00
C890   C     0.13690   0.85552   0.92034   0.00000  Uiso   1.00
C891   C     0.32678   0.84309   0.73561   0.00000  Uiso   1.00
C892   C     0.00743   0.82462   0.76422   0.00000  Uiso   1.00
C893   C     0.18022   0.98915   0.73620   0.00000  Uiso   1.00
C894   C     0.15200   0.67855   0.76417   0.00000  Uiso   1.00
C895   C     0.15616   0.72265   0.76028   0.00000  Uiso   1.00
C896   C     0.17654   0.94461   0.74012   0.00000  Uiso   1.00
C897   C     0.07907   0.85385   0.98860   0.00000  Uiso   1.00
C898   C     0.18485   0.81577   0.62958   0.00000  Uiso   1.00
C899   C     0.14859   0.85162   0.87097   0.00000  Uiso   1.00
C900   C     0.23836   0.79088   0.51077   0.00000  Uiso   1.00
C901   C     0.19177   0.81164   0.58169   0.00000  Uiso   1.00
C902   C     0.09467   0.86358   0.94445   0.00000  Uiso   1.00
C903   C     0.14527   0.87007   0.58737   0.00000  Uiso   1.00
C904   C     0.17417   0.90573   0.60491   0.00000  Uiso   1.00
C905   C     0.10532   0.83927   0.51030   0.00000  Uiso   1.00
C906   C     0.14947   0.83858   0.99006   0.00000  Uiso   1.00
C907   C     0.16503   0.84445   0.94398   0.00000  Uiso   1.00
C908   C     0.17772   0.82832   0.51367   0.00000  Uiso   1.00
C909   C     0.21593   0.81158   0.98891   0.00000  Uiso   1.00
C910   C     0.23133   0.81737   0.94325   0.00000  Uiso   1.00
C911   C     0.20798   0.83776   0.92272   0.00000  Uiso   1.00
H912   H     0.24247   0.77288   0.57304   0.00000  Uiso   1.00
H913   H     0.17143   0.90317   0.64063   0.00000  Uiso   1.00
H914   H     0.20830   0.90615   0.58545   0.00000  Uiso   1.00
H915   H     0.16363   0.93632   0.60262   0.00000  Uiso   1.00
H916   H     0.13017   0.88561   0.56692   0.00000  Uiso   1.00
H917   H     0.11904   0.85741   0.61535   0.00000  Uiso   1.00
H918   H     0.31885   0.80803   0.79135   0.00000  Uiso   1.00
H919   H     0.20617   0.67024   0.71038   0.00000  Uiso   1.00
H920   H     0.12587   0.99829   0.79033   0.00000  Uiso   1.00
H921   H     0.26633   0.77593   0.99288   0.00000  Uiso   1.00
H922   H     0.09089   0.82918   0.54351   0.00000  Uiso   1.00
H923   H     0.04591   0.85685   0.50617   0.00000  Uiso   1.00
H924   H     0.22371   0.84666   0.88945   0.00000  Uiso   1.00
H925   H     0.01599   0.85997   0.70902   0.00000  Uiso   1.00
I926   I     0.29005   0.79781   0.90262   0.00000  Uiso   1.00
I927   I     0.04948   0.88750   0.91842   0.00000  Uiso   1.00
O928   O     0.16667   0.83333   0.75000   0.00000  Uiso   1.00
O929   O     0.15451   0.79304   0.65459   0.00000  Uiso   1.00
O930   O     0.12940   0.87058   0.84968   0.00000  Uiso   1.00
O931   O     0.20824   0.84425   0.64606   0.00000  Uiso   1.00
O932   O     0.17451   0.82546   0.84968   0.00000  Uiso   1.00
O933   O     0.17930   0.74686   0.78214   0.00000  Uiso   1.00
O934   O     0.14632   0.92751   0.77014   0.00000  Uiso   1.00
O935   O     0.07412   0.79958   0.73413   0.00000  Uiso   1.00
O936   O     0.26693   0.85939   0.71361   0.00000  Uiso   1.00
O937   O     0.07071   0.85544   0.78213   0.00000  Uiso   1.00
O938   O     0.25491   0.81892   0.77014   0.00000  Uiso   1.00
O939   O     0.13760   0.73610   0.73413   0.00000  Uiso   1.00
O940   O     0.20345   0.92286   0.71361   0.00000  Uiso   1.00
Zn941  Zn    0.19338   0.80661   0.78734   0.00000  Uiso   1.00
Zn942  Zn    0.13379   0.79124   0.71876   0.00000  Uiso   1.00
Zn943  Zn    0.21056   0.86442   0.70657   0.00000  Uiso   1.00
Zn944  Zn    0.12893   0.87106   0.78734   0.00000  Uiso   1.00
C945   C     0.38611   0.82659   0.76001   0.00000  Uiso   1.00
C946   C     0.50347   0.83465   0.56072   0.00000  Uiso   1.00
C947   C     0.55823   0.78919   0.55666   0.00000  Uiso   1.00
C948   C     0.61415   0.84053   0.73994   0.00000  Uiso   1.00
C949   C     0.47023   0.85552   0.92034   0.00000  Uiso   1.00
C950   C     0.66011   0.84309   0.73561   0.00000  Uiso   1.00
C951   C     0.34076   0.82462   0.76422   0.00000  Uiso   1.00
C952   C     0.51355   0.98915   0.73620   0.00000  Uiso   1.00
C953   C     0.48533   0.67855   0.76417   0.00000  Uiso   1.00
C954   C     0.48949   0.72265   0.76028   0.00000  Uiso   1.00
C955   C     0.50987   0.94461   0.74012   0.00000  Uiso   1.00
C956   C     0.41240   0.85385   0.98860   0.00000  Uiso   1.00
C957   C     0.51818   0.81577   0.62958   0.00000  Uiso   1.00
C958   C     0.48192   0.85162   0.87097   0.00000  Uiso   1.00
C959   C     0.57170   0.79088   0.51077   0.00000  Uiso   1.00
C960   C     0.52511   0.81164   0.58169   0.00000  Uiso   1.00
C961   C     0.42801   0.86358   0.94445   0.00000  Uiso   1.00
C962   C     0.47860   0.87007   0.58737   0.00000  Uiso   1.00
C963   C     0.50750   0.90573   0.60491   0.00000  Uiso   1.00
C964   C     0.43865   0.83927   0.51030   0.00000  Uiso   1.00
C965   C     0.48280   0.83858   0.99006   0.00000  Uiso   1.00
C966   C     0.49836   0.84445   0.94398   0.00000  Uiso   1.00
C967   C     0.51105   0.82832   0.51367   0.00000  Uiso   1.00
C968   C     0.54926   0.81158   0.98891   0.00000  Uiso   1.00
C969   C     0.56466   0.81737   0.94325   0.00000  Uiso   1.00
C970   C     0.54131   0.83776   0.92272   0.00000  Uiso   1.00
H971   H     0.57580   0.77288   0.57304   0.00000  Uiso   1.00
H972   H     0.50476   0.90317   0.64063   0.00000  Uiso   1.00
H973   H     0.54164   0.90615   0.58545   0.00000  Uiso   1.00
H974   H     0.49697   0.93632   0.60262   0.00000  Uiso   1.00
H975   H     0.46350   0.88561   0.56692   0.00000  Uiso   1.00
H976   H     0.45238   0.85741   0.61535   0.00000  Uiso   1.00
H977   H     0.65218   0.80803   0.79135   0.00000  Uiso   1.00
H978   H     0.53950   0.67024   0.71038   0.00000  Uiso   1.00
H979   H     0.45921   0.99829   0.79033   0.00000  Uiso   1.00
H980   H     0.59966   0.77593   0.99288   0.00000  Uiso   1.00
H981   H     0.42423   0.82918   0.54351   0.00000  Uiso   1.00
H982   H     0.37925   0.85685   0.50617   0.00000  Uiso   1.00
H983   H     0.55704   0.84666   0.88945   0.00000  Uiso   1.00
H984   H     0.34933   0.85997   0.70902   0.00000  Uiso   1.00
I985   I     0.62339   0.79781   0.90262   0.00000  Uiso   1.00
I986   I     0.38281   0.88750   0.91842   0.00000  Uiso   1.00
O987   O     0.50000   0.83333   0.75000   0.00000  Uiso   1.00
O988   O     0.48784   0.79304   0.65459   0.00000  Uiso   1.00
O989   O     0.46274   0.87058   0.84968   0.00000  Uiso   1.00
O990   O     0.54157   0.84425   0.64606   0.00000  Uiso   1.00
O991   O     0.50785   0.82546   0.84968   0.00000  Uiso   1.00
O992   O     0.51264   0.74686   0.78214   0.00000  Uiso   1.00
O993   O     0.47965   0.92751   0.77014   0.00000  Uiso   1.00
O994   O     0.40745   0.79958   0.73413   0.00000  Uiso   1.00
O995   O     0.60026   0.85939   0.71361   0.00000  Uiso   1.00
O996   O     0.40405   0.85544   0.78213   0.00000  Uiso   1.00
O997   O     0.58824   0.81892   0.77014   0.00000  Uiso   1.00
O998   O     0.47093   0.73610   0.73413   0.00000  Uiso   1.00
O999   O     0.53678   0.92286   0.71361   0.00000  Uiso   1.00
Zn1000 Zn    0.52672   0.80661   0.78734   0.00000  Uiso   1.00
Zn1001 Zn    0.46713   0.79124   0.71876   0.00000  Uiso   1.00
Zn1002 Zn    0.54389   0.86442   0.70657   0.00000  Uiso   1.00
Zn1003 Zn    0.46226   0.87106   0.78734   0.00000  Uiso   1.00
C1004  C     0.71944   0.82659   0.76001   0.00000  Uiso   1.00
C1005  C     0.83680   0.83465   0.56072   0.00000  Uiso   1.00
C1006  C     0.89156   0.78919   0.55666   0.00000  Uiso   1.00
C1007  C     0.94748   0.84053   0.73994   0.00000  Uiso   1.00
C1008  C     0.80357   0.85552   0.92034   0.00000  Uiso   1.00
C1009  C     0.99345   0.84309   0.73561   0.00000  Uiso   1.00
C1010  C     0.67410   0.82462   0.76422   0.00000  Uiso   1.00
C1011  C     0.84689   0.98915   0.73620   0.00000  Uiso   1.00
C1012  C     0.81867   0.67855   0.76417   0.00000  Uiso   1.00
C1013  C     0.82283   0.72265   0.76028   0.00000  Uiso   1.00
C1014  C     0.84321   0.94461   0.74012   0.00000  Uiso   1.00
C1015  C     0.74574   0.85385   0.98860   0.00000  Uiso   1.00
C1016  C     0.85152   0.81577   0.62958   0.00000  Uiso   1.00
C1017  C     0.81525   0.85162   0.87097   0.00000  Uiso   1.00
C1018  C     0.90503   0.79088   0.51077   0.00000  Uiso   1.00
C1019  C     0.85844   0.81164   0.58169   0.00000  Uiso   1.00
C1020  C     0.76134   0.86358   0.94445   0.00000  Uiso   1.00
C1021  C     0.81193   0.87007   0.58737   0.00000  Uiso   1.00
C1022  C     0.84084   0.90573   0.60491   0.00000  Uiso   1.00
C1023  C     0.77198   0.83927   0.51030   0.00000  Uiso   1.00
C1024  C     0.81613   0.83858   0.99006   0.00000  Uiso   1.00
C1025  C     0.83170   0.84445   0.94398   0.00000  Uiso   1.00
C1026  C     0.84438   0.82832   0.51367   0.00000  Uiso   1.00
C1027  C     0.88260   0.81158   0.98891   0.00000  Uiso   1.00
C1028  C     0.89800   0.81737   0.94325   0.00000  Uiso   1.00
C1029  C     0.87464   0.83776   0.92272   0.00000  Uiso   1.00
H1030  H     0.90914   0.77288   0.57304   0.00000  Uiso   1.00
H1031  H     0.83809   0.90317   0.64063   0.00000  Uiso   1.00
H1032  H     0.87497   0.90615   0.58545   0.00000  Uiso   1.00
H1033  H     0.83030   0.93632   0.60262   0.00000  Uiso   1.00
H1034  H     0.79684   0.88561   0.56692   0.00000  Uiso   1.00
H1035  H     0.78571   0.85741   0.61535   0.00000  Uiso   1.00
H1036  H     0.98551   0.80803   0.79135   0.00000  Uiso   1.00
H1037  H     0.87284   0.67024   0.71038   0.00000  Uiso   1.00
H1038  H     0.79254   0.99829   0.79033   0.00000  Uiso   1.00
H1039  H     0.93299   0.77593   0.99288   0.00000  Uiso   1.00
H1040  H     0.75756   0.82918   0.54351   0.00000  Uiso   1.00
H1041  H     0.71258   0.85685   0.50617   0.00000  Uiso   1.00
H1042  H     0.89038   0.84666   0.88945   0.00000  Uiso   1.00
H1043  H     0.68266   0.85997   0.70902   0.00000  Uiso   1.00
I1044  I     0.95672   0.79781   0.90262   0.00000  Uiso   1.00
I1045  I     0.71614   0.88750   0.91842   0.00000  Uiso   1.00
O1046  O     0.83333   0.83333   0.75000   0.00000  Uiso   1.00
O1047  O     0.82118   0.79304   0.65459   0.00000  Uiso   1.00
O1048  O     0.79607   0.87058   0.84968   0.00000  Uiso   1.00
O1049  O     0.87491   0.84425   0.64606   0.00000  Uiso   1.00
O1050  O     0.84118   0.82546   0.84968   0.00000  Uiso   1.00
O1051  O     0.84597   0.74686   0.78214   0.00000  Uiso   1.00
O1052  O     0.81298   0.92751   0.77014   0.00000  Uiso   1.00
O1053  O     0.74078   0.79958   0.73413   0.00000  Uiso   1.00
O1054  O     0.93360   0.85939   0.71361   0.00000  Uiso   1.00
O1055  O     0.73738   0.85544   0.78213   0.00000  Uiso   1.00
O1056  O     0.92158   0.81892   0.77014   0.00000  Uiso   1.00
O1057  O     0.80426   0.73610   0.73413   0.00000  Uiso   1.00
O1058  O     0.87012   0.92286   0.71361   0.00000  Uiso   1.00
Zn1059 Zn    0.86005   0.80661   0.78734   0.00000  Uiso   1.00
Zn1060 Zn    0.80046   0.79124   0.71876   0.00000  Uiso   1.00
Zn1061 Zn    0.87723   0.86442   0.70657   0.00000  Uiso   1.00
Zn1062 Zn    0.79560   0.87106   0.78734   0.00000  Uiso   1.00
loop_
_geom_bond_atom_site_label_1
_geom_bond_atom_site_label_2
_geom_bond_distance
_geom_bond_site_symmetry_2
_ccdc_geom_bond_type
C1     O50     1.273   .     A
C1     O52     1.272   .     A
C1     C7      1.438   .     S
C2     C18     1.537   .     S
C2     C16     1.411   .     A
C2     C23     1.421   .     A
C3     H27     1.084   .     S
C3     C15     1.387   .     A
C3     C16     1.396   .     A
C4     O53     1.279   .     A
C4     O51     1.284   .     A
C4     C6      1.456   .     S
C5     C14     1.482   .     S
C5     C17     1.422   .     A
C5     C22     1.426   .     A
C6     C66     1.335   .     S
C6     H99     1.088   .     S
C7     C124    1.335   1_455 S
C7     H151    1.086   1_455 S
C8     C11     1.450   .     S
C8     C186    1.331   .     S
C8     H211    1.088   .     S
C9     C10     1.434   .     S
C9     C362    1.331   1_545 S
C9     H389    1.086   1_545 S
C10    O48     1.283   .     A
C10    O54     1.283   .     A
C11    O49     1.270   .     A
C11    O55     1.268   .     A
C12    C17     1.390   .     A
C12    C551    1.384   .     S
C12    H569    1.083   .     S
C13    C16     1.447   .     S
C13    O46     1.268   .     A
C13    O44     1.276   .     A
C14    O47     1.286   .     A
C14    O45     1.279   .     A
C15    C555    1.401   1_554 S
C15    H567    1.081   1_554 S
C17    I42     2.132   .     S
C18    H32     1.111   .     S
C18    C19     1.535   .     S
C18    H31     1.103   .     S
C19    H28     1.107   .     S
C19    H29     1.111   .     S
C19    H30     1.112   .     S
C20    H37     1.083   .     S
C20    C543    1.384   1_554 S
C20    C552    1.406   1_554 S
C21    C22     1.416   .     A
C21    C551    1.406   .     S
C21    C554    1.418   .     S
C22    C26     1.412   .     A
C23    C552    1.418   1_554 S
C23    C555    1.421   1_554 S
C24    C25     1.403   .     A
C24    C546    1.401   .     S
C24    C554    1.421   .     S
C25    I41     2.127   .     S
C25    C26     1.389   .     A
C26    H39     1.078   .     S
H33    C66     1.086   .     S
H34    C362    1.088   1_545 S
H35    C186    1.086   .     S
H36    C546    1.081   .     S
H38    C543    1.083   1_554 S
H40    C124    1.088   1_455 S
O43    Zn56    1.965   .     S
O43    Zn59    1.927   .     S
O43    Zn57    1.956   .     S
O43    Zn58    1.933   .     S
O44    Zn57    1.940   .     S
O45    Zn59    1.956   .     S
O46    Zn58    1.952   .     S
O47    Zn56    1.937   .     S
O48    Zn56    1.928   .     S
O49    Zn59    1.929   .     S
O50    Zn57    1.921   .     S
O51    Zn58    1.938   .     S
O52    Zn59    1.936   .     S
O53    Zn56    1.921   .     S
O54    Zn57    1.932   .     S
O55    Zn58    1.926   .     S
C60    O109    1.273   .     A
C60    O111    1.272   .     A
C60    C66     1.438   .     S
C61    C77     1.537   .     S
C61    C75     1.411   .     A
C61    C82     1.421   .     A
C62    H86     1.084   .     S
C62    C74     1.387   .     A
C62    C75     1.396   .     A
C63    O112    1.279   .     A
C63    O110    1.284   .     A
C63    C65     1.456   .     S
C64    C73     1.482   .     S
C64    C76     1.422   .     A
C64    C81     1.426   .     A
C65    C125    1.335   .     S
C65    H158    1.088   .     S
C67    C70     1.450   .     S
C67    C245    1.331   .     S
C67    H270    1.088   .     S
C68    C69     1.434   .     S
C68    C421    1.331   1_545 S
C68    H448    1.086   1_545 S
C69    O107    1.283   .     A
C69    O113    1.283   .     A
C70    O108    1.270   .     A
C70    O114    1.268   .     A
C71    C76     1.390   .     A
C71    C610    1.384   .     S
C71    H628    1.083   .     S
C72    C75     1.447   .     S
C72    O105    1.268   .     A
C72    O103    1.276   .     A
C73    O106    1.286   .     A
C73    O104    1.279   .     A
C74    C614    1.401   1_554 S
C74    H626    1.081   1_554 S
C76    I101    2.132   .     S
C77    H91     1.111   .     S
C77    C78     1.535   .     S
C77    H90     1.103   .     S
C78    H87     1.107   .     S
C78    H88     1.111   .     S
C78    H89     1.112   .     S
C79    H96     1.083   .     S
C79    C602    1.384   1_554 S
C79    C611    1.406   1_554 S
C80    C81     1.416   .     A
C80    C610    1.406   .     S
C80    C613    1.418   .     S
C81    C85     1.412   .     A
C82    C611    1.418   1_554 S
C82    C614    1.421   1_554 S
C83    C84     1.403   .     A
C83    C605    1.401   .     S
C83    C613    1.421   .     S
C84    I100    2.127   .     S
C84    C85     1.389   .     A
C85    H98     1.078   .     S
H92    C125    1.086   .     S
H93    C421    1.088   1_545 S
H94    C245    1.086   .     S
H95    C605    1.081   .     S
H97    C602    1.083   1_554 S
O102   Zn115   1.965   .     S
O102   Zn118   1.927   .     S
O102   Zn116   1.956   .     S
O102   Zn117   1.933   .     S
O103   Zn116   1.940   .     S
O104   Zn118   1.956   .     S
O105   Zn117   1.952   .     S
O106   Zn115   1.937   .     S
O107   Zn115   1.928   .     S
O108   Zn118   1.929   .     S
O109   Zn116   1.921   .     S
O110   Zn117   1.938   .     S
O111   Zn118   1.936   .     S
O112   Zn115   1.921   .     S
O113   Zn116   1.932   .     S
O114   Zn117   1.926   .     S
C119   O168    1.273   .     A
C119   O170    1.272   .     A
C119   C125    1.438   .     S
C120   C136    1.537   .     S
C120   C134    1.411   .     A
C120   C141    1.421   .     A
C121   H145    1.084   .     S
C121   C133    1.387   .     A
C121   C134    1.396   .     A
C122   O171    1.279   .     A
C122   O169    1.284   .     A
C122   C124    1.456   .     S
C123   C132    1.482   .     S
C123   C135    1.422   .     A
C123   C140    1.426   .     A
C124   C7      1.335   1_655 S
C124   H40     1.088   1_655 S
C126   C129    1.450   .     S
C126   C304    1.331   .     S
C126   H329    1.088   .     S
C127   C128    1.434   .     S
C127   C480    1.331   1_545 S
C127   H507    1.086   1_545 S
C128   O166    1.283   .     A
C128   O172    1.283   .     A
C129   O167    1.270   .     A
C129   O173    1.268   .     A
C130   C135    1.390   .     A
C130   C669    1.384   .     S
C130   H687    1.083   .     S
C131   C134    1.447   .     S
C131   O164    1.268   .     A
C131   O162    1.276   .     A
C132   O165    1.286   .     A
C132   O163    1.279   .     A
C133   C673    1.401   1_554 S
C133   H685    1.081   1_554 S
C135   I160    2.132   .     S
C136   H150    1.111   .     S
C136   C137    1.535   .     S
C136   H149    1.103   .     S
C137   H146    1.107   .     S
C137   H147    1.111   .     S
C137   H148    1.112   .     S
C138   H155    1.083   .     S
C138   C661    1.384   1_554 S
C138   C670    1.406   1_554 S
C139   C140    1.416   .     A
C139   C669    1.406   .     S
C139   C672    1.418   .     S
C140   C144    1.412   .     A
C141   C670    1.418   1_554 S
C141   C673    1.421   1_554 S
C142   C143    1.403   .     A
C142   C664    1.401   .     S
C142   C672    1.421   .     S
C143   I159    2.127   .     S
C143   C144    1.389   .     A
C144   H157    1.078   .     S
H151   C7      1.086   1_655 S
H152   C480    1.088   1_545 S
H153   C304    1.086   .     S
H154   C664    1.081   .     S
H156   C661    1.083   1_554 S
O161   Zn174   1.965   .     S
O161   Zn177   1.927   .     S
O161   Zn175   1.956   .     S
O161   Zn176   1.933   .     S
O162   Zn175   1.940   .     S
O163   Zn177   1.956   .     S
O164   Zn176   1.952   .     S
O165   Zn174   1.937   .     S
O166   Zn174   1.928   .     S
O167   Zn177   1.929   .     S
O168   Zn175   1.921   .     S
O169   Zn176   1.938   .     S
O170   Zn177   1.936   .     S
O171   Zn174   1.921   .     S
O172   Zn175   1.932   .     S
O173   Zn176   1.926   .     S
C178   O227    1.273   .     A
C178   O229    1.272   .     A
C178   C184    1.438   .     S
C179   C195    1.537   .     S
C179   C193    1.411   .     A
C179   C200    1.421   .     A
C180   H204    1.084   .     S
C180   C192    1.387   .     A
C180   C193    1.396   .     A
C181   O230    1.279   .     A
C181   O228    1.284   .     A
C181   C183    1.456   .     S
C182   C191    1.482   .     S
C182   C194    1.422   .     A
C182   C199    1.426   .     A
C183   C243    1.335   .     S
C183   H276    1.088   .     S
C184   C301    1.335   1_455 S
C184   H328    1.086   1_455 S
C185   C188    1.450   .     S
C185   C363    1.331   .     S
C185   H388    1.088   .     S
C186   C187    1.434   .     S
C187   O225    1.283   .     A
C187   O231    1.283   .     A
C188   O226    1.270   .     A
C188   O232    1.268   .     A
C189   C194    1.390   .     A
C189   C728    1.384   .     S
C189   H746    1.083   .     S
C190   C193    1.447   .     S
C190   O223    1.268   .     A
C190   O221    1.276   .     A
C191   O224    1.286   .     A
C191   O222    1.279   .     A
C192   C732    1.401   1_554 S
C192   H744    1.081   1_554 S
C194   I219    2.132   .     S
C195   H209    1.111   .     S
C195   C196    1.535   .     S
C195   H208    1.103   .     S
C196   H205    1.107   .     S
C196   H206    1.111   .     S
C196   H207    1.112   .     S
C197   H214    1.083   .     S
C197   C720    1.384   1_554 S
C197   C729    1.406   1_554 S
C198   C199    1.416   .     A
C198   C728    1.406   .     S
C198   C731    1.418   .     S
C199   C203    1.412   .     A
C200   C729    1.418   1_554 S
C200   C732    1.421   1_554 S
C201   C202    1.403   .     A
C201   C723    1.401   .     S
C201   C731    1.421   .     S
C202   I218    2.127   .     S
C202   C203    1.389   .     A
C203   H216    1.078   .     S
H210   C243    1.086   .     S
H212   C363    1.086   .     S
H213   C723    1.081   .     S
H215   C720    1.083   1_554 S
H217   C301    1.088   1_455 S
O220   Zn233   1.965   .     S
O220   Zn236   1.927   .     S
O220   Zn234   1.956   .     S
O220   Zn235   1.933   .     S
O221   Zn234   1.940   .     S
O222   Zn236   1.956   .     S
O223   Zn235   1.952   .     S
O224   Zn233   1.937   .     S
O225   Zn233   1.928   .     S
O226   Zn236   1.929   .     S
O227   Zn234   1.921   .     S
O228   Zn235   1.938   .     S
O229   Zn236   1.936   .     S
O230   Zn233   1.921   .     S
O231   Zn234   1.932   .     S
O232   Zn235   1.926   .     S
C237   O286    1.273   .     A
C237   O288    1.272   .     A
C237   C243    1.438   .     S
C238   C254    1.537   .     S
C238   C252    1.411   .     A
C238   C259    1.421   .     A
C239   H263    1.084   .     S
C239   C251    1.387   .     A
C239   C252    1.396   .     A
C240   O289    1.279   .     A
C240   O287    1.284   .     A
C240   C242    1.456   .     S
C241   C250    1.482   .     S
C241   C253    1.422   .     A
C241   C258    1.426   .     A
C242   C302    1.335   .     S
C242   H335    1.088   .     S
C244   C247    1.450   .     S
C244   C422    1.331   .     S
C244   H447    1.088   .     S
C245   C246    1.434   .     S
C246   O284    1.283   .     A
C246   O290    1.283   .     A
C247   O285    1.270   .     A
C247   O291    1.268   .     A
C248   C253    1.390   .     A
C248   C787    1.384   .     S
C248   H805    1.083   .     S
C249   C252    1.447   .     S
C249   O282    1.268   .     A
C249   O280    1.276   .     A
C250   O283    1.286   .     A
C250   O281    1.279   .     A
C251   C791    1.401   1_554 S
C251   H803    1.081   1_554 S
C253   I278    2.132   .     S
C254   H268    1.111   .     S
C254   C255    1.535   .     S
C254   H267    1.103   .     S
C255   H264    1.107   .     S
C255   H265    1.111   .     S
C255   H266    1.112   .     S
C256   H273    1.083   .     S
C256   C779    1.384   1_554 S
C256   C788    1.406   1_554 S
C257   C258    1.416   .     A
C257   C787    1.406   .     S
C257   C790    1.418   .     S
C258   C262    1.412   .     A
C259   C788    1.418   1_554 S
C259   C791    1.421   1_554 S
C260   C261    1.403   .     A
C260   C782    1.401   .     S
C260   C790    1.421   .     S
C261   I277    2.127   .     S
C261   C262    1.389   .     A
C262   H275    1.078   .     S
H269   C302    1.086   .     S
H271   C422    1.086   .     S
H272   C782    1.081   .     S
H274   C779    1.083   1_554 S
O279   Zn292   1.965   .     S
O279   Zn295   1.927   .     S
O279   Zn293   1.956   .     S
O279   Zn294   1.933   .     S
O280   Zn293   1.940   .     S
O281   Zn295   1.956   .     S
O282   Zn294   1.952   .     S
O283   Zn292   1.937   .     S
O284   Zn292   1.928   .     S
O285   Zn295   1.929   .     S
O286   Zn293   1.921   .     S
O287   Zn294   1.938   .     S
O288   Zn295   1.936   .     S
O289   Zn292   1.921   .     S
O290   Zn293   1.932   .     S
O291   Zn294   1.926   .     S
C296   O345    1.273   .     A
C296   O347    1.272   .     A
C296   C302    1.438   .     S
C297   C313    1.537   .     S
C297   C311    1.411   .     A
C297   C318    1.421   .     A
C298   H322    1.084   .     S
C298   C310    1.387   .     A
C298   C311    1.396   .     A
C299   O348    1.279   .     A
C299   O346    1.284   .     A
C299   C301    1.456   .     S
C300   C309    1.482   .     S
C300   C312    1.422   .     A
C300   C317    1.426   .     A
C301   C184    1.335   1_655 S
C301   H217    1.088   1_655 S
C303   C306    1.450   .     S
C303   C481    1.331   .     S
C303   H506    1.088   .     S
C304   C305    1.434   .     S
C305   O343    1.283   .     A
C305   O349    1.283   .     A
C306   O344    1.270   .     A
C306   O350    1.268   .     A
C307   C312    1.390   .     A
C307   C846    1.384   .     S
C307   H864    1.083   .     S
C308   C311    1.447   .     S
C308   O341    1.268   .     A
C308   O339    1.276   .     A
C309   O342    1.286   .     A
C309   O340    1.279   .     A
C310   C850    1.401   1_554 S
C310   H862    1.081   1_554 S
C312   I337    2.132   .     S
C313   H327    1.111   .     S
C313   C314    1.535   .     S
C313   H326    1.103   .     S
C314   H323    1.107   .     S
C314   H324    1.111   .     S
C314   H325    1.112   .     S
C315   H332    1.083   .     S
C315   C838    1.384   1_554 S
C315   C847    1.406   1_554 S
C316   C317    1.416   .     A
C316   C846    1.406   .     S
C316   C849    1.418   .     S
C317   C321    1.412   .     A
C318   C847    1.418   1_554 S
C318   C850    1.421   1_554 S
C319   C320    1.403   .     A
C319   C841    1.401   .     S
C319   C849    1.421   .     S
C320   I336    2.127   .     S
C320   C321    1.389   .     A
C321   H334    1.078   .     S
H328   C184    1.086   1_655 S
H330   C481    1.086   .     S
H331   C841    1.081   .     S
H333   C838    1.083   1_554 S
O338   Zn351   1.965   .     S
O338   Zn354   1.927   .     S
O338   Zn352   1.956   .     S
O338   Zn353   1.933   .     S
O339   Zn352   1.940   .     S
O340   Zn354   1.956   .     S
O341   Zn353   1.952   .     S
O342   Zn351   1.937   .     S
O343   Zn351   1.928   .     S
O344   Zn354   1.929   .     S
O345   Zn352   1.921   .     S
O346   Zn353   1.938   .     S
O347   Zn354   1.936   .     S
O348   Zn351   1.921   .     S
O349   Zn352   1.932   .     S
O350   Zn353   1.926   .     S
C355   O404    1.273   .     A
C355   O406    1.272   .     A
C355   C361    1.438   .     S
C356   C372    1.537   .     S
C356   C370    1.411   .     A
C356   C377    1.421   .     A
C357   H381    1.084   .     S
C357   C369    1.387   .     A
C357   C370    1.396   .     A
C358   O407    1.279   .     A
C358   O405    1.284   .     A
C358   C360    1.456   .     S
C359   C368    1.482   .     S
C359   C371    1.422   .     A
C359   C376    1.426   .     A
C360   C420    1.335   .     S
C360   H453    1.088   .     S
C361   C478    1.335   1_455 S
C361   H505    1.086   1_455 S
C362   C365    1.450   .     S
C362   C9      1.331   1_565 S
C362   H34     1.088   1_565 S
C363   C364    1.434   .     S
C364   O402    1.283   .     A
C364   O408    1.283   .     A
C365   O403    1.270   .     A
C365   O409    1.268   .     A
C366   C371    1.390   .     A
C366   C905    1.384   .     S
C366   H923    1.083   .     S
C367   C370    1.447   .     S
C367   O400    1.268   .     A
C367   O398    1.276   .     A
C368   O401    1.286   .     A
C368   O399    1.279   .     A
C369   C909    1.401   1_554 S
C369   H921    1.081   1_554 S
C371   I396    2.132   .     S
C372   H386    1.111   .     S
C372   C373    1.535   .     S
C372   H385    1.103   .     S
C373   H382    1.107   .     S
C373   H383    1.111   .     S
C373   H384    1.112   .     S
C374   H391    1.083   .     S
C374   C897    1.384   1_554 S
C374   C906    1.406   1_554 S
C375   C376    1.416   .     A
C375   C905    1.406   .     S
C375   C908    1.418   .     S
C376   C380    1.412   .     A
C377   C906    1.418   1_554 S
C377   C909    1.421   1_554 S
C378   C379    1.403   .     A
C378   C900    1.401   .     S
C378   C908    1.421   .     S
C379   I395    2.127   .     S
C379   C380    1.389   .     A
C380   H393    1.078   .     S
H387   C420    1.086   .     S
H389   C9      1.086   1_565 S
H390   C900    1.081   .     S
H392   C897    1.083   1_554 S
H394   C478    1.088   1_455 S
O397   Zn410   1.965   .     S
O397   Zn413   1.927   .     S
O397   Zn411   1.956   .     S
O397   Zn412   1.933   .     S
O398   Zn411   1.940   .     S
O399   Zn413   1.956   .     S
O400   Zn412   1.952   .     S
O401   Zn410   1.937   .     S
O402   Zn410   1.928   .     S
O403   Zn413   1.929   .     S
O404   Zn411   1.921   .     S
O405   Zn412   1.938   .     S
O406   Zn413   1.936   .     S
O407   Zn410   1.921   .     S
O408   Zn411   1.932   .     S
O409   Zn412   1.926   .     S
C414   O463    1.273   .     A
C414   O465    1.272   .     A
C414   C420    1.438   .     S
C415   C431    1.537   .     S
C415   C429    1.411   .     A
C415   C436    1.421   .     A
C416   H440    1.084   .     S
C416   C428    1.387   .     A
C416   C429    1.396   .     A
C417   O466    1.279   .     A
C417   O464    1.284   .     A
C417   C419    1.456   .     S
C418   C427    1.482   .     S
C418   C430    1.422   .     A
C418   C435    1.426   .     A
C419   C479    1.335   .     S
C419   H512    1.088   .     S
C421   C424    1.450   .     S
C421   C68     1.331   1_565 S
C421   H93     1.088   1_565 S
C422   C423    1.434   .     S
C423   O461    1.283   .     A
C423   O467    1.283   .     A
C424   O462    1.270   .     A
C424   O468    1.268   .     A
C425   C430    1.390   .     A
C425   C964    1.384   .     S
C425   H982    1.083   .     S
C426   C429    1.447   .     S
C426   O459    1.268   .     A
C426   O457    1.276   .     A
C427   O460    1.286   .     A
C427   O458    1.279   .     A
C428   C968    1.401   1_554 S
C428   H980    1.081   1_554 S
C430   I455    2.132   .     S
C431   H445    1.111   .     S
C431   C432    1.535   .     S
C431   H444    1.103   .     S
C432   H441    1.107   .     S
C432   H442    1.111   .     S
C432   H443    1.112   .     S
C433   H450    1.083   .     S
C433   C956    1.384   1_554 S
C433   C965    1.406   1_554 S
C434   C435    1.416   .     A
C434   C964    1.406   .     S
C434   C967    1.418   .     S
C435   C439    1.412   .     A
C436   C965    1.418   1_554 S
C436   C968    1.421   1_554 S
C437   C438    1.403   .     A
C437   C959    1.401   .     S
C437   C967    1.421   .     S
C438   I454    2.127   .     S
C438   C439    1.389   .     A
C439   H452    1.078   .     S
H446   C479    1.086   .     S
H448   C68     1.086   1_565 S
H449   C959    1.081   .     S
H451   C956    1.083   1_554 S
O456   Zn469   1.965   .     S
O456   Zn472   1.927   .     S
O456   Zn470   1.956   .     S
O456   Zn471   1.933   .     S
O457   Zn470   1.940   .     S
O458   Zn472   1.956   .     S
O459   Zn471   1.952   .     S
O460   Zn469   1.937   .     S
O461   Zn469   1.928   .     S
O462   Zn472   1.929   .     S
O463   Zn470   1.921   .     S
O464   Zn471   1.938   .     S
O465   Zn472   1.936   .     S
O466   Zn469   1.921   .     S
O467   Zn470   1.932   .     S
O468   Zn471   1.926   .     S
C473   O522    1.273   .     A
C473   O524    1.272   .     A
C473   C479    1.438   .     S
C474   C490    1.537   .     S
C474   C488    1.411   .     A
C474   C495    1.421   .     A
C475   H499    1.084   .     S
C475   C487    1.387   .     A
C475   C488    1.396   .     A
C476   O525    1.279   .     A
C476   O523    1.284   .     A
C476   C478    1.456   .     S
C477   C486    1.482   .     S
C477   C489    1.422   .     A
C477   C494    1.426   .     A
C478   C361    1.335   1_655 S
C478   H394    1.088   1_655 S
C480   C483    1.450   .     S
C480   C127    1.331   1_565 S
C480   H152    1.088   1_565 S
C481   C482    1.434   .     S
C482   O520    1.283   .     A
C482   O526    1.283   .     A
C483   O521    1.270   .     A
C483   O527    1.268   .     A
C484   C489    1.390   .     A
C484   C1023   1.384   .     S
C484   H1041   1.083   .     S
C485   C488    1.447   .     S
C485   O518    1.268   .     A
C485   O516    1.276   .     A
C486   O519    1.286   .     A
C486   O517    1.279   .     A
C487   C1027   1.401   1_554 S
C487   H1039   1.081   1_554 S
C489   I514    2.132   .     S
C490   H504    1.111   .     S
C490   C491    1.535   .     S
C490   H503    1.103   .     S
C491   H500    1.107   .     S
C491   H501    1.111   .     S
C491   H502    1.112   .     S
C492   H509    1.083   .     S
C492   C1015   1.384   1_554 S
C492   C1024   1.406   1_554 S
C493   C494    1.416   .     A
C493   C1023   1.406   .     S
C493   C1026   1.418   .     S
C494   C498    1.412   .     A
C495   C1024   1.418   1_554 S
C495   C1027   1.421   1_554 S
C496   C497    1.403   .     A
C496   C1018   1.401   .     S
C496   C1026   1.421   .     S
C497   I513    2.127   .     S
C497   C498    1.389   .     A
C498   H511    1.078   .     S
H505   C361    1.086   1_655 S
H507   C127    1.086   1_565 S
H508   C1018   1.081   .     S
H510   C1015   1.083   1_554 S
O515   Zn528   1.965   .     S
O515   Zn531   1.927   .     S
O515   Zn529   1.956   .     S
O515   Zn530   1.933   .     S
O516   Zn529   1.940   .     S
O517   Zn531   1.956   .     S
O518   Zn530   1.952   .     S
O519   Zn528   1.937   .     S
O520   Zn528   1.928   .     S
O521   Zn531   1.929   .     S
O522   Zn529   1.921   .     S
O523   Zn530   1.938   .     S
O524   Zn531   1.936   .     S
O525   Zn528   1.921   .     S
O526   Zn529   1.932   .     S
O527   Zn530   1.926   .     S
C532   O581    1.273   .     A
C532   O583    1.272   .     A
C532   C538    1.438   .     S
C533   C549    1.537   .     S
C533   C547    1.411   .     A
C533   C554    1.421   .     A
C534   H558    1.084   .     S
C534   C546    1.387   .     A
C534   C547    1.396   .     A
C535   O584    1.279   .     A
C535   O582    1.284   .     A
C535   C537    1.456   .     S
C536   C545    1.482   .     S
C536   C548    1.422   .     A
C536   C553    1.426   .     A
C537   C597    1.335   .     S
C537   H630    1.088   .     S
C538   C655    1.335   1_455 S
C538   H682    1.086   1_455 S
C539   C542    1.450   .     S
C539   C717    1.331   .     S
C539   H742    1.088   .     S
C540   C541    1.434   .     S
C540   C893    1.331   1_545 S
C540   H920    1.086   1_545 S
C541   O579    1.283   .     A
C541   O585    1.283   .     A
C542   O580    1.270   .     A
C542   O586    1.268   .     A
C543   C548    1.390   .     A
C543   C20     1.384   1_556 S
C543   H38     1.083   1_556 S
C544   C547    1.447   .     S
C544   O577    1.268   .     A
C544   O575    1.276   .     A
C545   O578    1.286   .     A
C545   O576    1.279   .     A
C548   I573    2.132   .     S
C549   H563    1.111   .     S
C549   C550    1.535   .     S
C549   H562    1.103   .     S
C550   H559    1.107   .     S
C550   H560    1.111   .     S
C550   H561    1.112   .     S
C551   H568    1.083   .     S
C552   C553    1.416   .     A
C552   C20     1.406   1_556 S
C552   C23     1.418   1_556 S
C553   C557    1.412   .     A
C555   C556    1.403   .     A
C555   C15     1.401   1_556 S
C555   C23     1.421   1_556 S
C556   I572    2.127   .     S
C556   C557    1.389   .     A
C557   H570    1.078   .     S
H564   C597    1.086   .     S
H565   C893    1.088   1_545 S
H566   C717    1.086   .     S
H567   C15     1.081   1_556 S
H571   C655    1.088   1_455 S
O574   Zn587   1.965   .     S
O574   Zn590   1.927   .     S
O574   Zn588   1.956   .     S
O574   Zn589   1.933   .     S
O575   Zn588   1.940   .     S
O576   Zn590   1.956   .     S
O577   Zn589   1.952   .     S
O578   Zn587   1.937   .     S
O579   Zn587   1.928   .     S
O580   Zn590   1.929   .     S
O581   Zn588   1.921   .     S
O582   Zn589   1.938   .     S
O583   Zn590   1.936   .     S
O584   Zn587   1.921   .     S
O585   Zn588   1.932   .     S
O586   Zn589   1.926   .     S
C591   O640    1.273   .     A
C591   O642    1.272   .     A
C591   C597    1.438   .     S
C592   C608    1.537   .     S
C592   C606    1.411   .     A
C592   C613    1.421   .     A
C593   H617    1.084   .     S
C593   C605    1.387   .     A
C593   C606    1.396   .     A
C594   O643    1.279   .     A
C594   O641    1.284   .     A
C594   C596    1.456   .     S
C595   C604    1.482   .     S
C595   C607    1.422   .     A
C595   C612    1.426   .     A
C596   C656    1.335   .     S
C596   H689    1.088   .     S
C598   C601    1.450   .     S
C598   C776    1.331   .     S
C598   H801    1.088   .     S
C599   C600    1.434   .     S
C599   C952    1.331   1_545 S
C599   H979    1.086   1_545 S
C600   O638    1.283   .     A
C600   O644    1.283   .     A
C601   O639    1.270   .     A
C601   O645    1.268   .     A
C602   C607    1.390   .     A
C602   C79     1.384   1_556 S
C602   H97     1.083   1_556 S
C603   C606    1.447   .     S
C603   O636    1.268   .     A
C603   O634    1.276   .     A
C604   O637    1.286   .     A
C604   O635    1.279   .     A
C607   I632    2.132   .     S
C608   H622    1.111   .     S
C608   C609    1.535   .     S
C608   H621    1.103   .     S
C609   H618    1.107   .     S
C609   H619    1.111   .     S
C609   H620    1.112   .     S
C610   H627    1.083   .     S
C611   C612    1.416   .     A
C611   C79     1.406   1_556 S
C611   C82     1.418   1_556 S
C612   C616    1.412   .     A
C614   C615    1.403   .     A
C614   C74     1.401   1_556 S
C614   C82     1.421   1_556 S
C615   I631    2.127   .     S
C615   C616    1.389   .     A
C616   H629    1.078   .     S
H623   C656    1.086   .     S
H624   C952    1.088   1_545 S
H625   C776    1.086   .     S
H626   C74     1.081   1_556 S
O633   Zn646   1.965   .     S
O633   Zn649   1.927   .     S
O633   Zn647   1.956   .     S
O633   Zn648   1.933   .     S
O634   Zn647   1.940   .     S
O635   Zn649   1.956   .     S
O636   Zn648   1.952   .     S
O637   Zn646   1.937   .     S
O638   Zn646   1.928   .     S
O639   Zn649   1.929   .     S
O640   Zn647   1.921   .     S
O641   Zn648   1.938   .     S
O642   Zn649   1.936   .     S
O643   Zn646   1.921   .     S
O644   Zn647   1.932   .     S
O645   Zn648   1.926   .     S
C650   O699    1.273   .     A
C650   O701    1.272   .     A
C650   C656    1.438   .     S
C651   C667    1.537   .     S
C651   C665    1.411   .     A
C651   C672    1.421   .     A
C652   H676    1.084   .     S
C652   C664    1.387   .     A
C652   C665    1.396   .     A
C653   O702    1.279   .     A
C653   O700    1.284   .     A
C653   C655    1.456   .     S
C654   C663    1.482   .     S
C654   C666    1.422   .     A
C654   C671    1.426   .     A
C655   C538    1.335   1_655 S
C655   H571    1.088   1_655 S
C657   C660    1.450   .     S
C657   C835    1.331   .     S
C657   H860    1.088   .     S
C658   C659    1.434   .     S
C658   C1011   1.331   1_545 S
C658   H1038   1.086   1_545 S
C659   O697    1.283   .     A
C659   O703    1.283   .     A
C660   O698    1.270   .     A
C660   O704    1.268   .     A
C661   C666    1.390   .     A
C661   C138    1.384   1_556 S
C661   H156    1.083   1_556 S
C662   C665    1.447   .     S
C662   O695    1.268   .     A
C662   O693    1.276   .     A
C663   O696    1.286   .     A
C663   O694    1.279   .     A
C666   I691    2.132   .     S
C667   H681    1.111   .     S
C667   C668    1.535   .     S
C667   H680    1.103   .     S
C668   H677    1.107   .     S
C668   H678    1.111   .     S
C668   H679    1.112   .     S
C669   H686    1.083   .     S
C670   C671    1.416   .     A
C670   C138    1.406   1_556 S
C670   C141    1.418   1_556 S
C671   C675    1.412   .     A
C673   C674    1.403   .     A
C673   C133    1.401   1_556 S
C673   C141    1.421   1_556 S
C674   I690    2.127   .     S
C674   C675    1.389   .     A
C675   H688    1.078   .     S
H682   C538    1.086   1_655 S
H683   C1011   1.088   1_545 S
H684   C835    1.086   .     S
H685   C133    1.081   1_556 S
O692   Zn705   1.965   .     S
O692   Zn708   1.927   .     S
O692   Zn706   1.956   .     S
O692   Zn707   1.933   .     S
O693   Zn706   1.940   .     S
O694   Zn708   1.956   .     S
O695   Zn707   1.952   .     S
O696   Zn705   1.937   .     S
O697   Zn705   1.928   .     S
O698   Zn708   1.929   .     S
O699   Zn706   1.921   .     S
O700   Zn707   1.938   .     S
O701   Zn708   1.936   .     S
O702   Zn705   1.921   .     S
O703   Zn706   1.932   .     S
O704   Zn707   1.926   .     S
C709   O758    1.273   .     A
C709   O760    1.272   .     A
C709   C715    1.438   .     S
C710   C726    1.537   .     S
C710   C724    1.411   .     A
C710   C731    1.421   .     A
C711   H735    1.084   .     S
C711   C723    1.387   .     A
C711   C724    1.396   .     A
C712   O761    1.279   .     A
C712   O759    1.284   .     A
C712   C714    1.456   .     S
C713   C722    1.482   .     S
C713   C725    1.422   .     A
C713   C730    1.426   .     A
C714   C774    1.335   .     S
C714   H807    1.088   .     S
C715   C832    1.335   1_455 S
C715   H859    1.086   1_455 S
C716   C719    1.450   .     S
C716   C894    1.331   .     S
C716   H919    1.088   .     S
C717   C718    1.434   .     S
C718   O756    1.283   .     A
C718   O762    1.283   .     A
C719   O757    1.270   .     A
C719   O763    1.268   .     A
C720   C725    1.390   .     A
C720   C197    1.384   1_556 S
C720   H215    1.083   1_556 S
C721   C724    1.447   .     S
C721   O754    1.268   .     A
C721   O752    1.276   .     A
C722   O755    1.286   .     A
C722   O753    1.279   .     A
C725   I750    2.132   .     S
C726   H740    1.111   .     S
C726   C727    1.535   .     S
C726   H739    1.103   .     S
C727   H736    1.107   .     S
C727   H737    1.111   .     S
C727   H738    1.112   .     S
C728   H745    1.083   .     S
C729   C730    1.416   .     A
C729   C197    1.406   1_556 S
C729   C200    1.418   1_556 S
C730   C734    1.412   .     A
C732   C733    1.403   .     A
C732   C192    1.401   1_556 S
C732   C200    1.421   1_556 S
C733   I749    2.127   .     S
C733   C734    1.389   .     A
C734   H747    1.078   .     S
H741   C774    1.086   .     S
H743   C894    1.086   .     S
H744   C192    1.081   1_556 S
H748   C832    1.088   1_455 S
O751   Zn764   1.965   .     S
O751   Zn767   1.927   .     S
O751   Zn765   1.956   .     S
O751   Zn766   1.933   .     S
O752   Zn765   1.940   .     S
O753   Zn767   1.956   .     S
O754   Zn766   1.952   .     S
O755   Zn764   1.937   .     S
O756   Zn764   1.928   .     S
O757   Zn767   1.929   .     S
O758   Zn765   1.921   .     S
O759   Zn766   1.938   .     S
O760   Zn767   1.936   .     S
O761   Zn764   1.921   .     S
O762   Zn765   1.932   .     S
O763   Zn766   1.926   .     S
C768   O817    1.273   .     A
C768   O819    1.272   .     A
C768   C774    1.438   .     S
C769   C785    1.537   .     S
C769   C783    1.411   .     A
C769   C790    1.421   .     A
C770   H794    1.084   .     S
C770   C782    1.387   .     A
C770   C783    1.396   .     A
C771   O820    1.279   .     A
C771   O818    1.284   .     A
C771   C773    1.456   .     S
C772   C781    1.482   .     S
C772   C784    1.422   .     A
C772   C789    1.426   .     A
C773   C833    1.335   .     S
C773   H866    1.088   .     S
C775   C778    1.450   .     S
C775   C953    1.331   .     S
C775   H978    1.088   .     S
C776   C777    1.434   .     S
C777   O815    1.283   .     A
C777   O821    1.283   .     A
C778   O816    1.270   .     A
C778   O822    1.268   .     A
C779   C784    1.390   .     A
C779   C256    1.384   1_556 S
C779   H274    1.083   1_556 S
C780   C783    1.447   .     S
C780   O813    1.268   .     A
C780   O811    1.276   .     A
C781   O814    1.286   .     A
C781   O812    1.279   .     A
C784   I809    2.132   .     S
C785   H799    1.111   .     S
C785   C786    1.535   .     S
C785   H798    1.103   .     S
C786   H795    1.107   .     S
C786   H796    1.111   .     S
C786   H797    1.112   .     S
C787   H804    1.083   .     S
C788   C789    1.416   .     A
C788   C256    1.406   1_556 S
C788   C259    1.418   1_556 S
C789   C793    1.412   .     A
C791   C792    1.403   .     A
C791   C251    1.401   1_556 S
C791   C259    1.421   1_556 S
C792   I808    2.127   .     S
C792   C793    1.389   .     A
C793   H806    1.078   .     S
H800   C833    1.086   .     S
H802   C953    1.086   .     S
H803   C251    1.081   1_556 S
O810   Zn823   1.965   .     S
O810   Zn826   1.927   .     S
O810   Zn824   1.956   .     S
O810   Zn825   1.933   .     S
O811   Zn824   1.940   .     S
O812   Zn826   1.956   .     S
O813   Zn825   1.952   .     S
O814   Zn823   1.937   .     S
O815   Zn823   1.928   .     S
O816   Zn826   1.929   .     S
O817   Zn824   1.921   .     S
O818   Zn825   1.938   .     S
O819   Zn826   1.936   .     S
O820   Zn823   1.921   .     S
O821   Zn824   1.932   .     S
O822   Zn825   1.926   .     S
C827   O876    1.273   .     A
C827   O878    1.272   .     A
C827   C833    1.438   .     S
C828   C844    1.537   .     S
C828   C842    1.411   .     A
C828   C849    1.421   .     A
C829   H853    1.084   .     S
C829   C841    1.387   .     A
C829   C842    1.396   .     A
C830   O879    1.279   .     A
C830   O877    1.284   .     A
C830   C832    1.456   .     S
C831   C840    1.482   .     S
C831   C843    1.422   .     A
C831   C848    1.426   .     A
C832   C715    1.335   1_655 S
C832   H748    1.088   1_655 S
C834   C837    1.450   .     S
C834   C1012   1.331   .     S
C834   H1037   1.088   .     S
C835   C836    1.434   .     S
C836   O874    1.283   .     A
C836   O880    1.283   .     A
C837   O875    1.270   .     A
C837   O881    1.268   .     A
C838   C843    1.390   .     A
C838   C315    1.384   1_556 S
C838   H333    1.083   1_556 S
C839   C842    1.447   .     S
C839   O872    1.268   .     A
C839   O870    1.276   .     A
C840   O873    1.286   .     A
C840   O871    1.279   .     A
C843   I868    2.132   .     S
C844   H858    1.111   .     S
C844   C845    1.535   .     S
C844   H857    1.103   .     S
C845   H854    1.107   .     S
C845   H855    1.111   .     S
C845   H856    1.112   .     S
C846   H863    1.083   .     S
C847   C848    1.416   .     A
C847   C315    1.406   1_556 S
C847   C318    1.418   1_556 S
C848   C852    1.412   .     A
C850   C851    1.403   .     A
C850   C310    1.401   1_556 S
C850   C318    1.421   1_556 S
C851   I867    2.127   .     S
C851   C852    1.389   .     A
C852   H865    1.078   .     S
H859   C715    1.086   1_655 S
H861   C1012   1.086   .     S
H862   C310    1.081   1_556 S
O869   Zn882   1.965   .     S
O869   Zn885   1.927   .     S
O869   Zn883   1.956   .     S
O869   Zn884   1.933   .     S
O870   Zn883   1.940   .     S
O871   Zn885   1.956   .     S
O872   Zn884   1.952   .     S
O873   Zn882   1.937   .     S
O874   Zn882   1.928   .     S
O875   Zn885   1.929   .     S
O876   Zn883   1.921   .     S
O877   Zn884   1.938   .     S
O878   Zn885   1.936   .     S
O879   Zn882   1.921   .     S
O880   Zn883   1.932   .     S
O881   Zn884   1.926   .     S
C886   O935    1.273   .     A
C886   O937    1.272   .     A
C886   C892    1.438   .     S
C887   C903    1.537   .     S
C887   C901    1.411   .     A
C887   C908    1.421   .     A
C888   H912    1.084   .     S
C888   C900    1.387   .     A
C888   C901    1.396   .     A
C889   O938    1.279   .     A
C889   O936    1.284   .     A
C889   C891    1.456   .     S
C890   C899    1.482   .     S
C890   C902    1.422   .     A
C890   C907    1.426   .     A
C891   C951    1.335   .     S
C891   H984    1.088   .     S
C892   C1009   1.335   1_455 S
C892   H1036   1.086   1_455 S
C893   C896    1.450   .     S
C893   C540    1.331   1_565 S
C893   H565    1.088   1_565 S
C894   C895    1.434   .     S
C895   O933    1.283   .     A
C895   O939    1.283   .     A
C896   O934    1.270   .     A
C896   O940    1.268   .     A
C897   C902    1.390   .     A
C897   C374    1.384   1_556 S
C897   H392    1.083   1_556 S
C898   C901    1.447   .     S
C898   O931    1.268   .     A
C898   O929    1.276   .     A
C899   O932    1.286   .     A
C899   O930    1.279   .     A
C902   I927    2.132   .     S
C903   H917    1.111   .     S
C903   C904    1.535   .     S
C903   H916    1.103   .     S
C904   H913    1.107   .     S
C904   H914    1.111   .     S
C904   H915    1.112   .     S
C905   H922    1.083   .     S
C906   C907    1.416   .     A
C906   C374    1.406   1_556 S
C906   C377    1.418   1_556 S
C907   C911    1.412   .     A
C909   C910    1.403   .     A
C909   C369    1.401   1_556 S
C909   C377    1.421   1_556 S
C910   I926    2.127   .     S
C910   C911    1.389   .     A
C911   H924    1.078   .     S
H918   C951    1.086   .     S
H920   C540    1.086   1_565 S
H921   C369    1.081   1_556 S
H925   C1009   1.088   1_455 S
O928   Zn941   1.965   .     S
O928   Zn944   1.927   .     S
O928   Zn942   1.956   .     S
O928   Zn943   1.933   .     S
O929   Zn942   1.940   .     S
O930   Zn944   1.956   .     S
O931   Zn943   1.952   .     S
O932   Zn941   1.937   .     S
O933   Zn941   1.928   .     S
O934   Zn944   1.929   .     S
O935   Zn942   1.921   .     S
O936   Zn943   1.938   .     S
O937   Zn944   1.936   .     S
O938   Zn941   1.921   .     S
O939   Zn942   1.932   .     S
O940   Zn943   1.926   .     S
C945   O994    1.273   .     A
C945   O996    1.272   .     A
C945   C951    1.438   .     S
C946   C962    1.537   .     S
C946   C960    1.411   .     A
C946   C967    1.421   .     A
C947   H971    1.084   .     S
C947   C959    1.387   .     A
C947   C960    1.396   .     A
C948   O997    1.279   .     A
C948   O995    1.284   .     A
C948   C950    1.456   .     S
C949   C958    1.482   .     S
C949   C961    1.422   .     A
C949   C966    1.426   .     A
C950   C1010   1.335   .     S
C950   H1043   1.088   .     S
C952   C955    1.450   .     S
C952   C599    1.331   1_565 S
C952   H624    1.088   1_565 S
C953   C954    1.434   .     S
C954   O992    1.283   .     A
C954   O998    1.283   .     A
C955   O993    1.270   .     A
C955   O999    1.268   .     A
C956   C961    1.390   .     A
C956   C433    1.384   1_556 S
C956   H451    1.083   1_556 S
C957   C960    1.447   .     S
C957   O990    1.268   .     A
C957   O988    1.276   .     A
C958   O991    1.286   .     A
C958   O989    1.279   .     A
C961   I986    2.132   .     S
C962   H976    1.111   .     S
C962   C963    1.535   .     S
C962   H975    1.103   .     S
C963   H972    1.107   .     S
C963   H973    1.111   .     S
C963   H974    1.112   .     S
C964   H981    1.083   .     S
C965   C966    1.416   .     A
C965   C433    1.406   1_556 S
C965   C436    1.418   1_556 S
C966   C970    1.412   .     A
C968   C969    1.403   .     A
C968   C428    1.401   1_556 S
C968   C436    1.421   1_556 S
C969   I985    2.127   .     S
C969   C970    1.389   .     A
C970   H983    1.078   .     S
H977   C1010   1.086   .     S
H979   C599    1.086   1_565 S
H980   C428    1.081   1_556 S
O987   Zn1000  1.965   .     S
O987   Zn1003  1.927   .     S
O987   Zn1001  1.956   .     S
O987   Zn1002  1.933   .     S
O988   Zn1001  1.940   .     S
O989   Zn1003  1.956   .     S
O990   Zn1002  1.952   .     S
O991   Zn1000  1.937   .     S
O992   Zn1000  1.928   .     S
O993   Zn1003  1.929   .     S
O994   Zn1001  1.921   .     S
O995   Zn1002  1.938   .     S
O996   Zn1003  1.936   .     S
O997   Zn1000  1.921   .     S
O998   Zn1001  1.932   .     S
O999   Zn1002  1.926   .     S
C1004  O1053   1.273   .     A
C1004  O1055   1.272   .     A
C1004  C1010   1.438   .     S
C1005  C1021   1.537   .     S
C1005  C1019   1.411   .     A
C1005  C1026   1.421   .     A
C1006  H1030   1.084   .     S
C1006  C1018   1.387   .     A
C1006  C1019   1.396   .     A
C1007  O1056   1.279   .     A
C1007  O1054   1.284   .     A
C1007  C1009   1.456   .     S
C1008  C1017   1.482   .     S
C1008  C1020   1.422   .     A
C1008  C1025   1.426   .     A
C1009  C892    1.335   1_655 S
C1009  H925    1.088   1_655 S
C1011  C1014   1.450   .     S
C1011  C658    1.331   1_565 S
C1011  H683    1.088   1_565 S
C1012  C1013   1.434   .     S
C1013  O1051   1.283   .     A
C1013  O1057   1.283   .     A
C1014  O1052   1.270   .     A
C1014  O1058   1.268   .     A
C1015  C1020   1.390   .     A
C1015  C492    1.384   1_556 S
C1015  H510    1.083   1_556 S
C1016  C1019   1.447   .     S
C1016  O1049   1.268   .     A
C1016  O1047   1.276   .     A
C1017  O1050   1.286   .     A
C1017  O1048   1.279   .     A
C1020  I1045   2.132   .     S
C1021  H1035   1.111   .     S
C1021  C1022   1.535   .     S
C1021  H1034   1.103   .     S
C1022  H1031   1.107   .     S
C1022  H1032   1.111   .     S
C1022  H1033   1.112   .     S
C1023  H1040   1.083   .     S
C1024  C1025   1.416   .     A
C1024  C492    1.406   1_556 S
C1024  C495    1.418   1_556 S
C1025  C1029   1.412   .     A
C1027  C1028   1.403   .     A
C1027  C487    1.401   1_556 S
C1027  C495    1.421   1_556 S
C1028  I1044   2.127   .     S
C1028  C1029   1.389   .     A
C1029  H1042   1.078   .     S
H1036  C892    1.086   1_655 S
H1038  C658    1.086   1_565 S
H1039  C487    1.081   1_556 S
O1046  Zn1059  1.965   .     S
O1046  Zn1062  1.927   .     S
O1046  Zn1060  1.956   .     S
O1046  Zn1061  1.933   .     S
O1047  Zn1060  1.940   .     S
O1048  Zn1062  1.956   .     S
O1049  Zn1061  1.952   .     S
O1050  Zn1059  1.937   .     S
O1051  Zn1059  1.928   .     S
O1052  Zn1062  1.929   .     S
O1053  Zn1060  1.921   .     S
O1054  Zn1061  1.938   .     S
O1055  Zn1062  1.936   .     S
O1056  Zn1059  1.921   .     S
O1057  Zn1060  1.932   .     S
O1058  Zn1061  1.926   .     S
