data_str_m3_o1_o18_pcu_sym.104
_audit_creation_date              2020-01-03
_audit_creation_method            'Materials Studio'
_symmetry_space_group_name_H-M    'P1'
_symmetry_Int_Tables_number       1
_symmetry_cell_setting            triclinic
loop_
_symmetry_equiv_pos_as_xyz
  x,y,z
_cell_length_a                    29.7176
_cell_length_b                    32.1230
_cell_length_c                    31.0818
_cell_angle_alpha                 90.7575
_cell_angle_beta                  67.2251
_cell_angle_gamma                 89.3669
loop_
_atom_site_label
_atom_site_type_symbol
_atom_site_fract_x
_atom_site_fract_y
_atom_site_fract_z
_atom_site_U_iso_or_equiv
_atom_site_adp_type
_atom_site_occupancy
C1     C     0.16644   0.24664   0.25022   0.00000  Uiso   1.00
C2     C     0.16689   0.08669   0.24978   0.00000  Uiso   1.00
C3     C     0.10586   0.16400   0.05401   0.00000  Uiso   1.00
C4     C     0.21548   0.12553   0.45332   0.00000  Uiso   1.00
C5     C     0.07186   0.16901   0.03388   0.00000  Uiso   1.00
C6     C     0.24944   0.12068   0.47359   0.00000  Uiso   1.00
C7     C     0.20183   0.31179   0.26097   0.00000  Uiso   1.00
C8     C     0.13150   0.02155   0.23904   0.00000  Uiso   1.00
C9     C     0.20224   0.02110   0.26054   0.00000  Uiso   1.00
C10    C     0.13108   0.31224   0.23948   0.00000  Uiso   1.00
C11    C     0.16704   0.04251   0.24963   0.00000  Uiso   1.00
C12    C     0.16629   0.29083   0.25038   0.00000  Uiso   1.00
C13    C     0.31935   0.13509   0.22824   0.00000  Uiso   1.00
C14    C     0.01397   0.19816   0.27191   0.00000  Uiso   1.00
C15    C     0.03343   0.13522   0.22882   0.00000  Uiso   1.00
C16    C     0.29992   0.19813   0.27118   0.00000  Uiso   1.00
C17    C     0.13603   0.16607   0.33801   0.00000  Uiso   1.00
C18    C     0.19729   0.16647   0.16194   0.00000  Uiso   1.00
C19    C     0.11673   0.16337   0.38879   0.00000  Uiso   1.00
C20    C     0.21584   0.16109   0.11126   0.00000  Uiso   1.00
C21    C     0.05301   0.17447   0.46510   0.00000  Uiso   1.00
C22    C     0.27315   0.13032   0.03931   0.00000  Uiso   1.00
C23    C     0.06814   0.17349   0.41670   0.00000  Uiso   1.00
C24    C     0.26172   0.14317   0.08544   0.00000  Uiso   1.00
C25    C     0.14907   0.15179   0.40940   0.00000  Uiso   1.00
C26    C     0.18280   0.16785   0.09012   0.00000  Uiso   1.00
C27    C     0.13478   0.15217   0.45780   0.00000  Uiso   1.00
C28    C     0.19161   0.15193   0.04557   0.00000  Uiso   1.00
C29    C     0.08622   0.16487   0.48579   0.00000  Uiso   1.00
C30    C     0.23833   0.13436   0.01926   0.00000  Uiso   1.00
C31    C     0.16866   0.14350   0.47867   0.00000  Uiso   1.00
C32    C     0.15529   0.15353   0.02654   0.00000  Uiso   1.00
H33    H     0.03459   0.17770   0.05591   0.00000  Uiso   1.00
H34    H     0.28478   0.10662   0.45319   0.00000  Uiso   1.00
H35    H     0.14961   0.18504   0.10971   0.00000  Uiso   1.00
H36    H     0.18633   0.14485   0.38680   0.00000  Uiso   1.00
H37    H     0.28793   0.13787   0.10115   0.00000  Uiso   1.00
H38    H     0.04250   0.18214   0.40122   0.00000  Uiso   1.00
H39    H     0.01590   0.18427   0.48625   0.00000  Uiso   1.00
H40    H     0.30860   0.11609   0.01978   0.00000  Uiso   1.00
H41    H     0.09205   0.16756   0.09148   0.00000  Uiso   1.00
H42    H     0.22646   0.11355   0.41811   0.00000  Uiso   1.00
H43    H     0.22905   0.29537   0.26982   0.00000  Uiso   1.00
H44    H     0.10428   0.03797   0.23019   0.00000  Uiso   1.00
H45    H     0.22961   0.03717   0.26916   0.00000  Uiso   1.00
H46    H     0.10370   0.29617   0.23087   0.00000  Uiso   1.00
H47    H     0.05936   0.11039   0.21154   0.00000  Uiso   1.00
H48    H     0.27402   0.22296   0.28849   0.00000  Uiso   1.00
N49    N     0.04759   0.16668   0.25001   0.00000  Uiso   1.00
N50    N     0.28574   0.16666   0.24999   0.00000  Uiso   1.00
O51    O     0.12846   0.22775   0.25001   0.00000  Uiso   1.00
O52    O     0.20488   0.10558   0.25000   0.00000  Uiso   1.00
O53    O     0.20490   0.22774   0.25000   0.00000  Uiso   1.00
O54    O     0.12843   0.10559   0.25000   0.00000  Uiso   1.00
O55    O     0.10661   0.16667   0.31613   0.00000  Uiso   1.00
O56    O     0.22672   0.16666   0.18388   0.00000  Uiso   1.00
O57    O     0.18305   0.16666   0.31612   0.00000  Uiso   1.00
O58    O     0.15028   0.16667   0.18388   0.00000  Uiso   1.00
Zn59   Zn    0.11562   0.16667   0.25000   0.00000  Uiso   1.00
Zn60   Zn    0.21771   0.16666   0.25000   0.00000  Uiso   1.00
C61    C     0.30854   0.09997   0.20312   0.00000  Uiso   1.00
H62    H     0.32176   0.06892   0.20605   0.00000  Uiso   1.00
O63    O     0.28835   0.10542   0.17622   0.00000  Uiso   1.00
C64    C     0.02471   0.23292   0.29756   0.00000  Uiso   1.00
H65    H     0.01204   0.26415   0.29455   0.00000  Uiso   1.00
O66    O     0.04415   0.22694   0.32500   0.00000  Uiso   1.00
C67    C     0.49977   0.24664   0.25022   0.00000  Uiso   1.00
C68    C     0.50023   0.08669   0.24978   0.00000  Uiso   1.00
C69    C     0.43920   0.16400   0.05401   0.00000  Uiso   1.00
C70    C     0.54882   0.12553   0.45332   0.00000  Uiso   1.00
C71    C     0.40520   0.16901   0.03388   0.00000  Uiso   1.00
C72    C     0.58277   0.12068   0.47359   0.00000  Uiso   1.00
C73    C     0.53516   0.31179   0.26097   0.00000  Uiso   1.00
C74    C     0.46483   0.02155   0.23904   0.00000  Uiso   1.00
C75    C     0.53557   0.02110   0.26054   0.00000  Uiso   1.00
C76    C     0.46442   0.31224   0.23948   0.00000  Uiso   1.00
C77    C     0.50038   0.04251   0.24963   0.00000  Uiso   1.00
C78    C     0.49962   0.29083   0.25038   0.00000  Uiso   1.00
C79    C     0.65268   0.13509   0.22824   0.00000  Uiso   1.00
C80    C     0.34730   0.19816   0.27191   0.00000  Uiso   1.00
C81    C     0.36677   0.13522   0.22882   0.00000  Uiso   1.00
C82    C     0.63326   0.19813   0.27118   0.00000  Uiso   1.00
C83    C     0.46936   0.16607   0.33801   0.00000  Uiso   1.00
C84    C     0.53062   0.16647   0.16194   0.00000  Uiso   1.00
C85    C     0.45007   0.16337   0.38879   0.00000  Uiso   1.00
C86    C     0.54918   0.16109   0.11126   0.00000  Uiso   1.00
C87    C     0.38634   0.17447   0.46510   0.00000  Uiso   1.00
C88    C     0.60649   0.13032   0.03931   0.00000  Uiso   1.00
C89    C     0.40147   0.17349   0.41670   0.00000  Uiso   1.00
C90    C     0.59505   0.14317   0.08544   0.00000  Uiso   1.00
C91    C     0.48240   0.15179   0.40940   0.00000  Uiso   1.00
C92    C     0.51613   0.16785   0.09012   0.00000  Uiso   1.00
C93    C     0.46811   0.15217   0.45780   0.00000  Uiso   1.00
C94    C     0.52495   0.15193   0.04557   0.00000  Uiso   1.00
C95    C     0.41956   0.16487   0.48579   0.00000  Uiso   1.00
C96    C     0.57167   0.13436   0.01926   0.00000  Uiso   1.00
C97    C     0.50199   0.14350   0.47867   0.00000  Uiso   1.00
C98    C     0.48862   0.15353   0.02654   0.00000  Uiso   1.00
H99    H     0.36792   0.17770   0.05591   0.00000  Uiso   1.00
H100   H     0.61811   0.10662   0.45319   0.00000  Uiso   1.00
H101   H     0.48294   0.18504   0.10971   0.00000  Uiso   1.00
H102   H     0.51966   0.14485   0.38680   0.00000  Uiso   1.00
H103   H     0.62126   0.13787   0.10115   0.00000  Uiso   1.00
H104   H     0.37583   0.18214   0.40122   0.00000  Uiso   1.00
H105   H     0.34923   0.18427   0.48625   0.00000  Uiso   1.00
H106   H     0.64193   0.11609   0.01978   0.00000  Uiso   1.00
H107   H     0.42539   0.16756   0.09148   0.00000  Uiso   1.00
H108   H     0.55979   0.11355   0.41811   0.00000  Uiso   1.00
H109   H     0.56238   0.29537   0.26982   0.00000  Uiso   1.00
H110   H     0.43762   0.03797   0.23019   0.00000  Uiso   1.00
H111   H     0.56294   0.03717   0.26916   0.00000  Uiso   1.00
H112   H     0.43704   0.29617   0.23087   0.00000  Uiso   1.00
H113   H     0.39269   0.11039   0.21154   0.00000  Uiso   1.00
H114   H     0.60735   0.22296   0.28849   0.00000  Uiso   1.00
N115   N     0.38093   0.16668   0.25001   0.00000  Uiso   1.00
N116   N     0.61907   0.16666   0.24999   0.00000  Uiso   1.00
O117   O     0.46179   0.22775   0.25001   0.00000  Uiso   1.00
O118   O     0.53821   0.10558   0.25000   0.00000  Uiso   1.00
O119   O     0.53823   0.22774   0.25000   0.00000  Uiso   1.00
O120   O     0.46177   0.10559   0.25000   0.00000  Uiso   1.00
O121   O     0.43994   0.16667   0.31613   0.00000  Uiso   1.00
O122   O     0.56006   0.16666   0.18388   0.00000  Uiso   1.00
O123   O     0.51639   0.16666   0.31612   0.00000  Uiso   1.00
O124   O     0.48361   0.16667   0.18388   0.00000  Uiso   1.00
Zn125  Zn    0.44896   0.16667   0.25000   0.00000  Uiso   1.00
Zn126  Zn    0.55104   0.16666   0.25000   0.00000  Uiso   1.00
C127   C     0.64187   0.09997   0.20312   0.00000  Uiso   1.00
H128   H     0.65509   0.06892   0.20605   0.00000  Uiso   1.00
O129   O     0.62169   0.10542   0.17622   0.00000  Uiso   1.00
C130   C     0.35804   0.23292   0.29756   0.00000  Uiso   1.00
H131   H     0.34537   0.26415   0.29455   0.00000  Uiso   1.00
O132   O     0.37749   0.22694   0.32500   0.00000  Uiso   1.00
C133   C     0.83310   0.24664   0.25022   0.00000  Uiso   1.00
C134   C     0.83356   0.08669   0.24978   0.00000  Uiso   1.00
C135   C     0.77253   0.16400   0.05401   0.00000  Uiso   1.00
C136   C     0.88215   0.12553   0.45332   0.00000  Uiso   1.00
C137   C     0.73853   0.16901   0.03388   0.00000  Uiso   1.00
C138   C     0.91610   0.12068   0.47359   0.00000  Uiso   1.00
C139   C     0.86850   0.31179   0.26097   0.00000  Uiso   1.00
C140   C     0.79816   0.02155   0.23904   0.00000  Uiso   1.00
C141   C     0.86890   0.02110   0.26054   0.00000  Uiso   1.00
C142   C     0.79775   0.31224   0.23948   0.00000  Uiso   1.00
C143   C     0.83371   0.04251   0.24963   0.00000  Uiso   1.00
C144   C     0.83295   0.29083   0.25038   0.00000  Uiso   1.00
C145   C     0.98601   0.13509   0.22824   0.00000  Uiso   1.00
C146   C     0.68063   0.19816   0.27191   0.00000  Uiso   1.00
C147   C     0.70010   0.13522   0.22882   0.00000  Uiso   1.00
C148   C     0.96659   0.19813   0.27118   0.00000  Uiso   1.00
C149   C     0.80270   0.16607   0.33801   0.00000  Uiso   1.00
C150   C     0.86395   0.16647   0.16194   0.00000  Uiso   1.00
C151   C     0.78340   0.16337   0.38879   0.00000  Uiso   1.00
C152   C     0.88251   0.16109   0.11126   0.00000  Uiso   1.00
C153   C     0.71967   0.17447   0.46510   0.00000  Uiso   1.00
C154   C     0.93982   0.13032   0.03931   0.00000  Uiso   1.00
C155   C     0.73480   0.17349   0.41670   0.00000  Uiso   1.00
C156   C     0.92838   0.14317   0.08544   0.00000  Uiso   1.00
C157   C     0.81573   0.15179   0.40940   0.00000  Uiso   1.00
C158   C     0.84947   0.16785   0.09012   0.00000  Uiso   1.00
C159   C     0.80145   0.15217   0.45780   0.00000  Uiso   1.00
C160   C     0.85828   0.15193   0.04557   0.00000  Uiso   1.00
C161   C     0.75289   0.16487   0.48579   0.00000  Uiso   1.00
C162   C     0.90500   0.13436   0.01926   0.00000  Uiso   1.00
C163   C     0.83532   0.14350   0.47867   0.00000  Uiso   1.00
C164   C     0.82195   0.15353   0.02654   0.00000  Uiso   1.00
H165   H     0.70125   0.17770   0.05591   0.00000  Uiso   1.00
H166   H     0.95145   0.10662   0.45319   0.00000  Uiso   1.00
H167   H     0.81628   0.18504   0.10971   0.00000  Uiso   1.00
H168   H     0.85300   0.14485   0.38680   0.00000  Uiso   1.00
H169   H     0.95460   0.13787   0.10115   0.00000  Uiso   1.00
H170   H     0.70917   0.18214   0.40122   0.00000  Uiso   1.00
H171   H     0.68257   0.18427   0.48625   0.00000  Uiso   1.00
H172   H     0.97527   0.11609   0.01978   0.00000  Uiso   1.00
H173   H     0.75872   0.16756   0.09148   0.00000  Uiso   1.00
H174   H     0.89313   0.11355   0.41811   0.00000  Uiso   1.00
H175   H     0.89571   0.29537   0.26982   0.00000  Uiso   1.00
H176   H     0.77095   0.03797   0.23019   0.00000  Uiso   1.00
H177   H     0.89628   0.03717   0.26916   0.00000  Uiso   1.00
H178   H     0.77037   0.29617   0.23087   0.00000  Uiso   1.00
H179   H     0.72602   0.11039   0.21154   0.00000  Uiso   1.00
H180   H     0.94068   0.22296   0.28849   0.00000  Uiso   1.00
N181   N     0.71426   0.16668   0.25001   0.00000  Uiso   1.00
N182   N     0.95241   0.16666   0.24999   0.00000  Uiso   1.00
O183   O     0.79512   0.22775   0.25001   0.00000  Uiso   1.00
O184   O     0.87154   0.10558   0.25000   0.00000  Uiso   1.00
O185   O     0.87157   0.22774   0.25000   0.00000  Uiso   1.00
O186   O     0.79510   0.10559   0.25000   0.00000  Uiso   1.00
O187   O     0.77328   0.16667   0.31613   0.00000  Uiso   1.00
O188   O     0.89339   0.16666   0.18388   0.00000  Uiso   1.00
O189   O     0.84972   0.16666   0.31612   0.00000  Uiso   1.00
O190   O     0.81695   0.16667   0.18388   0.00000  Uiso   1.00
Zn191  Zn    0.78229   0.16667   0.25000   0.00000  Uiso   1.00
Zn192  Zn    0.88438   0.16666   0.25000   0.00000  Uiso   1.00
C193   C     0.97520   0.09997   0.20312   0.00000  Uiso   1.00
H194   H     0.98842   0.06892   0.20605   0.00000  Uiso   1.00
O195   O     0.95502   0.10542   0.17622   0.00000  Uiso   1.00
C196   C     0.69138   0.23292   0.29756   0.00000  Uiso   1.00
H197   H     0.67871   0.26415   0.29455   0.00000  Uiso   1.00
O198   O     0.71082   0.22694   0.32500   0.00000  Uiso   1.00
C199   C     0.16644   0.57998   0.25022   0.00000  Uiso   1.00
C200   C     0.16689   0.42002   0.24978   0.00000  Uiso   1.00
C201   C     0.10586   0.49733   0.05401   0.00000  Uiso   1.00
C202   C     0.21548   0.45886   0.45332   0.00000  Uiso   1.00
C203   C     0.07186   0.50235   0.03388   0.00000  Uiso   1.00
C204   C     0.24944   0.45402   0.47359   0.00000  Uiso   1.00
C205   C     0.20183   0.64512   0.26097   0.00000  Uiso   1.00
C206   C     0.13150   0.35488   0.23904   0.00000  Uiso   1.00
C207   C     0.20224   0.35443   0.26054   0.00000  Uiso   1.00
C208   C     0.13108   0.64558   0.23948   0.00000  Uiso   1.00
C209   C     0.16704   0.37584   0.24963   0.00000  Uiso   1.00
C210   C     0.16629   0.62416   0.25038   0.00000  Uiso   1.00
C211   C     0.31935   0.46842   0.22824   0.00000  Uiso   1.00
C212   C     0.01397   0.53149   0.27191   0.00000  Uiso   1.00
C213   C     0.03343   0.46855   0.22882   0.00000  Uiso   1.00
C214   C     0.29992   0.53146   0.27118   0.00000  Uiso   1.00
C215   C     0.13603   0.49940   0.33801   0.00000  Uiso   1.00
C216   C     0.19729   0.49981   0.16194   0.00000  Uiso   1.00
C217   C     0.11673   0.49670   0.38879   0.00000  Uiso   1.00
C218   C     0.21584   0.49443   0.11126   0.00000  Uiso   1.00
C219   C     0.05301   0.50780   0.46510   0.00000  Uiso   1.00
C220   C     0.27315   0.46365   0.03931   0.00000  Uiso   1.00
C221   C     0.06814   0.50682   0.41670   0.00000  Uiso   1.00
C222   C     0.26172   0.47650   0.08544   0.00000  Uiso   1.00
C223   C     0.14907   0.48512   0.40940   0.00000  Uiso   1.00
C224   C     0.18280   0.50118   0.09012   0.00000  Uiso   1.00
C225   C     0.13478   0.48551   0.45780   0.00000  Uiso   1.00
C226   C     0.19161   0.48527   0.04557   0.00000  Uiso   1.00
C227   C     0.08622   0.49821   0.48579   0.00000  Uiso   1.00
C228   C     0.23833   0.46770   0.01926   0.00000  Uiso   1.00
C229   C     0.16866   0.47683   0.47867   0.00000  Uiso   1.00
C230   C     0.15529   0.48687   0.02654   0.00000  Uiso   1.00
H231   H     0.03459   0.51103   0.05591   0.00000  Uiso   1.00
H232   H     0.28478   0.43995   0.45319   0.00000  Uiso   1.00
H233   H     0.14961   0.51837   0.10971   0.00000  Uiso   1.00
H234   H     0.18633   0.47818   0.38680   0.00000  Uiso   1.00
H235   H     0.28793   0.47120   0.10115   0.00000  Uiso   1.00
H236   H     0.04250   0.51547   0.40122   0.00000  Uiso   1.00
H237   H     0.01590   0.51760   0.48625   0.00000  Uiso   1.00
H238   H     0.30860   0.44942   0.01978   0.00000  Uiso   1.00
H239   H     0.09205   0.50089   0.09148   0.00000  Uiso   1.00
H240   H     0.22646   0.44688   0.41811   0.00000  Uiso   1.00
H241   H     0.22905   0.62870   0.26982   0.00000  Uiso   1.00
H242   H     0.10428   0.37130   0.23019   0.00000  Uiso   1.00
H243   H     0.22961   0.37050   0.26916   0.00000  Uiso   1.00
H244   H     0.10370   0.62950   0.23087   0.00000  Uiso   1.00
H245   H     0.05936   0.44372   0.21154   0.00000  Uiso   1.00
H246   H     0.27402   0.55629   0.28849   0.00000  Uiso   1.00
N247   N     0.04759   0.50001   0.25001   0.00000  Uiso   1.00
N248   N     0.28574   0.49999   0.24999   0.00000  Uiso   1.00
O249   O     0.12846   0.56108   0.25001   0.00000  Uiso   1.00
O250   O     0.20488   0.43892   0.25000   0.00000  Uiso   1.00
O251   O     0.20490   0.56107   0.25000   0.00000  Uiso   1.00
O252   O     0.12843   0.43893   0.25000   0.00000  Uiso   1.00
O253   O     0.10661   0.50001   0.31613   0.00000  Uiso   1.00
O254   O     0.22672   0.49999   0.18388   0.00000  Uiso   1.00
O255   O     0.18305   0.50000   0.31612   0.00000  Uiso   1.00
O256   O     0.15028   0.50000   0.18388   0.00000  Uiso   1.00
Zn257  Zn    0.11562   0.50001   0.25000   0.00000  Uiso   1.00
Zn258  Zn    0.21771   0.49999   0.25000   0.00000  Uiso   1.00
C259   C     0.30854   0.43330   0.20312   0.00000  Uiso   1.00
H260   H     0.32176   0.40226   0.20605   0.00000  Uiso   1.00
O261   O     0.28835   0.43875   0.17622   0.00000  Uiso   1.00
C262   C     0.02471   0.56625   0.29756   0.00000  Uiso   1.00
H263   H     0.01204   0.59748   0.29455   0.00000  Uiso   1.00
O264   O     0.04415   0.56028   0.32500   0.00000  Uiso   1.00
C265   C     0.49977   0.57998   0.25022   0.00000  Uiso   1.00
C266   C     0.50023   0.42002   0.24978   0.00000  Uiso   1.00
C267   C     0.43920   0.49733   0.05401   0.00000  Uiso   1.00
C268   C     0.54882   0.45886   0.45332   0.00000  Uiso   1.00
C269   C     0.40520   0.50235   0.03388   0.00000  Uiso   1.00
C270   C     0.58277   0.45402   0.47359   0.00000  Uiso   1.00
C271   C     0.53516   0.64512   0.26097   0.00000  Uiso   1.00
C272   C     0.46483   0.35488   0.23904   0.00000  Uiso   1.00
C273   C     0.53557   0.35443   0.26054   0.00000  Uiso   1.00
C274   C     0.46442   0.64558   0.23948   0.00000  Uiso   1.00
C275   C     0.50038   0.37584   0.24963   0.00000  Uiso   1.00
C276   C     0.49962   0.62416   0.25038   0.00000  Uiso   1.00
C277   C     0.65268   0.46842   0.22824   0.00000  Uiso   1.00
C278   C     0.34730   0.53149   0.27191   0.00000  Uiso   1.00
C279   C     0.36677   0.46855   0.22882   0.00000  Uiso   1.00
C280   C     0.63326   0.53146   0.27118   0.00000  Uiso   1.00
C281   C     0.46936   0.49940   0.33801   0.00000  Uiso   1.00
C282   C     0.53062   0.49981   0.16194   0.00000  Uiso   1.00
C283   C     0.45007   0.49670   0.38879   0.00000  Uiso   1.00
C284   C     0.54918   0.49443   0.11126   0.00000  Uiso   1.00
C285   C     0.38634   0.50780   0.46510   0.00000  Uiso   1.00
C286   C     0.60649   0.46365   0.03931   0.00000  Uiso   1.00
C287   C     0.40147   0.50682   0.41670   0.00000  Uiso   1.00
C288   C     0.59505   0.47650   0.08544   0.00000  Uiso   1.00
C289   C     0.48240   0.48512   0.40940   0.00000  Uiso   1.00
C290   C     0.51613   0.50118   0.09012   0.00000  Uiso   1.00
C291   C     0.46811   0.48551   0.45780   0.00000  Uiso   1.00
C292   C     0.52495   0.48527   0.04557   0.00000  Uiso   1.00
C293   C     0.41956   0.49821   0.48579   0.00000  Uiso   1.00
C294   C     0.57167   0.46770   0.01926   0.00000  Uiso   1.00
C295   C     0.50199   0.47683   0.47867   0.00000  Uiso   1.00
C296   C     0.48862   0.48687   0.02654   0.00000  Uiso   1.00
H297   H     0.36792   0.51103   0.05591   0.00000  Uiso   1.00
H298   H     0.61811   0.43995   0.45319   0.00000  Uiso   1.00
H299   H     0.48294   0.51837   0.10971   0.00000  Uiso   1.00
H300   H     0.51966   0.47818   0.38680   0.00000  Uiso   1.00
H301   H     0.62126   0.47120   0.10115   0.00000  Uiso   1.00
H302   H     0.37583   0.51547   0.40122   0.00000  Uiso   1.00
H303   H     0.34923   0.51760   0.48625   0.00000  Uiso   1.00
H304   H     0.64193   0.44942   0.01978   0.00000  Uiso   1.00
H305   H     0.42539   0.50089   0.09148   0.00000  Uiso   1.00
H306   H     0.55979   0.44688   0.41811   0.00000  Uiso   1.00
H307   H     0.56238   0.62870   0.26982   0.00000  Uiso   1.00
H308   H     0.43762   0.37130   0.23019   0.00000  Uiso   1.00
H309   H     0.56294   0.37050   0.26916   0.00000  Uiso   1.00
H310   H     0.43704   0.62950   0.23087   0.00000  Uiso   1.00
H311   H     0.39269   0.44372   0.21154   0.00000  Uiso   1.00
H312   H     0.60735   0.55629   0.28849   0.00000  Uiso   1.00
N313   N     0.38093   0.50001   0.25001   0.00000  Uiso   1.00
N314   N     0.61907   0.49999   0.24999   0.00000  Uiso   1.00
O315   O     0.46179   0.56108   0.25001   0.00000  Uiso   1.00
O316   O     0.53821   0.43892   0.25000   0.00000  Uiso   1.00
O317   O     0.53823   0.56107   0.25000   0.00000  Uiso   1.00
O318   O     0.46177   0.43893   0.25000   0.00000  Uiso   1.00
O319   O     0.43994   0.50001   0.31613   0.00000  Uiso   1.00
O320   O     0.56006   0.49999   0.18388   0.00000  Uiso   1.00
O321   O     0.51639   0.50000   0.31612   0.00000  Uiso   1.00
O322   O     0.48361   0.50000   0.18388   0.00000  Uiso   1.00
Zn323  Zn    0.44896   0.50001   0.25000   0.00000  Uiso   1.00
Zn324  Zn    0.55104   0.49999   0.25000   0.00000  Uiso   1.00
C325   C     0.64187   0.43330   0.20312   0.00000  Uiso   1.00
H326   H     0.65509   0.40226   0.20605   0.00000  Uiso   1.00
O327   O     0.62169   0.43875   0.17622   0.00000  Uiso   1.00
C328   C     0.35804   0.56625   0.29756   0.00000  Uiso   1.00
H329   H     0.34537   0.59748   0.29455   0.00000  Uiso   1.00
O330   O     0.37749   0.56028   0.32500   0.00000  Uiso   1.00
C331   C     0.83310   0.57998   0.25022   0.00000  Uiso   1.00
C332   C     0.83356   0.42002   0.24978   0.00000  Uiso   1.00
C333   C     0.77253   0.49733   0.05401   0.00000  Uiso   1.00
C334   C     0.88215   0.45886   0.45332   0.00000  Uiso   1.00
C335   C     0.73853   0.50235   0.03388   0.00000  Uiso   1.00
C336   C     0.91610   0.45402   0.47359   0.00000  Uiso   1.00
C337   C     0.86850   0.64512   0.26097   0.00000  Uiso   1.00
C338   C     0.79816   0.35488   0.23904   0.00000  Uiso   1.00
C339   C     0.86890   0.35443   0.26054   0.00000  Uiso   1.00
C340   C     0.79775   0.64558   0.23948   0.00000  Uiso   1.00
C341   C     0.83371   0.37584   0.24963   0.00000  Uiso   1.00
C342   C     0.83295   0.62416   0.25038   0.00000  Uiso   1.00
C343   C     0.98601   0.46842   0.22824   0.00000  Uiso   1.00
C344   C     0.68063   0.53149   0.27191   0.00000  Uiso   1.00
C345   C     0.70010   0.46855   0.22882   0.00000  Uiso   1.00
C346   C     0.96659   0.53146   0.27118   0.00000  Uiso   1.00
C347   C     0.80270   0.49940   0.33801   0.00000  Uiso   1.00
C348   C     0.86395   0.49981   0.16194   0.00000  Uiso   1.00
C349   C     0.78340   0.49670   0.38879   0.00000  Uiso   1.00
C350   C     0.88251   0.49443   0.11126   0.00000  Uiso   1.00
C351   C     0.71967   0.50780   0.46510   0.00000  Uiso   1.00
C352   C     0.93982   0.46365   0.03931   0.00000  Uiso   1.00
C353   C     0.73480   0.50682   0.41670   0.00000  Uiso   1.00
C354   C     0.92838   0.47650   0.08544   0.00000  Uiso   1.00
C355   C     0.81573   0.48512   0.40940   0.00000  Uiso   1.00
C356   C     0.84947   0.50118   0.09012   0.00000  Uiso   1.00
C357   C     0.80145   0.48551   0.45780   0.00000  Uiso   1.00
C358   C     0.85828   0.48527   0.04557   0.00000  Uiso   1.00
C359   C     0.75289   0.49821   0.48579   0.00000  Uiso   1.00
C360   C     0.90500   0.46770   0.01926   0.00000  Uiso   1.00
C361   C     0.83532   0.47683   0.47867   0.00000  Uiso   1.00
C362   C     0.82195   0.48687   0.02654   0.00000  Uiso   1.00
H363   H     0.70125   0.51103   0.05591   0.00000  Uiso   1.00
H364   H     0.95145   0.43995   0.45319   0.00000  Uiso   1.00
H365   H     0.81628   0.51837   0.10971   0.00000  Uiso   1.00
H366   H     0.85300   0.47818   0.38680   0.00000  Uiso   1.00
H367   H     0.95460   0.47120   0.10115   0.00000  Uiso   1.00
H368   H     0.70917   0.51547   0.40122   0.00000  Uiso   1.00
H369   H     0.68257   0.51760   0.48625   0.00000  Uiso   1.00
H370   H     0.97527   0.44942   0.01978   0.00000  Uiso   1.00
H371   H     0.75872   0.50089   0.09148   0.00000  Uiso   1.00
H372   H     0.89313   0.44688   0.41811   0.00000  Uiso   1.00
H373   H     0.89571   0.62870   0.26982   0.00000  Uiso   1.00
H374   H     0.77095   0.37130   0.23019   0.00000  Uiso   1.00
H375   H     0.89628   0.37050   0.26916   0.00000  Uiso   1.00
H376   H     0.77037   0.62950   0.23087   0.00000  Uiso   1.00
H377   H     0.72602   0.44372   0.21154   0.00000  Uiso   1.00
H378   H     0.94068   0.55629   0.28849   0.00000  Uiso   1.00
N379   N     0.71426   0.50001   0.25001   0.00000  Uiso   1.00
N380   N     0.95241   0.49999   0.24999   0.00000  Uiso   1.00
O381   O     0.79512   0.56108   0.25001   0.00000  Uiso   1.00
O382   O     0.87154   0.43892   0.25000   0.00000  Uiso   1.00
O383   O     0.87157   0.56107   0.25000   0.00000  Uiso   1.00
O384   O     0.79510   0.43893   0.25000   0.00000  Uiso   1.00
O385   O     0.77328   0.50001   0.31613   0.00000  Uiso   1.00
O386   O     0.89339   0.49999   0.18388   0.00000  Uiso   1.00
O387   O     0.84972   0.50000   0.31612   0.00000  Uiso   1.00
O388   O     0.81695   0.50000   0.18388   0.00000  Uiso   1.00
Zn389  Zn    0.78229   0.50001   0.25000   0.00000  Uiso   1.00
Zn390  Zn    0.88438   0.49999   0.25000   0.00000  Uiso   1.00
C391   C     0.97520   0.43330   0.20312   0.00000  Uiso   1.00
H392   H     0.98842   0.40226   0.20605   0.00000  Uiso   1.00
O393   O     0.95502   0.43875   0.17622   0.00000  Uiso   1.00
C394   C     0.69138   0.56625   0.29756   0.00000  Uiso   1.00
H395   H     0.67871   0.59748   0.29455   0.00000  Uiso   1.00
O396   O     0.71082   0.56028   0.32500   0.00000  Uiso   1.00
C397   C     0.16644   0.91331   0.25022   0.00000  Uiso   1.00
C398   C     0.16689   0.75336   0.24978   0.00000  Uiso   1.00
C399   C     0.10586   0.83066   0.05401   0.00000  Uiso   1.00
C400   C     0.21548   0.79220   0.45332   0.00000  Uiso   1.00
C401   C     0.07186   0.83568   0.03388   0.00000  Uiso   1.00
C402   C     0.24944   0.78735   0.47359   0.00000  Uiso   1.00
C403   C     0.20183   0.97846   0.26097   0.00000  Uiso   1.00
C404   C     0.13150   0.68822   0.23904   0.00000  Uiso   1.00
C405   C     0.20224   0.68776   0.26054   0.00000  Uiso   1.00
C406   C     0.13108   0.97891   0.23948   0.00000  Uiso   1.00
C407   C     0.16704   0.70917   0.24963   0.00000  Uiso   1.00
C408   C     0.16629   0.95750   0.25038   0.00000  Uiso   1.00
C409   C     0.31935   0.80176   0.22824   0.00000  Uiso   1.00
C410   C     0.01397   0.86482   0.27191   0.00000  Uiso   1.00
C411   C     0.03343   0.80189   0.22882   0.00000  Uiso   1.00
C412   C     0.29992   0.86479   0.27118   0.00000  Uiso   1.00
C413   C     0.13603   0.83273   0.33801   0.00000  Uiso   1.00
C414   C     0.19729   0.83314   0.16194   0.00000  Uiso   1.00
C415   C     0.11673   0.83003   0.38879   0.00000  Uiso   1.00
C416   C     0.21584   0.82776   0.11126   0.00000  Uiso   1.00
C417   C     0.05301   0.84113   0.46510   0.00000  Uiso   1.00
C418   C     0.27315   0.79698   0.03931   0.00000  Uiso   1.00
C419   C     0.06814   0.84015   0.41670   0.00000  Uiso   1.00
C420   C     0.26172   0.80984   0.08544   0.00000  Uiso   1.00
C421   C     0.14907   0.81845   0.40940   0.00000  Uiso   1.00
C422   C     0.18280   0.83452   0.09012   0.00000  Uiso   1.00
C423   C     0.13478   0.81884   0.45780   0.00000  Uiso   1.00
C424   C     0.19161   0.81860   0.04557   0.00000  Uiso   1.00
C425   C     0.08622   0.83154   0.48579   0.00000  Uiso   1.00
C426   C     0.23833   0.80103   0.01926   0.00000  Uiso   1.00
C427   C     0.16866   0.81017   0.47867   0.00000  Uiso   1.00
C428   C     0.15529   0.82020   0.02654   0.00000  Uiso   1.00
H429   H     0.03459   0.84437   0.05591   0.00000  Uiso   1.00
H430   H     0.28478   0.77329   0.45319   0.00000  Uiso   1.00
H431   H     0.14961   0.85171   0.10971   0.00000  Uiso   1.00
H432   H     0.18633   0.81151   0.38680   0.00000  Uiso   1.00
H433   H     0.28793   0.80454   0.10115   0.00000  Uiso   1.00
H434   H     0.04250   0.84880   0.40122   0.00000  Uiso   1.00
H435   H     0.01590   0.85093   0.48625   0.00000  Uiso   1.00
H436   H     0.30860   0.78275   0.01978   0.00000  Uiso   1.00
H437   H     0.09205   0.83423   0.09148   0.00000  Uiso   1.00
H438   H     0.22646   0.78021   0.41811   0.00000  Uiso   1.00
H439   H     0.22905   0.96204   0.26982   0.00000  Uiso   1.00
H440   H     0.10428   0.70464   0.23019   0.00000  Uiso   1.00
H441   H     0.22961   0.70384   0.26916   0.00000  Uiso   1.00
H442   H     0.10370   0.96284   0.23087   0.00000  Uiso   1.00
H443   H     0.05936   0.77705   0.21154   0.00000  Uiso   1.00
H444   H     0.27402   0.88963   0.28849   0.00000  Uiso   1.00
N445   N     0.04759   0.83334   0.25001   0.00000  Uiso   1.00
N446   N     0.28574   0.83332   0.24999   0.00000  Uiso   1.00
O447   O     0.12846   0.89442   0.25001   0.00000  Uiso   1.00
O448   O     0.20488   0.77225   0.25000   0.00000  Uiso   1.00
O449   O     0.20490   0.89441   0.25000   0.00000  Uiso   1.00
O450   O     0.12843   0.77226   0.25000   0.00000  Uiso   1.00
O451   O     0.10661   0.83334   0.31613   0.00000  Uiso   1.00
O452   O     0.22672   0.83333   0.18388   0.00000  Uiso   1.00
O453   O     0.18305   0.83333   0.31612   0.00000  Uiso   1.00
O454   O     0.15028   0.83334   0.18388   0.00000  Uiso   1.00
Zn455  Zn    0.11562   0.83334   0.25000   0.00000  Uiso   1.00
Zn456  Zn    0.21771   0.83333   0.25000   0.00000  Uiso   1.00
C457   C     0.30854   0.76664   0.20312   0.00000  Uiso   1.00
H458   H     0.32176   0.73559   0.20605   0.00000  Uiso   1.00
O459   O     0.28835   0.77209   0.17622   0.00000  Uiso   1.00
C460   C     0.02471   0.89959   0.29756   0.00000  Uiso   1.00
H461   H     0.01204   0.93082   0.29455   0.00000  Uiso   1.00
O462   O     0.04415   0.89361   0.32500   0.00000  Uiso   1.00
C463   C     0.49977   0.91331   0.25022   0.00000  Uiso   1.00
C464   C     0.50023   0.75336   0.24978   0.00000  Uiso   1.00
C465   C     0.43920   0.83066   0.05401   0.00000  Uiso   1.00
C466   C     0.54882   0.79220   0.45332   0.00000  Uiso   1.00
C467   C     0.40520   0.83568   0.03388   0.00000  Uiso   1.00
C468   C     0.58277   0.78735   0.47359   0.00000  Uiso   1.00
C469   C     0.53516   0.97846   0.26097   0.00000  Uiso   1.00
C470   C     0.46483   0.68822   0.23904   0.00000  Uiso   1.00
C471   C     0.53557   0.68776   0.26054   0.00000  Uiso   1.00
C472   C     0.46442   0.97891   0.23948   0.00000  Uiso   1.00
C473   C     0.50038   0.70917   0.24963   0.00000  Uiso   1.00
C474   C     0.49962   0.95750   0.25038   0.00000  Uiso   1.00
C475   C     0.65268   0.80176   0.22824   0.00000  Uiso   1.00
C476   C     0.34730   0.86482   0.27191   0.00000  Uiso   1.00
C477   C     0.36677   0.80189   0.22882   0.00000  Uiso   1.00
C478   C     0.63326   0.86479   0.27118   0.00000  Uiso   1.00
C479   C     0.46936   0.83273   0.33801   0.00000  Uiso   1.00
C480   C     0.53062   0.83314   0.16194   0.00000  Uiso   1.00
C481   C     0.45007   0.83003   0.38879   0.00000  Uiso   1.00
C482   C     0.54918   0.82776   0.11126   0.00000  Uiso   1.00
C483   C     0.38634   0.84113   0.46510   0.00000  Uiso   1.00
C484   C     0.60649   0.79698   0.03931   0.00000  Uiso   1.00
C485   C     0.40147   0.84015   0.41670   0.00000  Uiso   1.00
C486   C     0.59505   0.80984   0.08544   0.00000  Uiso   1.00
C487   C     0.48240   0.81845   0.40940   0.00000  Uiso   1.00
C488   C     0.51613   0.83452   0.09012   0.00000  Uiso   1.00
C489   C     0.46811   0.81884   0.45780   0.00000  Uiso   1.00
C490   C     0.52495   0.81860   0.04557   0.00000  Uiso   1.00
C491   C     0.41956   0.83154   0.48579   0.00000  Uiso   1.00
C492   C     0.57167   0.80103   0.01926   0.00000  Uiso   1.00
C493   C     0.50199   0.81017   0.47867   0.00000  Uiso   1.00
C494   C     0.48862   0.82020   0.02654   0.00000  Uiso   1.00
H495   H     0.36792   0.84437   0.05591   0.00000  Uiso   1.00
H496   H     0.61811   0.77329   0.45319   0.00000  Uiso   1.00
H497   H     0.48294   0.85171   0.10971   0.00000  Uiso   1.00
H498   H     0.51966   0.81151   0.38680   0.00000  Uiso   1.00
H499   H     0.62126   0.80454   0.10115   0.00000  Uiso   1.00
H500   H     0.37583   0.84880   0.40122   0.00000  Uiso   1.00
H501   H     0.34923   0.85093   0.48625   0.00000  Uiso   1.00
H502   H     0.64193   0.78275   0.01978   0.00000  Uiso   1.00
H503   H     0.42539   0.83423   0.09148   0.00000  Uiso   1.00
H504   H     0.55979   0.78021   0.41811   0.00000  Uiso   1.00
H505   H     0.56238   0.96204   0.26982   0.00000  Uiso   1.00
H506   H     0.43762   0.70464   0.23019   0.00000  Uiso   1.00
H507   H     0.56294   0.70384   0.26916   0.00000  Uiso   1.00
H508   H     0.43704   0.96284   0.23087   0.00000  Uiso   1.00
H509   H     0.39269   0.77705   0.21154   0.00000  Uiso   1.00
H510   H     0.60735   0.88963   0.28849   0.00000  Uiso   1.00
N511   N     0.38093   0.83334   0.25001   0.00000  Uiso   1.00
N512   N     0.61907   0.83332   0.24999   0.00000  Uiso   1.00
O513   O     0.46179   0.89442   0.25001   0.00000  Uiso   1.00
O514   O     0.53821   0.77225   0.25000   0.00000  Uiso   1.00
O515   O     0.53823   0.89441   0.25000   0.00000  Uiso   1.00
O516   O     0.46177   0.77226   0.25000   0.00000  Uiso   1.00
O517   O     0.43994   0.83334   0.31613   0.00000  Uiso   1.00
O518   O     0.56006   0.83333   0.18388   0.00000  Uiso   1.00
O519   O     0.51639   0.83333   0.31612   0.00000  Uiso   1.00
O520   O     0.48361   0.83334   0.18388   0.00000  Uiso   1.00
Zn521  Zn    0.44896   0.83334   0.25000   0.00000  Uiso   1.00
Zn522  Zn    0.55104   0.83333   0.25000   0.00000  Uiso   1.00
C523   C     0.64187   0.76664   0.20312   0.00000  Uiso   1.00
H524   H     0.65509   0.73559   0.20605   0.00000  Uiso   1.00
O525   O     0.62169   0.77209   0.17622   0.00000  Uiso   1.00
C526   C     0.35804   0.89959   0.29756   0.00000  Uiso   1.00
H527   H     0.34537   0.93082   0.29455   0.00000  Uiso   1.00
O528   O     0.37749   0.89361   0.32500   0.00000  Uiso   1.00
C529   C     0.83310   0.91331   0.25022   0.00000  Uiso   1.00
C530   C     0.83356   0.75336   0.24978   0.00000  Uiso   1.00
C531   C     0.77253   0.83066   0.05401   0.00000  Uiso   1.00
C532   C     0.88215   0.79220   0.45332   0.00000  Uiso   1.00
C533   C     0.73853   0.83568   0.03388   0.00000  Uiso   1.00
C534   C     0.91610   0.78735   0.47359   0.00000  Uiso   1.00
C535   C     0.86850   0.97846   0.26097   0.00000  Uiso   1.00
C536   C     0.79816   0.68822   0.23904   0.00000  Uiso   1.00
C537   C     0.86890   0.68776   0.26054   0.00000  Uiso   1.00
C538   C     0.79775   0.97891   0.23948   0.00000  Uiso   1.00
C539   C     0.83371   0.70917   0.24963   0.00000  Uiso   1.00
C540   C     0.83295   0.95750   0.25038   0.00000  Uiso   1.00
C541   C     0.98601   0.80176   0.22824   0.00000  Uiso   1.00
C542   C     0.68063   0.86482   0.27191   0.00000  Uiso   1.00
C543   C     0.70010   0.80189   0.22882   0.00000  Uiso   1.00
C544   C     0.96659   0.86479   0.27118   0.00000  Uiso   1.00
C545   C     0.80270   0.83273   0.33801   0.00000  Uiso   1.00
C546   C     0.86395   0.83314   0.16194   0.00000  Uiso   1.00
C547   C     0.78340   0.83003   0.38879   0.00000  Uiso   1.00
C548   C     0.88251   0.82776   0.11126   0.00000  Uiso   1.00
C549   C     0.71967   0.84113   0.46510   0.00000  Uiso   1.00
C550   C     0.93982   0.79698   0.03931   0.00000  Uiso   1.00
C551   C     0.73480   0.84015   0.41670   0.00000  Uiso   1.00
C552   C     0.92838   0.80984   0.08544   0.00000  Uiso   1.00
C553   C     0.81573   0.81845   0.40940   0.00000  Uiso   1.00
C554   C     0.84947   0.83452   0.09012   0.00000  Uiso   1.00
C555   C     0.80145   0.81884   0.45780   0.00000  Uiso   1.00
C556   C     0.85828   0.81860   0.04557   0.00000  Uiso   1.00
C557   C     0.75289   0.83154   0.48579   0.00000  Uiso   1.00
C558   C     0.90500   0.80103   0.01926   0.00000  Uiso   1.00
C559   C     0.83532   0.81017   0.47867   0.00000  Uiso   1.00
C560   C     0.82195   0.82020   0.02654   0.00000  Uiso   1.00
H561   H     0.70125   0.84437   0.05591   0.00000  Uiso   1.00
H562   H     0.95145   0.77329   0.45319   0.00000  Uiso   1.00
H563   H     0.81628   0.85171   0.10971   0.00000  Uiso   1.00
H564   H     0.85300   0.81151   0.38680   0.00000  Uiso   1.00
H565   H     0.95460   0.80454   0.10115   0.00000  Uiso   1.00
H566   H     0.70917   0.84880   0.40122   0.00000  Uiso   1.00
H567   H     0.68257   0.85093   0.48625   0.00000  Uiso   1.00
H568   H     0.97527   0.78275   0.01978   0.00000  Uiso   1.00
H569   H     0.75872   0.83423   0.09148   0.00000  Uiso   1.00
H570   H     0.89313   0.78021   0.41811   0.00000  Uiso   1.00
H571   H     0.89571   0.96204   0.26982   0.00000  Uiso   1.00
H572   H     0.77095   0.70464   0.23019   0.00000  Uiso   1.00
H573   H     0.89628   0.70384   0.26916   0.00000  Uiso   1.00
H574   H     0.77037   0.96284   0.23087   0.00000  Uiso   1.00
H575   H     0.72602   0.77705   0.21154   0.00000  Uiso   1.00
H576   H     0.94068   0.88963   0.28849   0.00000  Uiso   1.00
N577   N     0.71426   0.83334   0.25001   0.00000  Uiso   1.00
N578   N     0.95241   0.83332   0.24999   0.00000  Uiso   1.00
O579   O     0.79512   0.89442   0.25001   0.00000  Uiso   1.00
O580   O     0.87154   0.77225   0.25000   0.00000  Uiso   1.00
O581   O     0.87157   0.89441   0.25000   0.00000  Uiso   1.00
O582   O     0.79510   0.77226   0.25000   0.00000  Uiso   1.00
O583   O     0.77328   0.83334   0.31613   0.00000  Uiso   1.00
O584   O     0.89339   0.83333   0.18388   0.00000  Uiso   1.00
O585   O     0.84972   0.83333   0.31612   0.00000  Uiso   1.00
O586   O     0.81695   0.83334   0.18388   0.00000  Uiso   1.00
Zn587  Zn    0.78229   0.83334   0.25000   0.00000  Uiso   1.00
Zn588  Zn    0.88438   0.83333   0.25000   0.00000  Uiso   1.00
C589   C     0.97520   0.76664   0.20312   0.00000  Uiso   1.00
H590   H     0.98842   0.73559   0.20605   0.00000  Uiso   1.00
O591   O     0.95502   0.77209   0.17622   0.00000  Uiso   1.00
C592   C     0.69138   0.89959   0.29756   0.00000  Uiso   1.00
H593   H     0.67871   0.93082   0.29455   0.00000  Uiso   1.00
O594   O     0.71082   0.89361   0.32500   0.00000  Uiso   1.00
C595   C     0.16644   0.24664   0.75022   0.00000  Uiso   1.00
C596   C     0.16689   0.08669   0.74978   0.00000  Uiso   1.00
C597   C     0.10586   0.16400   0.55401   0.00000  Uiso   1.00
C598   C     0.21548   0.12553   0.95332   0.00000  Uiso   1.00
C599   C     0.07186   0.16901   0.53388   0.00000  Uiso   1.00
C600   C     0.24944   0.12068   0.97359   0.00000  Uiso   1.00
C601   C     0.20183   0.31179   0.76097   0.00000  Uiso   1.00
C602   C     0.13150   0.02155   0.73904   0.00000  Uiso   1.00
C603   C     0.20224   0.02110   0.76054   0.00000  Uiso   1.00
C604   C     0.13108   0.31224   0.73948   0.00000  Uiso   1.00
C605   C     0.16704   0.04251   0.74963   0.00000  Uiso   1.00
C606   C     0.16629   0.29083   0.75038   0.00000  Uiso   1.00
C607   C     0.31935   0.13509   0.72824   0.00000  Uiso   1.00
C608   C     0.01397   0.19816   0.77191   0.00000  Uiso   1.00
C609   C     0.03343   0.13522   0.72882   0.00000  Uiso   1.00
C610   C     0.29992   0.19813   0.77118   0.00000  Uiso   1.00
C611   C     0.13603   0.16607   0.83801   0.00000  Uiso   1.00
C612   C     0.19729   0.16647   0.66194   0.00000  Uiso   1.00
C613   C     0.11673   0.16337   0.88879   0.00000  Uiso   1.00
C614   C     0.21584   0.16109   0.61126   0.00000  Uiso   1.00
C615   C     0.05301   0.17447   0.96510   0.00000  Uiso   1.00
C616   C     0.27315   0.13032   0.53931   0.00000  Uiso   1.00
C617   C     0.06814   0.17349   0.91670   0.00000  Uiso   1.00
C618   C     0.26172   0.14317   0.58544   0.00000  Uiso   1.00
C619   C     0.14907   0.15179   0.90940   0.00000  Uiso   1.00
C620   C     0.18280   0.16785   0.59012   0.00000  Uiso   1.00
C621   C     0.13478   0.15217   0.95780   0.00000  Uiso   1.00
C622   C     0.19161   0.15193   0.54557   0.00000  Uiso   1.00
C623   C     0.08622   0.16487   0.98579   0.00000  Uiso   1.00
C624   C     0.23833   0.13436   0.51926   0.00000  Uiso   1.00
C625   C     0.16866   0.14350   0.97867   0.00000  Uiso   1.00
C626   C     0.15529   0.15353   0.52654   0.00000  Uiso   1.00
H627   H     0.03459   0.17770   0.55591   0.00000  Uiso   1.00
H628   H     0.28478   0.10662   0.95319   0.00000  Uiso   1.00
H629   H     0.14961   0.18504   0.60971   0.00000  Uiso   1.00
H630   H     0.18633   0.14485   0.88680   0.00000  Uiso   1.00
H631   H     0.28793   0.13787   0.60115   0.00000  Uiso   1.00
H632   H     0.04250   0.18214   0.90122   0.00000  Uiso   1.00
H633   H     0.01590   0.18427   0.98625   0.00000  Uiso   1.00
H634   H     0.30860   0.11609   0.51978   0.00000  Uiso   1.00
H635   H     0.09205   0.16756   0.59148   0.00000  Uiso   1.00
H636   H     0.22646   0.11355   0.91811   0.00000  Uiso   1.00
H637   H     0.22905   0.29537   0.76982   0.00000  Uiso   1.00
H638   H     0.10428   0.03797   0.73019   0.00000  Uiso   1.00
H639   H     0.22961   0.03717   0.76916   0.00000  Uiso   1.00
H640   H     0.10370   0.29617   0.73087   0.00000  Uiso   1.00
H641   H     0.05936   0.11039   0.71154   0.00000  Uiso   1.00
H642   H     0.27402   0.22296   0.78849   0.00000  Uiso   1.00
N643   N     0.04759   0.16668   0.75001   0.00000  Uiso   1.00
N644   N     0.28574   0.16666   0.74999   0.00000  Uiso   1.00
O645   O     0.12846   0.22775   0.75001   0.00000  Uiso   1.00
O646   O     0.20488   0.10558   0.75000   0.00000  Uiso   1.00
O647   O     0.20490   0.22774   0.75000   0.00000  Uiso   1.00
O648   O     0.12843   0.10559   0.75000   0.00000  Uiso   1.00
O649   O     0.10661   0.16667   0.81613   0.00000  Uiso   1.00
O650   O     0.22672   0.16666   0.68388   0.00000  Uiso   1.00
O651   O     0.18305   0.16666   0.81612   0.00000  Uiso   1.00
O652   O     0.15028   0.16667   0.68388   0.00000  Uiso   1.00
Zn653  Zn    0.11562   0.16667   0.75000   0.00000  Uiso   1.00
Zn654  Zn    0.21771   0.16666   0.75000   0.00000  Uiso   1.00
C655   C     0.30854   0.09997   0.70312   0.00000  Uiso   1.00
H656   H     0.32176   0.06892   0.70605   0.00000  Uiso   1.00
O657   O     0.28835   0.10542   0.67622   0.00000  Uiso   1.00
C658   C     0.02471   0.23292   0.79756   0.00000  Uiso   1.00
H659   H     0.01204   0.26415   0.79455   0.00000  Uiso   1.00
O660   O     0.04415   0.22694   0.82500   0.00000  Uiso   1.00
C661   C     0.49977   0.24664   0.75022   0.00000  Uiso   1.00
C662   C     0.50023   0.08669   0.74978   0.00000  Uiso   1.00
C663   C     0.43920   0.16400   0.55401   0.00000  Uiso   1.00
C664   C     0.54882   0.12553   0.95332   0.00000  Uiso   1.00
C665   C     0.40520   0.16901   0.53388   0.00000  Uiso   1.00
C666   C     0.58277   0.12068   0.97359   0.00000  Uiso   1.00
C667   C     0.53516   0.31179   0.76097   0.00000  Uiso   1.00
C668   C     0.46483   0.02155   0.73904   0.00000  Uiso   1.00
C669   C     0.53557   0.02110   0.76054   0.00000  Uiso   1.00
C670   C     0.46442   0.31224   0.73948   0.00000  Uiso   1.00
C671   C     0.50038   0.04251   0.74963   0.00000  Uiso   1.00
C672   C     0.49962   0.29083   0.75038   0.00000  Uiso   1.00
C673   C     0.65268   0.13509   0.72824   0.00000  Uiso   1.00
C674   C     0.34730   0.19816   0.77191   0.00000  Uiso   1.00
C675   C     0.36677   0.13522   0.72882   0.00000  Uiso   1.00
C676   C     0.63326   0.19813   0.77118   0.00000  Uiso   1.00
C677   C     0.46936   0.16607   0.83801   0.00000  Uiso   1.00
C678   C     0.53062   0.16647   0.66194   0.00000  Uiso   1.00
C679   C     0.45007   0.16337   0.88879   0.00000  Uiso   1.00
C680   C     0.54918   0.16109   0.61126   0.00000  Uiso   1.00
C681   C     0.38634   0.17447   0.96510   0.00000  Uiso   1.00
C682   C     0.60649   0.13032   0.53931   0.00000  Uiso   1.00
C683   C     0.40147   0.17349   0.91670   0.00000  Uiso   1.00
C684   C     0.59505   0.14317   0.58544   0.00000  Uiso   1.00
C685   C     0.48240   0.15179   0.90940   0.00000  Uiso   1.00
C686   C     0.51613   0.16785   0.59012   0.00000  Uiso   1.00
C687   C     0.46811   0.15217   0.95780   0.00000  Uiso   1.00
C688   C     0.52495   0.15193   0.54557   0.00000  Uiso   1.00
C689   C     0.41956   0.16487   0.98579   0.00000  Uiso   1.00
C690   C     0.57167   0.13436   0.51926   0.00000  Uiso   1.00
C691   C     0.50199   0.14350   0.97867   0.00000  Uiso   1.00
C692   C     0.48862   0.15353   0.52654   0.00000  Uiso   1.00
H693   H     0.36792   0.17770   0.55591   0.00000  Uiso   1.00
H694   H     0.61811   0.10662   0.95319   0.00000  Uiso   1.00
H695   H     0.48294   0.18504   0.60971   0.00000  Uiso   1.00
H696   H     0.51966   0.14485   0.88680   0.00000  Uiso   1.00
H697   H     0.62126   0.13787   0.60115   0.00000  Uiso   1.00
H698   H     0.37583   0.18214   0.90122   0.00000  Uiso   1.00
H699   H     0.34923   0.18427   0.98625   0.00000  Uiso   1.00
H700   H     0.64193   0.11609   0.51978   0.00000  Uiso   1.00
H701   H     0.42539   0.16756   0.59148   0.00000  Uiso   1.00
H702   H     0.55979   0.11355   0.91811   0.00000  Uiso   1.00
H703   H     0.56238   0.29537   0.76982   0.00000  Uiso   1.00
H704   H     0.43762   0.03797   0.73019   0.00000  Uiso   1.00
H705   H     0.56294   0.03717   0.76916   0.00000  Uiso   1.00
H706   H     0.43704   0.29617   0.73087   0.00000  Uiso   1.00
H707   H     0.39269   0.11039   0.71154   0.00000  Uiso   1.00
H708   H     0.60735   0.22296   0.78849   0.00000  Uiso   1.00
N709   N     0.38093   0.16668   0.75001   0.00000  Uiso   1.00
N710   N     0.61907   0.16666   0.74999   0.00000  Uiso   1.00
O711   O     0.46179   0.22775   0.75001   0.00000  Uiso   1.00
O712   O     0.53821   0.10558   0.75000   0.00000  Uiso   1.00
O713   O     0.53823   0.22774   0.75000   0.00000  Uiso   1.00
O714   O     0.46177   0.10559   0.75000   0.00000  Uiso   1.00
O715   O     0.43994   0.16667   0.81613   0.00000  Uiso   1.00
O716   O     0.56006   0.16666   0.68388   0.00000  Uiso   1.00
O717   O     0.51639   0.16666   0.81612   0.00000  Uiso   1.00
O718   O     0.48361   0.16667   0.68388   0.00000  Uiso   1.00
Zn719  Zn    0.44896   0.16667   0.75000   0.00000  Uiso   1.00
Zn720  Zn    0.55104   0.16666   0.75000   0.00000  Uiso   1.00
C721   C     0.64187   0.09997   0.70312   0.00000  Uiso   1.00
H722   H     0.65509   0.06892   0.70605   0.00000  Uiso   1.00
O723   O     0.62169   0.10542   0.67622   0.00000  Uiso   1.00
C724   C     0.35804   0.23292   0.79756   0.00000  Uiso   1.00
H725   H     0.34537   0.26415   0.79455   0.00000  Uiso   1.00
O726   O     0.37749   0.22694   0.82500   0.00000  Uiso   1.00
C727   C     0.83310   0.24664   0.75022   0.00000  Uiso   1.00
C728   C     0.83356   0.08669   0.74978   0.00000  Uiso   1.00
C729   C     0.77253   0.16400   0.55401   0.00000  Uiso   1.00
C730   C     0.88215   0.12553   0.95332   0.00000  Uiso   1.00
C731   C     0.73853   0.16901   0.53388   0.00000  Uiso   1.00
C732   C     0.91610   0.12068   0.97359   0.00000  Uiso   1.00
C733   C     0.86850   0.31179   0.76097   0.00000  Uiso   1.00
C734   C     0.79816   0.02155   0.73904   0.00000  Uiso   1.00
C735   C     0.86890   0.02110   0.76054   0.00000  Uiso   1.00
C736   C     0.79775   0.31224   0.73948   0.00000  Uiso   1.00
C737   C     0.83371   0.04251   0.74963   0.00000  Uiso   1.00
C738   C     0.83295   0.29083   0.75038   0.00000  Uiso   1.00
C739   C     0.98601   0.13509   0.72824   0.00000  Uiso   1.00
C740   C     0.68063   0.19816   0.77191   0.00000  Uiso   1.00
C741   C     0.70010   0.13522   0.72882   0.00000  Uiso   1.00
C742   C     0.96659   0.19813   0.77118   0.00000  Uiso   1.00
C743   C     0.80270   0.16607   0.83801   0.00000  Uiso   1.00
C744   C     0.86395   0.16647   0.66194   0.00000  Uiso   1.00
C745   C     0.78340   0.16337   0.88879   0.00000  Uiso   1.00
C746   C     0.88251   0.16109   0.61126   0.00000  Uiso   1.00
C747   C     0.71967   0.17447   0.96510   0.00000  Uiso   1.00
C748   C     0.93982   0.13032   0.53931   0.00000  Uiso   1.00
C749   C     0.73480   0.17349   0.91670   0.00000  Uiso   1.00
C750   C     0.92838   0.14317   0.58544   0.00000  Uiso   1.00
C751   C     0.81573   0.15179   0.90940   0.00000  Uiso   1.00
C752   C     0.84947   0.16785   0.59012   0.00000  Uiso   1.00
C753   C     0.80145   0.15217   0.95780   0.00000  Uiso   1.00
C754   C     0.85828   0.15193   0.54557   0.00000  Uiso   1.00
C755   C     0.75289   0.16487   0.98579   0.00000  Uiso   1.00
C756   C     0.90500   0.13436   0.51926   0.00000  Uiso   1.00
C757   C     0.83532   0.14350   0.97867   0.00000  Uiso   1.00
C758   C     0.82195   0.15353   0.52654   0.00000  Uiso   1.00
H759   H     0.70125   0.17770   0.55591   0.00000  Uiso   1.00
H760   H     0.95145   0.10662   0.95319   0.00000  Uiso   1.00
H761   H     0.81628   0.18504   0.60971   0.00000  Uiso   1.00
H762   H     0.85300   0.14485   0.88680   0.00000  Uiso   1.00
H763   H     0.95460   0.13787   0.60115   0.00000  Uiso   1.00
H764   H     0.70917   0.18214   0.90122   0.00000  Uiso   1.00
H765   H     0.68257   0.18427   0.98625   0.00000  Uiso   1.00
H766   H     0.97527   0.11609   0.51978   0.00000  Uiso   1.00
H767   H     0.75872   0.16756   0.59148   0.00000  Uiso   1.00
H768   H     0.89313   0.11355   0.91811   0.00000  Uiso   1.00
H769   H     0.89571   0.29537   0.76982   0.00000  Uiso   1.00
H770   H     0.77095   0.03797   0.73019   0.00000  Uiso   1.00
H771   H     0.89628   0.03717   0.76916   0.00000  Uiso   1.00
H772   H     0.77037   0.29617   0.73087   0.00000  Uiso   1.00
H773   H     0.72602   0.11039   0.71154   0.00000  Uiso   1.00
H774   H     0.94068   0.22296   0.78849   0.00000  Uiso   1.00
N775   N     0.71426   0.16668   0.75001   0.00000  Uiso   1.00
N776   N     0.95241   0.16666   0.74999   0.00000  Uiso   1.00
O777   O     0.79512   0.22775   0.75001   0.00000  Uiso   1.00
O778   O     0.87154   0.10558   0.75000   0.00000  Uiso   1.00
O779   O     0.87157   0.22774   0.75000   0.00000  Uiso   1.00
O780   O     0.79510   0.10559   0.75000   0.00000  Uiso   1.00
O781   O     0.77328   0.16667   0.81613   0.00000  Uiso   1.00
O782   O     0.89339   0.16666   0.68388   0.00000  Uiso   1.00
O783   O     0.84972   0.16666   0.81612   0.00000  Uiso   1.00
O784   O     0.81695   0.16667   0.68388   0.00000  Uiso   1.00
Zn785  Zn    0.78229   0.16667   0.75000   0.00000  Uiso   1.00
Zn786  Zn    0.88438   0.16666   0.75000   0.00000  Uiso   1.00
C787   C     0.97520   0.09997   0.70312   0.00000  Uiso   1.00
H788   H     0.98842   0.06892   0.70605   0.00000  Uiso   1.00
O789   O     0.95502   0.10542   0.67622   0.00000  Uiso   1.00
C790   C     0.69138   0.23292   0.79756   0.00000  Uiso   1.00
H791   H     0.67871   0.26415   0.79455   0.00000  Uiso   1.00
O792   O     0.71082   0.22694   0.82500   0.00000  Uiso   1.00
C793   C     0.16644   0.57998   0.75022   0.00000  Uiso   1.00
C794   C     0.16689   0.42002   0.74978   0.00000  Uiso   1.00
C795   C     0.10586   0.49733   0.55401   0.00000  Uiso   1.00
C796   C     0.21548   0.45886   0.95332   0.00000  Uiso   1.00
C797   C     0.07186   0.50235   0.53388   0.00000  Uiso   1.00
C798   C     0.24944   0.45402   0.97359   0.00000  Uiso   1.00
C799   C     0.20183   0.64512   0.76097   0.00000  Uiso   1.00
C800   C     0.13150   0.35488   0.73904   0.00000  Uiso   1.00
C801   C     0.20224   0.35443   0.76054   0.00000  Uiso   1.00
C802   C     0.13108   0.64558   0.73948   0.00000  Uiso   1.00
C803   C     0.16704   0.37584   0.74963   0.00000  Uiso   1.00
C804   C     0.16629   0.62416   0.75038   0.00000  Uiso   1.00
C805   C     0.31935   0.46842   0.72824   0.00000  Uiso   1.00
C806   C     0.01397   0.53149   0.77191   0.00000  Uiso   1.00
C807   C     0.03343   0.46855   0.72882   0.00000  Uiso   1.00
C808   C     0.29992   0.53146   0.77118   0.00000  Uiso   1.00
C809   C     0.13603   0.49940   0.83801   0.00000  Uiso   1.00
C810   C     0.19729   0.49981   0.66194   0.00000  Uiso   1.00
C811   C     0.11673   0.49670   0.88879   0.00000  Uiso   1.00
C812   C     0.21584   0.49443   0.61126   0.00000  Uiso   1.00
C813   C     0.05301   0.50780   0.96510   0.00000  Uiso   1.00
C814   C     0.27315   0.46365   0.53931   0.00000  Uiso   1.00
C815   C     0.06814   0.50682   0.91670   0.00000  Uiso   1.00
C816   C     0.26172   0.47650   0.58544   0.00000  Uiso   1.00
C817   C     0.14907   0.48512   0.90940   0.00000  Uiso   1.00
C818   C     0.18280   0.50118   0.59012   0.00000  Uiso   1.00
C819   C     0.13478   0.48551   0.95780   0.00000  Uiso   1.00
C820   C     0.19161   0.48527   0.54557   0.00000  Uiso   1.00
C821   C     0.08622   0.49821   0.98579   0.00000  Uiso   1.00
C822   C     0.23833   0.46770   0.51926   0.00000  Uiso   1.00
C823   C     0.16866   0.47683   0.97867   0.00000  Uiso   1.00
C824   C     0.15529   0.48687   0.52654   0.00000  Uiso   1.00
H825   H     0.03459   0.51103   0.55591   0.00000  Uiso   1.00
H826   H     0.28478   0.43995   0.95319   0.00000  Uiso   1.00
H827   H     0.14961   0.51837   0.60971   0.00000  Uiso   1.00
H828   H     0.18633   0.47818   0.88680   0.00000  Uiso   1.00
H829   H     0.28793   0.47120   0.60115   0.00000  Uiso   1.00
H830   H     0.04250   0.51547   0.90122   0.00000  Uiso   1.00
H831   H     0.01590   0.51760   0.98625   0.00000  Uiso   1.00
H832   H     0.30860   0.44942   0.51978   0.00000  Uiso   1.00
H833   H     0.09205   0.50089   0.59148   0.00000  Uiso   1.00
H834   H     0.22646   0.44688   0.91811   0.00000  Uiso   1.00
H835   H     0.22905   0.62870   0.76982   0.00000  Uiso   1.00
H836   H     0.10428   0.37130   0.73019   0.00000  Uiso   1.00
H837   H     0.22961   0.37050   0.76916   0.00000  Uiso   1.00
H838   H     0.10370   0.62950   0.73087   0.00000  Uiso   1.00
H839   H     0.05936   0.44372   0.71154   0.00000  Uiso   1.00
H840   H     0.27402   0.55629   0.78849   0.00000  Uiso   1.00
N841   N     0.04759   0.50001   0.75001   0.00000  Uiso   1.00
N842   N     0.28574   0.49999   0.74999   0.00000  Uiso   1.00
O843   O     0.12846   0.56108   0.75001   0.00000  Uiso   1.00
O844   O     0.20488   0.43892   0.75000   0.00000  Uiso   1.00
O845   O     0.20490   0.56107   0.75000   0.00000  Uiso   1.00
O846   O     0.12843   0.43893   0.75000   0.00000  Uiso   1.00
O847   O     0.10661   0.50001   0.81613   0.00000  Uiso   1.00
O848   O     0.22672   0.49999   0.68388   0.00000  Uiso   1.00
O849   O     0.18305   0.50000   0.81612   0.00000  Uiso   1.00
O850   O     0.15028   0.50000   0.68388   0.00000  Uiso   1.00
Zn851  Zn    0.11562   0.50001   0.75000   0.00000  Uiso   1.00
Zn852  Zn    0.21771   0.49999   0.75000   0.00000  Uiso   1.00
C853   C     0.30854   0.43330   0.70312   0.00000  Uiso   1.00
H854   H     0.32176   0.40226   0.70605   0.00000  Uiso   1.00
O855   O     0.28835   0.43875   0.67622   0.00000  Uiso   1.00
C856   C     0.02471   0.56625   0.79756   0.00000  Uiso   1.00
H857   H     0.01204   0.59748   0.79455   0.00000  Uiso   1.00
O858   O     0.04415   0.56028   0.82500   0.00000  Uiso   1.00
C859   C     0.49977   0.57998   0.75022   0.00000  Uiso   1.00
C860   C     0.50023   0.42002   0.74978   0.00000  Uiso   1.00
C861   C     0.43920   0.49733   0.55401   0.00000  Uiso   1.00
C862   C     0.54882   0.45886   0.95332   0.00000  Uiso   1.00
C863   C     0.40520   0.50235   0.53388   0.00000  Uiso   1.00
C864   C     0.58277   0.45402   0.97359   0.00000  Uiso   1.00
C865   C     0.53516   0.64512   0.76097   0.00000  Uiso   1.00
C866   C     0.46483   0.35488   0.73904   0.00000  Uiso   1.00
C867   C     0.53557   0.35443   0.76054   0.00000  Uiso   1.00
C868   C     0.46442   0.64558   0.73948   0.00000  Uiso   1.00
C869   C     0.50038   0.37584   0.74963   0.00000  Uiso   1.00
C870   C     0.49962   0.62416   0.75038   0.00000  Uiso   1.00
C871   C     0.65268   0.46842   0.72824   0.00000  Uiso   1.00
C872   C     0.34730   0.53149   0.77191   0.00000  Uiso   1.00
C873   C     0.36677   0.46855   0.72882   0.00000  Uiso   1.00
C874   C     0.63326   0.53146   0.77118   0.00000  Uiso   1.00
C875   C     0.46936   0.49940   0.83801   0.00000  Uiso   1.00
C876   C     0.53062   0.49981   0.66194   0.00000  Uiso   1.00
C877   C     0.45007   0.49670   0.88879   0.00000  Uiso   1.00
C878   C     0.54918   0.49443   0.61126   0.00000  Uiso   1.00
C879   C     0.38634   0.50780   0.96510   0.00000  Uiso   1.00
C880   C     0.60649   0.46365   0.53931   0.00000  Uiso   1.00
C881   C     0.40147   0.50682   0.91670   0.00000  Uiso   1.00
C882   C     0.59505   0.47650   0.58544   0.00000  Uiso   1.00
C883   C     0.48240   0.48512   0.90940   0.00000  Uiso   1.00
C884   C     0.51613   0.50118   0.59012   0.00000  Uiso   1.00
C885   C     0.46811   0.48551   0.95780   0.00000  Uiso   1.00
C886   C     0.52495   0.48527   0.54557   0.00000  Uiso   1.00
C887   C     0.41956   0.49821   0.98579   0.00000  Uiso   1.00
C888   C     0.57167   0.46770   0.51926   0.00000  Uiso   1.00
C889   C     0.50199   0.47683   0.97867   0.00000  Uiso   1.00
C890   C     0.48862   0.48687   0.52654   0.00000  Uiso   1.00
H891   H     0.36792   0.51103   0.55591   0.00000  Uiso   1.00
H892   H     0.61811   0.43995   0.95319   0.00000  Uiso   1.00
H893   H     0.48294   0.51837   0.60971   0.00000  Uiso   1.00
H894   H     0.51966   0.47818   0.88680   0.00000  Uiso   1.00
H895   H     0.62126   0.47120   0.60115   0.00000  Uiso   1.00
H896   H     0.37583   0.51547   0.90122   0.00000  Uiso   1.00
H897   H     0.34923   0.51760   0.98625   0.00000  Uiso   1.00
H898   H     0.64193   0.44942   0.51978   0.00000  Uiso   1.00
H899   H     0.42539   0.50089   0.59148   0.00000  Uiso   1.00
H900   H     0.55979   0.44688   0.91811   0.00000  Uiso   1.00
H901   H     0.56238   0.62870   0.76982   0.00000  Uiso   1.00
H902   H     0.43762   0.37130   0.73019   0.00000  Uiso   1.00
H903   H     0.56294   0.37050   0.76916   0.00000  Uiso   1.00
H904   H     0.43704   0.62950   0.73087   0.00000  Uiso   1.00
H905   H     0.39269   0.44372   0.71154   0.00000  Uiso   1.00
H906   H     0.60735   0.55629   0.78849   0.00000  Uiso   1.00
N907   N     0.38093   0.50001   0.75001   0.00000  Uiso   1.00
N908   N     0.61907   0.49999   0.74999   0.00000  Uiso   1.00
O909   O     0.46179   0.56108   0.75001   0.00000  Uiso   1.00
O910   O     0.53821   0.43892   0.75000   0.00000  Uiso   1.00
O911   O     0.53823   0.56107   0.75000   0.00000  Uiso   1.00
O912   O     0.46177   0.43893   0.75000   0.00000  Uiso   1.00
O913   O     0.43994   0.50001   0.81613   0.00000  Uiso   1.00
O914   O     0.56006   0.49999   0.68388   0.00000  Uiso   1.00
O915   O     0.51639   0.50000   0.81612   0.00000  Uiso   1.00
O916   O     0.48361   0.50000   0.68388   0.00000  Uiso   1.00
Zn917  Zn    0.44896   0.50001   0.75000   0.00000  Uiso   1.00
Zn918  Zn    0.55104   0.49999   0.75000   0.00000  Uiso   1.00
C919   C     0.64187   0.43330   0.70312   0.00000  Uiso   1.00
H920   H     0.65509   0.40226   0.70605   0.00000  Uiso   1.00
O921   O     0.62169   0.43875   0.67622   0.00000  Uiso   1.00
C922   C     0.35804   0.56625   0.79756   0.00000  Uiso   1.00
H923   H     0.34537   0.59748   0.79455   0.00000  Uiso   1.00
O924   O     0.37749   0.56028   0.82500   0.00000  Uiso   1.00
C925   C     0.83310   0.57998   0.75022   0.00000  Uiso   1.00
C926   C     0.83356   0.42002   0.74978   0.00000  Uiso   1.00
C927   C     0.77253   0.49733   0.55401   0.00000  Uiso   1.00
C928   C     0.88215   0.45886   0.95332   0.00000  Uiso   1.00
C929   C     0.73853   0.50235   0.53388   0.00000  Uiso   1.00
C930   C     0.91610   0.45402   0.97359   0.00000  Uiso   1.00
C931   C     0.86850   0.64512   0.76097   0.00000  Uiso   1.00
C932   C     0.79816   0.35488   0.73904   0.00000  Uiso   1.00
C933   C     0.86890   0.35443   0.76054   0.00000  Uiso   1.00
C934   C     0.79775   0.64558   0.73948   0.00000  Uiso   1.00
C935   C     0.83371   0.37584   0.74963   0.00000  Uiso   1.00
C936   C     0.83295   0.62416   0.75038   0.00000  Uiso   1.00
C937   C     0.98601   0.46842   0.72824   0.00000  Uiso   1.00
C938   C     0.68063   0.53149   0.77191   0.00000  Uiso   1.00
C939   C     0.70010   0.46855   0.72882   0.00000  Uiso   1.00
C940   C     0.96659   0.53146   0.77118   0.00000  Uiso   1.00
C941   C     0.80270   0.49940   0.83801   0.00000  Uiso   1.00
C942   C     0.86395   0.49981   0.66194   0.00000  Uiso   1.00
C943   C     0.78340   0.49670   0.88879   0.00000  Uiso   1.00
C944   C     0.88251   0.49443   0.61126   0.00000  Uiso   1.00
C945   C     0.71967   0.50780   0.96510   0.00000  Uiso   1.00
C946   C     0.93982   0.46365   0.53931   0.00000  Uiso   1.00
C947   C     0.73480   0.50682   0.91670   0.00000  Uiso   1.00
C948   C     0.92838   0.47650   0.58544   0.00000  Uiso   1.00
C949   C     0.81573   0.48512   0.90940   0.00000  Uiso   1.00
C950   C     0.84947   0.50118   0.59012   0.00000  Uiso   1.00
C951   C     0.80145   0.48551   0.95780   0.00000  Uiso   1.00
C952   C     0.85828   0.48527   0.54557   0.00000  Uiso   1.00
C953   C     0.75289   0.49821   0.98579   0.00000  Uiso   1.00
C954   C     0.90500   0.46770   0.51926   0.00000  Uiso   1.00
C955   C     0.83532   0.47683   0.97867   0.00000  Uiso   1.00
C956   C     0.82195   0.48687   0.52654   0.00000  Uiso   1.00
H957   H     0.70125   0.51103   0.55591   0.00000  Uiso   1.00
H958   H     0.95145   0.43995   0.95319   0.00000  Uiso   1.00
H959   H     0.81628   0.51837   0.60971   0.00000  Uiso   1.00
H960   H     0.85300   0.47818   0.88680   0.00000  Uiso   1.00
H961   H     0.95460   0.47120   0.60115   0.00000  Uiso   1.00
H962   H     0.70917   0.51547   0.90122   0.00000  Uiso   1.00
H963   H     0.68257   0.51760   0.98625   0.00000  Uiso   1.00
H964   H     0.97527   0.44942   0.51978   0.00000  Uiso   1.00
H965   H     0.75872   0.50089   0.59148   0.00000  Uiso   1.00
H966   H     0.89313   0.44688   0.91811   0.00000  Uiso   1.00
H967   H     0.89571   0.62870   0.76982   0.00000  Uiso   1.00
H968   H     0.77095   0.37130   0.73019   0.00000  Uiso   1.00
H969   H     0.89628   0.37050   0.76916   0.00000  Uiso   1.00
H970   H     0.77037   0.62950   0.73087   0.00000  Uiso   1.00
H971   H     0.72602   0.44372   0.71154   0.00000  Uiso   1.00
H972   H     0.94068   0.55629   0.78849   0.00000  Uiso   1.00
N973   N     0.71426   0.50001   0.75001   0.00000  Uiso   1.00
N974   N     0.95241   0.49999   0.74999   0.00000  Uiso   1.00
O975   O     0.79512   0.56108   0.75001   0.00000  Uiso   1.00
O976   O     0.87154   0.43892   0.75000   0.00000  Uiso   1.00
O977   O     0.87157   0.56107   0.75000   0.00000  Uiso   1.00
O978   O     0.79510   0.43893   0.75000   0.00000  Uiso   1.00
O979   O     0.77328   0.50001   0.81613   0.00000  Uiso   1.00
O980   O     0.89339   0.49999   0.68388   0.00000  Uiso   1.00
O981   O     0.84972   0.50000   0.81612   0.00000  Uiso   1.00
O982   O     0.81695   0.50000   0.68388   0.00000  Uiso   1.00
Zn983  Zn    0.78229   0.50001   0.75000   0.00000  Uiso   1.00
Zn984  Zn    0.88438   0.49999   0.75000   0.00000  Uiso   1.00
C985   C     0.97520   0.43330   0.70312   0.00000  Uiso   1.00
H986   H     0.98842   0.40226   0.70605   0.00000  Uiso   1.00
O987   O     0.95502   0.43875   0.67622   0.00000  Uiso   1.00
C988   C     0.69138   0.56625   0.79756   0.00000  Uiso   1.00
H989   H     0.67871   0.59748   0.79455   0.00000  Uiso   1.00
O990   O     0.71082   0.56028   0.82500   0.00000  Uiso   1.00
C991   C     0.16644   0.91331   0.75022   0.00000  Uiso   1.00
C992   C     0.16689   0.75336   0.74978   0.00000  Uiso   1.00
C993   C     0.10586   0.83066   0.55401   0.00000  Uiso   1.00
C994   C     0.21548   0.79220   0.95332   0.00000  Uiso   1.00
C995   C     0.07186   0.83568   0.53388   0.00000  Uiso   1.00
C996   C     0.24944   0.78735   0.97359   0.00000  Uiso   1.00
C997   C     0.20183   0.97846   0.76097   0.00000  Uiso   1.00
C998   C     0.13150   0.68822   0.73904   0.00000  Uiso   1.00
C999   C     0.20224   0.68776   0.76054   0.00000  Uiso   1.00
C1000  C     0.13108   0.97891   0.73948   0.00000  Uiso   1.00
C1001  C     0.16704   0.70917   0.74963   0.00000  Uiso   1.00
C1002  C     0.16629   0.95750   0.75038   0.00000  Uiso   1.00
C1003  C     0.31935   0.80176   0.72824   0.00000  Uiso   1.00
C1004  C     0.01397   0.86482   0.77191   0.00000  Uiso   1.00
C1005  C     0.03343   0.80189   0.72882   0.00000  Uiso   1.00
C1006  C     0.29992   0.86479   0.77118   0.00000  Uiso   1.00
C1007  C     0.13603   0.83273   0.83801   0.00000  Uiso   1.00
C1008  C     0.19729   0.83314   0.66194   0.00000  Uiso   1.00
C1009  C     0.11673   0.83003   0.88879   0.00000  Uiso   1.00
C1010  C     0.21584   0.82776   0.61126   0.00000  Uiso   1.00
C1011  C     0.05301   0.84113   0.96510   0.00000  Uiso   1.00
C1012  C     0.27315   0.79698   0.53931   0.00000  Uiso   1.00
C1013  C     0.06814   0.84015   0.91670   0.00000  Uiso   1.00
C1014  C     0.26172   0.80984   0.58544   0.00000  Uiso   1.00
C1015  C     0.14907   0.81845   0.90940   0.00000  Uiso   1.00
C1016  C     0.18280   0.83452   0.59012   0.00000  Uiso   1.00
C1017  C     0.13478   0.81884   0.95780   0.00000  Uiso   1.00
C1018  C     0.19161   0.81860   0.54557   0.00000  Uiso   1.00
C1019  C     0.08622   0.83154   0.98579   0.00000  Uiso   1.00
C1020  C     0.23833   0.80103   0.51926   0.00000  Uiso   1.00
C1021  C     0.16866   0.81017   0.97867   0.00000  Uiso   1.00
C1022  C     0.15529   0.82020   0.52654   0.00000  Uiso   1.00
H1023  H     0.03459   0.84437   0.55591   0.00000  Uiso   1.00
H1024  H     0.28478   0.77329   0.95319   0.00000  Uiso   1.00
H1025  H     0.14961   0.85171   0.60971   0.00000  Uiso   1.00
H1026  H     0.18633   0.81151   0.88680   0.00000  Uiso   1.00
H1027  H     0.28793   0.80454   0.60115   0.00000  Uiso   1.00
H1028  H     0.04250   0.84880   0.90122   0.00000  Uiso   1.00
H1029  H     0.01590   0.85093   0.98625   0.00000  Uiso   1.00
H1030  H     0.30860   0.78275   0.51978   0.00000  Uiso   1.00
H1031  H     0.09205   0.83423   0.59148   0.00000  Uiso   1.00
H1032  H     0.22646   0.78021   0.91811   0.00000  Uiso   1.00
H1033  H     0.22905   0.96204   0.76982   0.00000  Uiso   1.00
H1034  H     0.10428   0.70464   0.73019   0.00000  Uiso   1.00
H1035  H     0.22961   0.70384   0.76916   0.00000  Uiso   1.00
H1036  H     0.10370   0.96284   0.73087   0.00000  Uiso   1.00
H1037  H     0.05936   0.77705   0.71154   0.00000  Uiso   1.00
H1038  H     0.27402   0.88963   0.78849   0.00000  Uiso   1.00
N1039  N     0.04759   0.83334   0.75001   0.00000  Uiso   1.00
N1040  N     0.28574   0.83332   0.74999   0.00000  Uiso   1.00
O1041  O     0.12846   0.89442   0.75001   0.00000  Uiso   1.00
O1042  O     0.20488   0.77225   0.75000   0.00000  Uiso   1.00
O1043  O     0.20490   0.89441   0.75000   0.00000  Uiso   1.00
O1044  O     0.12843   0.77226   0.75000   0.00000  Uiso   1.00
O1045  O     0.10661   0.83334   0.81613   0.00000  Uiso   1.00
O1046  O     0.22672   0.83333   0.68388   0.00000  Uiso   1.00
O1047  O     0.18305   0.83333   0.81612   0.00000  Uiso   1.00
O1048  O     0.15028   0.83334   0.68388   0.00000  Uiso   1.00
Zn1049 Zn    0.11562   0.83334   0.75000   0.00000  Uiso   1.00
Zn1050 Zn    0.21771   0.83333   0.75000   0.00000  Uiso   1.00
C1051  C     0.30854   0.76664   0.70312   0.00000  Uiso   1.00
H1052  H     0.32176   0.73559   0.70605   0.00000  Uiso   1.00
O1053  O     0.28835   0.77209   0.67622   0.00000  Uiso   1.00
C1054  C     0.02471   0.89959   0.79756   0.00000  Uiso   1.00
H1055  H     0.01204   0.93082   0.79455   0.00000  Uiso   1.00
O1056  O     0.04415   0.89361   0.82500   0.00000  Uiso   1.00
C1057  C     0.49977   0.91331   0.75022   0.00000  Uiso   1.00
C1058  C     0.50023   0.75336   0.74978   0.00000  Uiso   1.00
C1059  C     0.43920   0.83066   0.55401   0.00000  Uiso   1.00
C1060  C     0.54882   0.79220   0.95332   0.00000  Uiso   1.00
C1061  C     0.40520   0.83568   0.53388   0.00000  Uiso   1.00
C1062  C     0.58277   0.78735   0.97359   0.00000  Uiso   1.00
C1063  C     0.53516   0.97846   0.76097   0.00000  Uiso   1.00
C1064  C     0.46483   0.68822   0.73904   0.00000  Uiso   1.00
C1065  C     0.53557   0.68776   0.76054   0.00000  Uiso   1.00
C1066  C     0.46442   0.97891   0.73948   0.00000  Uiso   1.00
C1067  C     0.50038   0.70917   0.74963   0.00000  Uiso   1.00
C1068  C     0.49962   0.95750   0.75038   0.00000  Uiso   1.00
C1069  C     0.65268   0.80176   0.72824   0.00000  Uiso   1.00
C1070  C     0.34730   0.86482   0.77191   0.00000  Uiso   1.00
C1071  C     0.36677   0.80189   0.72882   0.00000  Uiso   1.00
C1072  C     0.63326   0.86479   0.77118   0.00000  Uiso   1.00
C1073  C     0.46936   0.83273   0.83801   0.00000  Uiso   1.00
C1074  C     0.53062   0.83314   0.66194   0.00000  Uiso   1.00
C1075  C     0.45007   0.83003   0.88879   0.00000  Uiso   1.00
C1076  C     0.54918   0.82776   0.61126   0.00000  Uiso   1.00
C1077  C     0.38634   0.84113   0.96510   0.00000  Uiso   1.00
C1078  C     0.60649   0.79698   0.53931   0.00000  Uiso   1.00
C1079  C     0.40147   0.84015   0.91670   0.00000  Uiso   1.00
C1080  C     0.59505   0.80984   0.58544   0.00000  Uiso   1.00
C1081  C     0.48240   0.81845   0.90940   0.00000  Uiso   1.00
C1082  C     0.51613   0.83452   0.59012   0.00000  Uiso   1.00
C1083  C     0.46811   0.81884   0.95780   0.00000  Uiso   1.00
C1084  C     0.52495   0.81860   0.54557   0.00000  Uiso   1.00
C1085  C     0.41956   0.83154   0.98579   0.00000  Uiso   1.00
C1086  C     0.57167   0.80103   0.51926   0.00000  Uiso   1.00
C1087  C     0.50199   0.81017   0.97867   0.00000  Uiso   1.00
C1088  C     0.48862   0.82020   0.52654   0.00000  Uiso   1.00
H1089  H     0.36792   0.84437   0.55591   0.00000  Uiso   1.00
H1090  H     0.61811   0.77329   0.95319   0.00000  Uiso   1.00
H1091  H     0.48294   0.85171   0.60971   0.00000  Uiso   1.00
H1092  H     0.51966   0.81151   0.88680   0.00000  Uiso   1.00
H1093  H     0.62126   0.80454   0.60115   0.00000  Uiso   1.00
H1094  H     0.37583   0.84880   0.90122   0.00000  Uiso   1.00
H1095  H     0.34923   0.85093   0.98625   0.00000  Uiso   1.00
H1096  H     0.64193   0.78275   0.51978   0.00000  Uiso   1.00
H1097  H     0.42539   0.83423   0.59148   0.00000  Uiso   1.00
H1098  H     0.55979   0.78021   0.91811   0.00000  Uiso   1.00
H1099  H     0.56238   0.96204   0.76982   0.00000  Uiso   1.00
H1100  H     0.43762   0.70464   0.73019   0.00000  Uiso   1.00
H1101  H     0.56294   0.70384   0.76916   0.00000  Uiso   1.00
H1102  H     0.43704   0.96284   0.73087   0.00000  Uiso   1.00
H1103  H     0.39269   0.77705   0.71154   0.00000  Uiso   1.00
H1104  H     0.60735   0.88963   0.78849   0.00000  Uiso   1.00
N1105  N     0.38093   0.83334   0.75001   0.00000  Uiso   1.00
N1106  N     0.61907   0.83332   0.74999   0.00000  Uiso   1.00
O1107  O     0.46179   0.89442   0.75001   0.00000  Uiso   1.00
O1108  O     0.53821   0.77225   0.75000   0.00000  Uiso   1.00
O1109  O     0.53823   0.89441   0.75000   0.00000  Uiso   1.00
O1110  O     0.46177   0.77226   0.75000   0.00000  Uiso   1.00
O1111  O     0.43994   0.83334   0.81613   0.00000  Uiso   1.00
O1112  O     0.56006   0.83333   0.68388   0.00000  Uiso   1.00
O1113  O     0.51639   0.83333   0.81612   0.00000  Uiso   1.00
O1114  O     0.48361   0.83334   0.68388   0.00000  Uiso   1.00
Zn1115 Zn    0.44896   0.83334   0.75000   0.00000  Uiso   1.00
Zn1116 Zn    0.55104   0.83333   0.75000   0.00000  Uiso   1.00
C1117  C     0.64187   0.76664   0.70312   0.00000  Uiso   1.00
H1118  H     0.65509   0.73559   0.70605   0.00000  Uiso   1.00
O1119  O     0.62169   0.77209   0.67622   0.00000  Uiso   1.00
C1120  C     0.35804   0.89959   0.79756   0.00000  Uiso   1.00
H1121  H     0.34537   0.93082   0.79455   0.00000  Uiso   1.00
O1122  O     0.37749   0.89361   0.82500   0.00000  Uiso   1.00
C1123  C     0.83310   0.91331   0.75022   0.00000  Uiso   1.00
C1124  C     0.83356   0.75336   0.74978   0.00000  Uiso   1.00
C1125  C     0.77253   0.83066   0.55401   0.00000  Uiso   1.00
C1126  C     0.88215   0.79220   0.95332   0.00000  Uiso   1.00
C1127  C     0.73853   0.83568   0.53388   0.00000  Uiso   1.00
C1128  C     0.91610   0.78735   0.97359   0.00000  Uiso   1.00
C1129  C     0.86850   0.97846   0.76097   0.00000  Uiso   1.00
C1130  C     0.79816   0.68822   0.73904   0.00000  Uiso   1.00
C1131  C     0.86890   0.68776   0.76054   0.00000  Uiso   1.00
C1132  C     0.79775   0.97891   0.73948   0.00000  Uiso   1.00
C1133  C     0.83371   0.70917   0.74963   0.00000  Uiso   1.00
C1134  C     0.83295   0.95750   0.75038   0.00000  Uiso   1.00
C1135  C     0.98601   0.80176   0.72824   0.00000  Uiso   1.00
C1136  C     0.68063   0.86482   0.77191   0.00000  Uiso   1.00
C1137  C     0.70010   0.80189   0.72882   0.00000  Uiso   1.00
C1138  C     0.96659   0.86479   0.77118   0.00000  Uiso   1.00
C1139  C     0.80270   0.83273   0.83801   0.00000  Uiso   1.00
C1140  C     0.86395   0.83314   0.66194   0.00000  Uiso   1.00
C1141  C     0.78340   0.83003   0.88879   0.00000  Uiso   1.00
C1142  C     0.88251   0.82776   0.61126   0.00000  Uiso   1.00
C1143  C     0.71967   0.84113   0.96510   0.00000  Uiso   1.00
C1144  C     0.93982   0.79698   0.53931   0.00000  Uiso   1.00
C1145  C     0.73480   0.84015   0.91670   0.00000  Uiso   1.00
C1146  C     0.92838   0.80984   0.58544   0.00000  Uiso   1.00
C1147  C     0.81573   0.81845   0.90940   0.00000  Uiso   1.00
C1148  C     0.84947   0.83452   0.59012   0.00000  Uiso   1.00
C1149  C     0.80145   0.81884   0.95780   0.00000  Uiso   1.00
C1150  C     0.85828   0.81860   0.54557   0.00000  Uiso   1.00
C1151  C     0.75289   0.83154   0.98579   0.00000  Uiso   1.00
C1152  C     0.90500   0.80103   0.51926   0.00000  Uiso   1.00
C1153  C     0.83532   0.81017   0.97867   0.00000  Uiso   1.00
C1154  C     0.82195   0.82020   0.52654   0.00000  Uiso   1.00
H1155  H     0.70125   0.84437   0.55591   0.00000  Uiso   1.00
H1156  H     0.95145   0.77329   0.95319   0.00000  Uiso   1.00
H1157  H     0.81628   0.85171   0.60971   0.00000  Uiso   1.00
H1158  H     0.85300   0.81151   0.88680   0.00000  Uiso   1.00
H1159  H     0.95460   0.80454   0.60115   0.00000  Uiso   1.00
H1160  H     0.70917   0.84880   0.90122   0.00000  Uiso   1.00
H1161  H     0.68257   0.85093   0.98625   0.00000  Uiso   1.00
H1162  H     0.97527   0.78275   0.51978   0.00000  Uiso   1.00
H1163  H     0.75872   0.83423   0.59148   0.00000  Uiso   1.00
H1164  H     0.89313   0.78021   0.91811   0.00000  Uiso   1.00
H1165  H     0.89571   0.96204   0.76982   0.00000  Uiso   1.00
H1166  H     0.77095   0.70464   0.73019   0.00000  Uiso   1.00
H1167  H     0.89628   0.70384   0.76916   0.00000  Uiso   1.00
H1168  H     0.77037   0.96284   0.73087   0.00000  Uiso   1.00
H1169  H     0.72602   0.77705   0.71154   0.00000  Uiso   1.00
H1170  H     0.94068   0.88963   0.78849   0.00000  Uiso   1.00
N1171  N     0.71426   0.83334   0.75001   0.00000  Uiso   1.00
N1172  N     0.95241   0.83332   0.74999   0.00000  Uiso   1.00
O1173  O     0.79512   0.89442   0.75001   0.00000  Uiso   1.00
O1174  O     0.87154   0.77225   0.75000   0.00000  Uiso   1.00
O1175  O     0.87157   0.89441   0.75000   0.00000  Uiso   1.00
O1176  O     0.79510   0.77226   0.75000   0.00000  Uiso   1.00
O1177  O     0.77328   0.83334   0.81613   0.00000  Uiso   1.00
O1178  O     0.89339   0.83333   0.68388   0.00000  Uiso   1.00
O1179  O     0.84972   0.83333   0.81612   0.00000  Uiso   1.00
O1180  O     0.81695   0.83334   0.68388   0.00000  Uiso   1.00
Zn1181 Zn    0.78229   0.83334   0.75000   0.00000  Uiso   1.00
Zn1182 Zn    0.88438   0.83333   0.75000   0.00000  Uiso   1.00
C1183  C     0.97520   0.76664   0.70312   0.00000  Uiso   1.00
H1184  H     0.98842   0.73559   0.70605   0.00000  Uiso   1.00
O1185  O     0.95502   0.77209   0.67622   0.00000  Uiso   1.00
C1186  C     0.69138   0.89959   0.79756   0.00000  Uiso   1.00
H1187  H     0.67871   0.93082   0.79455   0.00000  Uiso   1.00
O1188  O     0.71082   0.89361   0.82500   0.00000  Uiso   1.00
loop_
_geom_bond_atom_site_label_1
_geom_bond_atom_site_label_2
_geom_bond_distance
_geom_bond_site_symmetry_2
_ccdc_geom_bond_type
C1     O51     1.290   .     A
C1     C12     1.419   .     S
C1     O53     1.286   .     A
C2     O52     1.290   .     A
C2     C11     1.419   .     S
C2     O54     1.286   .     A
C3     C5      1.388   .     A
C3     C32     1.418   .     A
C3     H41     1.079   .     S
C4     C6      1.389   .     A
C4     H42     1.078   .     S
C4     C31     1.418   .     A
C5     H33     1.084   .     S
C5     C623    1.391   1_554 S
C6     H34     1.084   .     S
C6     C624    1.391   .     S
C7     H43     1.084   .     S
C7     C12     1.399   .     A
C7     C207    1.370   .     S
C8     H44     1.084   .     S
C8     C11     1.399   .     A
C8     C406    1.370   1_545 S
C9     H45     1.084   .     S
C9     C11     1.395   .     A
C9     C403    1.370   1_545 S
C10    H46     1.084   .     S
C10    C12     1.395   .     A
C10    C206    1.370   .     S
C13    N50     1.385   .     A
C13    C61     1.471   .     S
C13    C81     1.416   .     S
C14    C64     1.472   .     S
C14    N49     1.385   .     A
C14    C148    1.417   1_455 S
C15    N49     1.356   .     A
C15    H47     1.083   .     S
C15    C145    1.416   1_455 S
C16    H48     1.083   .     S
C16    N50     1.357   .     A
C16    C80     1.417   .     S
C17    O55     1.299   .     A
C17    C19     1.460   .     S
C17    O57     1.297   .     A
C18    O56     1.301   .     A
C18    C20     1.461   .     S
C18    O58     1.296   .     A
C19    C23     1.399   .     A
C19    C25     1.395   .     A
C20    C24     1.399   .     A
C20    C26     1.393   .     A
C21    C29     1.405   .     A
C21    C23     1.393   .     A
C21    H39     1.083   .     S
C22    H40     1.084   .     S
C22    C24     1.395   .     A
C22    C30     1.405   .     A
C23    H38     1.082   .     S
C24    H37     1.081   .     S
C25    H36     1.076   .     S
C25    C27     1.396   .     A
C26    H35     1.078   .     S
C26    C28     1.395   .     A
C27    C29     1.418   .     A
C27    C31     1.420   .     A
C28    C30     1.416   .     A
C28    C32     1.418   .     A
C29    C599    1.391   .     S
C30    C600    1.391   1_554 S
C31    C626    1.415   .     S
C32    C625    1.415   1_554 S
N49    Zn59    2.022   .     S
N50    Zn60    2.022   .     S
O51    Zn59    2.003   .     S
O52    Zn60    2.003   .     S
O53    Zn60    1.995   .     S
O54    Zn59    1.995   .     S
O55    Zn59    1.967   .     S
O56    Zn60    1.967   .     S
O57    Zn60    1.909   .     S
O58    Zn59    1.909   .     S
C61    H62     1.086   .     S
C61    O63     1.216   .     D
C64    H65     1.086   .     S
C64    O66     1.217   .     D
C67    O117    1.290   .     A
C67    C78     1.419   .     S
C67    O119    1.286   .     A
C68    O118    1.290   .     A
C68    C77     1.419   .     S
C68    O120    1.286   .     A
C69    C71     1.388   .     A
C69    C98     1.418   .     A
C69    H107    1.079   .     S
C70    C72     1.389   .     A
C70    H108    1.078   .     S
C70    C97     1.418   .     A
C71    H99     1.084   .     S
C71    C689    1.391   1_554 S
C72    H100    1.084   .     S
C72    C690    1.391   .     S
C73    H109    1.084   .     S
C73    C78     1.399   .     A
C73    C273    1.370   .     S
C74    H110    1.084   .     S
C74    C77     1.399   .     A
C74    C472    1.370   1_545 S
C75    H111    1.084   .     S
C75    C77     1.395   .     A
C75    C469    1.370   1_545 S
C76    H112    1.084   .     S
C76    C78     1.395   .     A
C76    C272    1.370   .     S
C79    N116    1.385   .     A
C79    C127    1.471   .     S
C79    C147    1.416   .     S
C80    C130    1.472   .     S
C80    N115    1.385   .     A
C81    N115    1.356   .     A
C81    H113    1.083   .     S
C82    H114    1.083   .     S
C82    N116    1.357   .     A
C82    C146    1.417   .     S
C83    O121    1.299   .     A
C83    C85     1.460   .     S
C83    O123    1.297   .     A
C84    O122    1.301   .     A
C84    C86     1.461   .     S
C84    O124    1.296   .     A
C85    C89     1.399   .     A
C85    C91     1.395   .     A
C86    C90     1.399   .     A
C86    C92     1.393   .     A
C87    C95     1.405   .     A
C87    C89     1.393   .     A
C87    H105    1.083   .     S
C88    H106    1.084   .     S
C88    C90     1.395   .     A
C88    C96     1.405   .     A
C89    H104    1.082   .     S
C90    H103    1.081   .     S
C91    H102    1.076   .     S
C91    C93     1.396   .     A
C92    H101    1.078   .     S
C92    C94     1.395   .     A
C93    C95     1.418   .     A
C93    C97     1.420   .     A
C94    C96     1.416   .     A
C94    C98     1.418   .     A
C95    C665    1.391   .     S
C96    C666    1.391   1_554 S
C97    C692    1.415   .     S
C98    C691    1.415   1_554 S
N115   Zn125   2.022   .     S
N116   Zn126   2.022   .     S
O117   Zn125   2.003   .     S
O118   Zn126   2.003   .     S
O119   Zn126   1.995   .     S
O120   Zn125   1.995   .     S
O121   Zn125   1.967   .     S
O122   Zn126   1.967   .     S
O123   Zn126   1.909   .     S
O124   Zn125   1.909   .     S
C127   H128    1.086   .     S
C127   O129    1.216   .     D
C130   H131    1.086   .     S
C130   O132    1.217   .     D
C133   O183    1.290   .     A
C133   C144    1.419   .     S
C133   O185    1.286   .     A
C134   O184    1.290   .     A
C134   C143    1.419   .     S
C134   O186    1.286   .     A
C135   C137    1.388   .     A
C135   C164    1.418   .     A
C135   H173    1.079   .     S
C136   C138    1.389   .     A
C136   H174    1.078   .     S
C136   C163    1.418   .     A
C137   H165    1.084   .     S
C137   C755    1.391   1_554 S
C138   H166    1.084   .     S
C138   C756    1.391   .     S
C139   H175    1.084   .     S
C139   C144    1.399   .     A
C139   C339    1.370   .     S
C140   H176    1.084   .     S
C140   C143    1.399   .     A
C140   C538    1.370   1_545 S
C141   H177    1.084   .     S
C141   C143    1.395   .     A
C141   C535    1.370   1_545 S
C142   H178    1.084   .     S
C142   C144    1.395   .     A
C142   C338    1.370   .     S
C145   N182    1.385   .     A
C145   C193    1.471   .     S
C145   C15     1.416   1_655 S
C146   C196    1.472   .     S
C146   N181    1.385   .     A
C147   N181    1.356   .     A
C147   H179    1.083   .     S
C148   H180    1.083   .     S
C148   N182    1.357   .     A
C148   C14     1.417   1_655 S
C149   O187    1.299   .     A
C149   C151    1.460   .     S
C149   O189    1.297   .     A
C150   O188    1.301   .     A
C150   C152    1.461   .     S
C150   O190    1.296   .     A
C151   C155    1.399   .     A
C151   C157    1.395   .     A
C152   C156    1.399   .     A
C152   C158    1.393   .     A
C153   C161    1.405   .     A
C153   C155    1.393   .     A
C153   H171    1.083   .     S
C154   H172    1.084   .     S
C154   C156    1.395   .     A
C154   C162    1.405   .     A
C155   H170    1.082   .     S
C156   H169    1.081   .     S
C157   H168    1.076   .     S
C157   C159    1.396   .     A
C158   H167    1.078   .     S
C158   C160    1.395   .     A
C159   C161    1.418   .     A
C159   C163    1.420   .     A
C160   C162    1.416   .     A
C160   C164    1.418   .     A
C161   C731    1.391   .     S
C162   C732    1.391   1_554 S
C163   C758    1.415   .     S
C164   C757    1.415   1_554 S
N181   Zn191   2.022   .     S
N182   Zn192   2.022   .     S
O183   Zn191   2.003   .     S
O184   Zn192   2.003   .     S
O185   Zn192   1.995   .     S
O186   Zn191   1.995   .     S
O187   Zn191   1.967   .     S
O188   Zn192   1.967   .     S
O189   Zn192   1.909   .     S
O190   Zn191   1.909   .     S
C193   H194    1.086   .     S
C193   O195    1.216   .     D
C196   H197    1.086   .     S
C196   O198    1.217   .     D
C199   O249    1.290   .     A
C199   C210    1.419   .     S
C199   O251    1.286   .     A
C200   O250    1.290   .     A
C200   C209    1.419   .     S
C200   O252    1.286   .     A
C201   C203    1.388   .     A
C201   C230    1.418   .     A
C201   H239    1.079   .     S
C202   C204    1.389   .     A
C202   H240    1.078   .     S
C202   C229    1.418   .     A
C203   H231    1.084   .     S
C203   C821    1.391   1_554 S
C204   H232    1.084   .     S
C204   C822    1.391   .     S
C205   H241    1.084   .     S
C205   C210    1.399   .     A
C205   C405    1.370   .     S
C206   H242    1.084   .     S
C206   C209    1.399   .     A
C207   H243    1.084   .     S
C207   C209    1.395   .     A
C208   H244    1.084   .     S
C208   C210    1.395   .     A
C208   C404    1.370   .     S
C211   N248    1.385   .     A
C211   C259    1.471   .     S
C211   C279    1.416   .     S
C212   C262    1.472   .     S
C212   N247    1.385   .     A
C212   C346    1.417   1_455 S
C213   N247    1.356   .     A
C213   H245    1.083   .     S
C213   C343    1.416   1_455 S
C214   H246    1.083   .     S
C214   N248    1.357   .     A
C214   C278    1.417   .     S
C215   O253    1.299   .     A
C215   C217    1.460   .     S
C215   O255    1.297   .     A
C216   O254    1.301   .     A
C216   C218    1.461   .     S
C216   O256    1.296   .     A
C217   C221    1.399   .     A
C217   C223    1.395   .     A
C218   C222    1.399   .     A
C218   C224    1.393   .     A
C219   C227    1.405   .     A
C219   C221    1.393   .     A
C219   H237    1.083   .     S
C220   H238    1.084   .     S
C220   C222    1.395   .     A
C220   C228    1.405   .     A
C221   H236    1.082   .     S
C222   H235    1.081   .     S
C223   H234    1.076   .     S
C223   C225    1.396   .     A
C224   H233    1.078   .     S
C224   C226    1.395   .     A
C225   C227    1.418   .     A
C225   C229    1.420   .     A
C226   C228    1.416   .     A
C226   C230    1.418   .     A
C227   C797    1.391   .     S
C228   C798    1.391   1_554 S
C229   C824    1.415   .     S
C230   C823    1.415   1_554 S
N247   Zn257   2.022   .     S
N248   Zn258   2.022   .     S
O249   Zn257   2.003   .     S
O250   Zn258   2.003   .     S
O251   Zn258   1.995   .     S
O252   Zn257   1.995   .     S
O253   Zn257   1.967   .     S
O254   Zn258   1.967   .     S
O255   Zn258   1.909   .     S
O256   Zn257   1.909   .     S
C259   H260    1.086   .     S
C259   O261    1.216   .     D
C262   H263    1.086   .     S
C262   O264    1.217   .     D
C265   O315    1.290   .     A
C265   C276    1.419   .     S
C265   O317    1.286   .     A
C266   O316    1.290   .     A
C266   C275    1.419   .     S
C266   O318    1.286   .     A
C267   C269    1.388   .     A
C267   C296    1.418   .     A
C267   H305    1.079   .     S
C268   C270    1.389   .     A
C268   H306    1.078   .     S
C268   C295    1.418   .     A
C269   H297    1.084   .     S
C269   C887    1.391   1_554 S
C270   H298    1.084   .     S
C270   C888    1.391   .     S
C271   H307    1.084   .     S
C271   C276    1.399   .     A
C271   C471    1.370   .     S
C272   H308    1.084   .     S
C272   C275    1.399   .     A
C273   H309    1.084   .     S
C273   C275    1.395   .     A
C274   H310    1.084   .     S
C274   C276    1.395   .     A
C274   C470    1.370   .     S
C277   N314    1.385   .     A
C277   C325    1.471   .     S
C277   C345    1.416   .     S
C278   C328    1.472   .     S
C278   N313    1.385   .     A
C279   N313    1.356   .     A
C279   H311    1.083   .     S
C280   H312    1.083   .     S
C280   N314    1.357   .     A
C280   C344    1.417   .     S
C281   O319    1.299   .     A
C281   C283    1.460   .     S
C281   O321    1.297   .     A
C282   O320    1.301   .     A
C282   C284    1.461   .     S
C282   O322    1.296   .     A
C283   C287    1.399   .     A
C283   C289    1.395   .     A
C284   C288    1.399   .     A
C284   C290    1.393   .     A
C285   C293    1.405   .     A
C285   C287    1.393   .     A
C285   H303    1.083   .     S
C286   H304    1.084   .     S
C286   C288    1.395   .     A
C286   C294    1.405   .     A
C287   H302    1.082   .     S
C288   H301    1.081   .     S
C289   H300    1.076   .     S
C289   C291    1.396   .     A
C290   H299    1.078   .     S
C290   C292    1.395   .     A
C291   C293    1.418   .     A
C291   C295    1.420   .     A
C292   C294    1.416   .     A
C292   C296    1.418   .     A
C293   C863    1.391   .     S
C294   C864    1.391   1_554 S
C295   C890    1.415   .     S
C296   C889    1.415   1_554 S
N313   Zn323   2.022   .     S
N314   Zn324   2.022   .     S
O315   Zn323   2.003   .     S
O316   Zn324   2.003   .     S
O317   Zn324   1.995   .     S
O318   Zn323   1.995   .     S
O319   Zn323   1.967   .     S
O320   Zn324   1.967   .     S
O321   Zn324   1.909   .     S
O322   Zn323   1.909   .     S
C325   H326    1.086   .     S
C325   O327    1.216   .     D
C328   H329    1.086   .     S
C328   O330    1.217   .     D
C331   O381    1.290   .     A
C331   C342    1.419   .     S
C331   O383    1.286   .     A
C332   O382    1.290   .     A
C332   C341    1.419   .     S
C332   O384    1.286   .     A
C333   C335    1.388   .     A
C333   C362    1.418   .     A
C333   H371    1.079   .     S
C334   C336    1.389   .     A
C334   H372    1.078   .     S
C334   C361    1.418   .     A
C335   H363    1.084   .     S
C335   C953    1.391   1_554 S
C336   H364    1.084   .     S
C336   C954    1.391   .     S
C337   H373    1.084   .     S
C337   C342    1.399   .     A
C337   C537    1.370   .     S
C338   H374    1.084   .     S
C338   C341    1.399   .     A
C339   H375    1.084   .     S
C339   C341    1.395   .     A
C340   H376    1.084   .     S
C340   C342    1.395   .     A
C340   C536    1.370   .     S
C343   N380    1.385   .     A
C343   C391    1.471   .     S
C343   C213    1.416   1_655 S
C344   C394    1.472   .     S
C344   N379    1.385   .     A
C345   N379    1.356   .     A
C345   H377    1.083   .     S
C346   H378    1.083   .     S
C346   N380    1.357   .     A
C346   C212    1.417   1_655 S
C347   O385    1.299   .     A
C347   C349    1.460   .     S
C347   O387    1.297   .     A
C348   O386    1.301   .     A
C348   C350    1.461   .     S
C348   O388    1.296   .     A
C349   C353    1.399   .     A
C349   C355    1.395   .     A
C350   C354    1.399   .     A
C350   C356    1.393   .     A
C351   C359    1.405   .     A
C351   C353    1.393   .     A
C351   H369    1.083   .     S
C352   H370    1.084   .     S
C352   C354    1.395   .     A
C352   C360    1.405   .     A
C353   H368    1.082   .     S
C354   H367    1.081   .     S
C355   H366    1.076   .     S
C355   C357    1.396   .     A
C356   H365    1.078   .     S
C356   C358    1.395   .     A
C357   C359    1.418   .     A
C357   C361    1.420   .     A
C358   C360    1.416   .     A
C358   C362    1.418   .     A
C359   C929    1.391   .     S
C360   C930    1.391   1_554 S
C361   C956    1.415   .     S
C362   C955    1.415   1_554 S
N379   Zn389   2.022   .     S
N380   Zn390   2.022   .     S
O381   Zn389   2.003   .     S
O382   Zn390   2.003   .     S
O383   Zn390   1.995   .     S
O384   Zn389   1.995   .     S
O385   Zn389   1.967   .     S
O386   Zn390   1.967   .     S
O387   Zn390   1.909   .     S
O388   Zn389   1.909   .     S
C391   H392    1.086   .     S
C391   O393    1.216   .     D
C394   H395    1.086   .     S
C394   O396    1.217   .     D
C397   O447    1.290   .     A
C397   C408    1.419   .     S
C397   O449    1.286   .     A
C398   O448    1.290   .     A
C398   C407    1.419   .     S
C398   O450    1.286   .     A
C399   C401    1.388   .     A
C399   C428    1.418   .     A
C399   H437    1.079   .     S
C400   C402    1.389   .     A
C400   H438    1.078   .     S
C400   C427    1.418   .     A
C401   H429    1.084   .     S
C401   C1019   1.391   1_554 S
C402   H430    1.084   .     S
C402   C1020   1.391   .     S
C403   H439    1.084   .     S
C403   C408    1.399   .     A
C403   C9      1.370   1_565 S
C404   H440    1.084   .     S
C404   C407    1.399   .     A
C405   H441    1.084   .     S
C405   C407    1.395   .     A
C406   H442    1.084   .     S
C406   C408    1.395   .     A
C406   C8      1.370   1_565 S
C409   N446    1.385   .     A
C409   C457    1.471   .     S
C409   C477    1.416   .     S
C410   C460    1.472   .     S
C410   N445    1.385   .     A
C410   C544    1.417   1_455 S
C411   N445    1.356   .     A
C411   H443    1.083   .     S
C411   C541    1.416   1_455 S
C412   H444    1.083   .     S
C412   N446    1.357   .     A
C412   C476    1.417   .     S
C413   O451    1.299   .     A
C413   C415    1.460   .     S
C413   O453    1.297   .     A
C414   O452    1.301   .     A
C414   C416    1.461   .     S
C414   O454    1.296   .     A
C415   C419    1.399   .     A
C415   C421    1.395   .     A
C416   C420    1.399   .     A
C416   C422    1.393   .     A
C417   C425    1.405   .     A
C417   C419    1.393   .     A
C417   H435    1.083   .     S
C418   H436    1.084   .     S
C418   C420    1.395   .     A
C418   C426    1.405   .     A
C419   H434    1.082   .     S
C420   H433    1.081   .     S
C421   H432    1.076   .     S
C421   C423    1.396   .     A
C422   H431    1.078   .     S
C422   C424    1.395   .     A
C423   C425    1.418   .     A
C423   C427    1.420   .     A
C424   C426    1.416   .     A
C424   C428    1.418   .     A
C425   C995    1.391   .     S
C426   C996    1.391   1_554 S
C427   C1022   1.415   .     S
C428   C1021   1.415   1_554 S
N445   Zn455   2.022   .     S
N446   Zn456   2.022   .     S
O447   Zn455   2.003   .     S
O448   Zn456   2.003   .     S
O449   Zn456   1.995   .     S
O450   Zn455   1.995   .     S
O451   Zn455   1.967   .     S
O452   Zn456   1.967   .     S
O453   Zn456   1.909   .     S
O454   Zn455   1.909   .     S
C457   H458    1.086   .     S
C457   O459    1.216   .     D
C460   H461    1.086   .     S
C460   O462    1.217   .     D
C463   O513    1.290   .     A
C463   C474    1.419   .     S
C463   O515    1.286   .     A
C464   O514    1.290   .     A
C464   C473    1.419   .     S
C464   O516    1.286   .     A
C465   C467    1.388   .     A
C465   C494    1.418   .     A
C465   H503    1.079   .     S
C466   C468    1.389   .     A
C466   H504    1.078   .     S
C466   C493    1.418   .     A
C467   H495    1.084   .     S
C467   C1085   1.391   1_554 S
C468   H496    1.084   .     S
C468   C1086   1.391   .     S
C469   H505    1.084   .     S
C469   C474    1.399   .     A
C469   C75     1.370   1_565 S
C470   H506    1.084   .     S
C470   C473    1.399   .     A
C471   H507    1.084   .     S
C471   C473    1.395   .     A
C472   H508    1.084   .     S
C472   C474    1.395   .     A
C472   C74     1.370   1_565 S
C475   N512    1.385   .     A
C475   C523    1.471   .     S
C475   C543    1.416   .     S
C476   C526    1.472   .     S
C476   N511    1.385   .     A
C477   N511    1.356   .     A
C477   H509    1.083   .     S
C478   H510    1.083   .     S
C478   N512    1.357   .     A
C478   C542    1.417   .     S
C479   O517    1.299   .     A
C479   C481    1.460   .     S
C479   O519    1.297   .     A
C480   O518    1.301   .     A
C480   C482    1.461   .     S
C480   O520    1.296   .     A
C481   C485    1.399   .     A
C481   C487    1.395   .     A
C482   C486    1.399   .     A
C482   C488    1.393   .     A
C483   C491    1.405   .     A
C483   C485    1.393   .     A
C483   H501    1.083   .     S
C484   H502    1.084   .     S
C484   C486    1.395   .     A
C484   C492    1.405   .     A
C485   H500    1.082   .     S
C486   H499    1.081   .     S
C487   H498    1.076   .     S
C487   C489    1.396   .     A
C488   H497    1.078   .     S
C488   C490    1.395   .     A
C489   C491    1.418   .     A
C489   C493    1.420   .     A
C490   C492    1.416   .     A
C490   C494    1.418   .     A
C491   C1061   1.391   .     S
C492   C1062   1.391   1_554 S
C493   C1088   1.415   .     S
C494   C1087   1.415   1_554 S
N511   Zn521   2.022   .     S
N512   Zn522   2.022   .     S
O513   Zn521   2.003   .     S
O514   Zn522   2.003   .     S
O515   Zn522   1.995   .     S
O516   Zn521   1.995   .     S
O517   Zn521   1.967   .     S
O518   Zn522   1.967   .     S
O519   Zn522   1.909   .     S
O520   Zn521   1.909   .     S
C523   H524    1.086   .     S
C523   O525    1.216   .     D
C526   H527    1.086   .     S
C526   O528    1.217   .     D
C529   O579    1.290   .     A
C529   C540    1.419   .     S
C529   O581    1.286   .     A
C530   O580    1.290   .     A
C530   C539    1.419   .     S
C530   O582    1.286   .     A
C531   C533    1.388   .     A
C531   C560    1.418   .     A
C531   H569    1.079   .     S
C532   C534    1.389   .     A
C532   H570    1.078   .     S
C532   C559    1.418   .     A
C533   H561    1.084   .     S
C533   C1151   1.391   1_554 S
C534   H562    1.084   .     S
C534   C1152   1.391   .     S
C535   H571    1.084   .     S
C535   C540    1.399   .     A
C535   C141    1.370   1_565 S
C536   H572    1.084   .     S
C536   C539    1.399   .     A
C537   H573    1.084   .     S
C537   C539    1.395   .     A
C538   H574    1.084   .     S
C538   C540    1.395   .     A
C538   C140    1.370   1_565 S
C541   N578    1.385   .     A
C541   C589    1.471   .     S
C541   C411    1.416   1_655 S
C542   C592    1.472   .     S
C542   N577    1.385   .     A
C543   N577    1.356   .     A
C543   H575    1.083   .     S
C544   H576    1.083   .     S
C544   N578    1.357   .     A
C544   C410    1.417   1_655 S
C545   O583    1.299   .     A
C545   C547    1.460   .     S
C545   O585    1.297   .     A
C546   O584    1.301   .     A
C546   C548    1.461   .     S
C546   O586    1.296   .     A
C547   C551    1.399   .     A
C547   C553    1.395   .     A
C548   C552    1.399   .     A
C548   C554    1.393   .     A
C549   C557    1.405   .     A
C549   C551    1.393   .     A
C549   H567    1.083   .     S
C550   H568    1.084   .     S
C550   C552    1.395   .     A
C550   C558    1.405   .     A
C551   H566    1.082   .     S
C552   H565    1.081   .     S
C553   H564    1.076   .     S
C553   C555    1.396   .     A
C554   H563    1.078   .     S
C554   C556    1.395   .     A
C555   C557    1.418   .     A
C555   C559    1.420   .     A
C556   C558    1.416   .     A
C556   C560    1.418   .     A
C557   C1127   1.391   .     S
C558   C1128   1.391   1_554 S
C559   C1154   1.415   .     S
C560   C1153   1.415   1_554 S
N577   Zn587   2.022   .     S
N578   Zn588   2.022   .     S
O579   Zn587   2.003   .     S
O580   Zn588   2.003   .     S
O581   Zn588   1.995   .     S
O582   Zn587   1.995   .     S
O583   Zn587   1.967   .     S
O584   Zn588   1.967   .     S
O585   Zn588   1.909   .     S
O586   Zn587   1.909   .     S
C589   H590    1.086   .     S
C589   O591    1.216   .     D
C592   H593    1.086   .     S
C592   O594    1.217   .     D
C595   O645    1.290   .     A
C595   C606    1.419   .     S
C595   O647    1.286   .     A
C596   O646    1.290   .     A
C596   C605    1.419   .     S
C596   O648    1.286   .     A
C597   C599    1.388   .     A
C597   C626    1.418   .     A
C597   H635    1.079   .     S
C598   C600    1.389   .     A
C598   H636    1.078   .     S
C598   C625    1.418   .     A
C599   H627    1.084   .     S
C600   H628    1.084   .     S
C600   C30     1.391   1_556 S
C601   H637    1.084   .     S
C601   C606    1.399   .     A
C601   C801    1.370   .     S
C602   H638    1.084   .     S
C602   C605    1.399   .     A
C602   C1000   1.370   1_545 S
C603   H639    1.084   .     S
C603   C605    1.395   .     A
C603   C997    1.370   1_545 S
C604   H640    1.084   .     S
C604   C606    1.395   .     A
C604   C800    1.370   .     S
C607   N644    1.385   .     A
C607   C655    1.471   .     S
C607   C675    1.416   .     S
C608   C658    1.472   .     S
C608   N643    1.385   .     A
C608   C742    1.417   1_455 S
C609   N643    1.356   .     A
C609   H641    1.083   .     S
C609   C739    1.416   1_455 S
C610   H642    1.083   .     S
C610   N644    1.357   .     A
C610   C674    1.417   .     S
C611   O649    1.299   .     A
C611   C613    1.460   .     S
C611   O651    1.297   .     A
C612   O650    1.301   .     A
C612   C614    1.461   .     S
C612   O652    1.296   .     A
C613   C617    1.399   .     A
C613   C619    1.395   .     A
C614   C618    1.399   .     A
C614   C620    1.393   .     A
C615   C623    1.405   .     A
C615   C617    1.393   .     A
C615   H633    1.083   .     S
C616   H634    1.084   .     S
C616   C618    1.395   .     A
C616   C624    1.405   .     A
C617   H632    1.082   .     S
C618   H631    1.081   .     S
C619   H630    1.076   .     S
C619   C621    1.396   .     A
C620   H629    1.078   .     S
C620   C622    1.395   .     A
C621   C623    1.418   .     A
C621   C625    1.420   .     A
C622   C624    1.416   .     A
C622   C626    1.418   .     A
C623   C5      1.391   1_556 S
C625   C32     1.415   1_556 S
N643   Zn653   2.022   .     S
N644   Zn654   2.022   .     S
O645   Zn653   2.003   .     S
O646   Zn654   2.003   .     S
O647   Zn654   1.995   .     S
O648   Zn653   1.995   .     S
O649   Zn653   1.967   .     S
O650   Zn654   1.967   .     S
O651   Zn654   1.909   .     S
O652   Zn653   1.909   .     S
C655   H656    1.086   .     S
C655   O657    1.216   .     D
C658   H659    1.086   .     S
C658   O660    1.217   .     D
C661   O711    1.290   .     A
C661   C672    1.419   .     S
C661   O713    1.286   .     A
C662   O712    1.290   .     A
C662   C671    1.419   .     S
C662   O714    1.286   .     A
C663   C665    1.388   .     A
C663   C692    1.418   .     A
C663   H701    1.079   .     S
C664   C666    1.389   .     A
C664   H702    1.078   .     S
C664   C691    1.418   .     A
C665   H693    1.084   .     S
C666   H694    1.084   .     S
C666   C96     1.391   1_556 S
C667   H703    1.084   .     S
C667   C672    1.399   .     A
C667   C867    1.370   .     S
C668   H704    1.084   .     S
C668   C671    1.399   .     A
C668   C1066   1.370   1_545 S
C669   H705    1.084   .     S
C669   C671    1.395   .     A
C669   C1063   1.370   1_545 S
C670   H706    1.084   .     S
C670   C672    1.395   .     A
C670   C866    1.370   .     S
C673   N710    1.385   .     A
C673   C721    1.471   .     S
C673   C741    1.416   .     S
C674   C724    1.472   .     S
C674   N709    1.385   .     A
C675   N709    1.356   .     A
C675   H707    1.083   .     S
C676   H708    1.083   .     S
C676   N710    1.357   .     A
C676   C740    1.417   .     S
C677   O715    1.299   .     A
C677   C679    1.460   .     S
C677   O717    1.297   .     A
C678   O716    1.301   .     A
C678   C680    1.461   .     S
C678   O718    1.296   .     A
C679   C683    1.399   .     A
C679   C685    1.395   .     A
C680   C684    1.399   .     A
C680   C686    1.393   .     A
C681   C689    1.405   .     A
C681   C683    1.393   .     A
C681   H699    1.083   .     S
C682   H700    1.084   .     S
C682   C684    1.395   .     A
C682   C690    1.405   .     A
C683   H698    1.082   .     S
C684   H697    1.081   .     S
C685   H696    1.076   .     S
C685   C687    1.396   .     A
C686   H695    1.078   .     S
C686   C688    1.395   .     A
C687   C689    1.418   .     A
C687   C691    1.420   .     A
C688   C690    1.416   .     A
C688   C692    1.418   .     A
C689   C71     1.391   1_556 S
C691   C98     1.415   1_556 S
N709   Zn719   2.022   .     S
N710   Zn720   2.022   .     S
O711   Zn719   2.003   .     S
O712   Zn720   2.003   .     S
O713   Zn720   1.995   .     S
O714   Zn719   1.995   .     S
O715   Zn719   1.967   .     S
O716   Zn720   1.967   .     S
O717   Zn720   1.909   .     S
O718   Zn719   1.909   .     S
C721   H722    1.086   .     S
C721   O723    1.216   .     D
C724   H725    1.086   .     S
C724   O726    1.217   .     D
C727   O777    1.290   .     A
C727   C738    1.419   .     S
C727   O779    1.286   .     A
C728   O778    1.290   .     A
C728   C737    1.419   .     S
C728   O780    1.286   .     A
C729   C731    1.388   .     A
C729   C758    1.418   .     A
C729   H767    1.079   .     S
C730   C732    1.389   .     A
C730   H768    1.078   .     S
C730   C757    1.418   .     A
C731   H759    1.084   .     S
C732   H760    1.084   .     S
C732   C162    1.391   1_556 S
C733   H769    1.084   .     S
C733   C738    1.399   .     A
C733   C933    1.370   .     S
C734   H770    1.084   .     S
C734   C737    1.399   .     A
C734   C1132   1.370   1_545 S
C735   H771    1.084   .     S
C735   C737    1.395   .     A
C735   C1129   1.370   1_545 S
C736   H772    1.084   .     S
C736   C738    1.395   .     A
C736   C932    1.370   .     S
C739   N776    1.385   .     A
C739   C787    1.471   .     S
C739   C609    1.416   1_655 S
C740   C790    1.472   .     S
C740   N775    1.385   .     A
C741   N775    1.356   .     A
C741   H773    1.083   .     S
C742   H774    1.083   .     S
C742   N776    1.357   .     A
C742   C608    1.417   1_655 S
C743   O781    1.299   .     A
C743   C745    1.460   .     S
C743   O783    1.297   .     A
C744   O782    1.301   .     A
C744   C746    1.461   .     S
C744   O784    1.296   .     A
C745   C749    1.399   .     A
C745   C751    1.395   .     A
C746   C750    1.399   .     A
C746   C752    1.393   .     A
C747   C755    1.405   .     A
C747   C749    1.393   .     A
C747   H765    1.083   .     S
C748   H766    1.084   .     S
C748   C750    1.395   .     A
C748   C756    1.405   .     A
C749   H764    1.082   .     S
C750   H763    1.081   .     S
C751   H762    1.076   .     S
C751   C753    1.396   .     A
C752   H761    1.078   .     S
C752   C754    1.395   .     A
C753   C755    1.418   .     A
C753   C757    1.420   .     A
C754   C756    1.416   .     A
C754   C758    1.418   .     A
C755   C137    1.391   1_556 S
C757   C164    1.415   1_556 S
N775   Zn785   2.022   .     S
N776   Zn786   2.022   .     S
O777   Zn785   2.003   .     S
O778   Zn786   2.003   .     S
O779   Zn786   1.995   .     S
O780   Zn785   1.995   .     S
O781   Zn785   1.967   .     S
O782   Zn786   1.967   .     S
O783   Zn786   1.909   .     S
O784   Zn785   1.909   .     S
C787   H788    1.086   .     S
C787   O789    1.216   .     D
C790   H791    1.086   .     S
C790   O792    1.217   .     D
C793   O843    1.290   .     A
C793   C804    1.419   .     S
C793   O845    1.286   .     A
C794   O844    1.290   .     A
C794   C803    1.419   .     S
C794   O846    1.286   .     A
C795   C797    1.388   .     A
C795   C824    1.418   .     A
C795   H833    1.079   .     S
C796   C798    1.389   .     A
C796   H834    1.078   .     S
C796   C823    1.418   .     A
C797   H825    1.084   .     S
C798   H826    1.084   .     S
C798   C228    1.391   1_556 S
C799   H835    1.084   .     S
C799   C804    1.399   .     A
C799   C999    1.370   .     S
C800   H836    1.084   .     S
C800   C803    1.399   .     A
C801   H837    1.084   .     S
C801   C803    1.395   .     A
C802   H838    1.084   .     S
C802   C804    1.395   .     A
C802   C998    1.370   .     S
C805   N842    1.385   .     A
C805   C853    1.471   .     S
C805   C873    1.416   .     S
C806   C856    1.472   .     S
C806   N841    1.385   .     A
C806   C940    1.417   1_455 S
C807   N841    1.356   .     A
C807   H839    1.083   .     S
C807   C937    1.416   1_455 S
C808   H840    1.083   .     S
C808   N842    1.357   .     A
C808   C872    1.417   .     S
C809   O847    1.299   .     A
C809   C811    1.460   .     S
C809   O849    1.297   .     A
C810   O848    1.301   .     A
C810   C812    1.461   .     S
C810   O850    1.296   .     A
C811   C815    1.399   .     A
C811   C817    1.395   .     A
C812   C816    1.399   .     A
C812   C818    1.393   .     A
C813   C821    1.405   .     A
C813   C815    1.393   .     A
C813   H831    1.083   .     S
C814   H832    1.084   .     S
C814   C816    1.395   .     A
C814   C822    1.405   .     A
C815   H830    1.082   .     S
C816   H829    1.081   .     S
C817   H828    1.076   .     S
C817   C819    1.396   .     A
C818   H827    1.078   .     S
C818   C820    1.395   .     A
C819   C821    1.418   .     A
C819   C823    1.420   .     A
C820   C822    1.416   .     A
C820   C824    1.418   .     A
C821   C203    1.391   1_556 S
C823   C230    1.415   1_556 S
N841   Zn851   2.022   .     S
N842   Zn852   2.022   .     S
O843   Zn851   2.003   .     S
O844   Zn852   2.003   .     S
O845   Zn852   1.995   .     S
O846   Zn851   1.995   .     S
O847   Zn851   1.967   .     S
O848   Zn852   1.967   .     S
O849   Zn852   1.909   .     S
O850   Zn851   1.909   .     S
C853   H854    1.086   .     S
C853   O855    1.216   .     D
C856   H857    1.086   .     S
C856   O858    1.217   .     D
C859   O909    1.290   .     A
C859   C870    1.419   .     S
C859   O911    1.286   .     A
C860   O910    1.290   .     A
C860   C869    1.419   .     S
C860   O912    1.286   .     A
C861   C863    1.388   .     A
C861   C890    1.418   .     A
C861   H899    1.079   .     S
C862   C864    1.389   .     A
C862   H900    1.078   .     S
C862   C889    1.418   .     A
C863   H891    1.084   .     S
C864   H892    1.084   .     S
C864   C294    1.391   1_556 S
C865   H901    1.084   .     S
C865   C870    1.399   .     A
C865   C1065   1.370   .     S
C866   H902    1.084   .     S
C866   C869    1.399   .     A
C867   H903    1.084   .     S
C867   C869    1.395   .     A
C868   H904    1.084   .     S
C868   C870    1.395   .     A
C868   C1064   1.370   .     S
C871   N908    1.385   .     A
C871   C919    1.471   .     S
C871   C939    1.416   .     S
C872   C922    1.472   .     S
C872   N907    1.385   .     A
C873   N907    1.356   .     A
C873   H905    1.083   .     S
C874   H906    1.083   .     S
C874   N908    1.357   .     A
C874   C938    1.417   .     S
C875   O913    1.299   .     A
C875   C877    1.460   .     S
C875   O915    1.297   .     A
C876   O914    1.301   .     A
C876   C878    1.461   .     S
C876   O916    1.296   .     A
C877   C881    1.399   .     A
C877   C883    1.395   .     A
C878   C882    1.399   .     A
C878   C884    1.393   .     A
C879   C887    1.405   .     A
C879   C881    1.393   .     A
C879   H897    1.083   .     S
C880   H898    1.084   .     S
C880   C882    1.395   .     A
C880   C888    1.405   .     A
C881   H896    1.082   .     S
C882   H895    1.081   .     S
C883   H894    1.076   .     S
C883   C885    1.396   .     A
C884   H893    1.078   .     S
C884   C886    1.395   .     A
C885   C887    1.418   .     A
C885   C889    1.420   .     A
C886   C888    1.416   .     A
C886   C890    1.418   .     A
C887   C269    1.391   1_556 S
C889   C296    1.415   1_556 S
N907   Zn917   2.022   .     S
N908   Zn918   2.022   .     S
O909   Zn917   2.003   .     S
O910   Zn918   2.003   .     S
O911   Zn918   1.995   .     S
O912   Zn917   1.995   .     S
O913   Zn917   1.967   .     S
O914   Zn918   1.967   .     S
O915   Zn918   1.909   .     S
O916   Zn917   1.909   .     S
C919   H920    1.086   .     S
C919   O921    1.216   .     D
C922   H923    1.086   .     S
C922   O924    1.217   .     D
C925   O975    1.290   .     A
C925   C936    1.419   .     S
C925   O977    1.286   .     A
C926   O976    1.290   .     A
C926   C935    1.419   .     S
C926   O978    1.286   .     A
C927   C929    1.388   .     A
C927   C956    1.418   .     A
C927   H965    1.079   .     S
C928   C930    1.389   .     A
C928   H966    1.078   .     S
C928   C955    1.418   .     A
C929   H957    1.084   .     S
C930   H958    1.084   .     S
C930   C360    1.391   1_556 S
C931   H967    1.084   .     S
C931   C936    1.399   .     A
C931   C1131   1.370   .     S
C932   H968    1.084   .     S
C932   C935    1.399   .     A
C933   H969    1.084   .     S
C933   C935    1.395   .     A
C934   H970    1.084   .     S
C934   C936    1.395   .     A
C934   C1130   1.370   .     S
C937   N974    1.385   .     A
C937   C985    1.471   .     S
C937   C807    1.416   1_655 S
C938   C988    1.472   .     S
C938   N973    1.385   .     A
C939   N973    1.356   .     A
C939   H971    1.083   .     S
C940   H972    1.083   .     S
C940   N974    1.357   .     A
C940   C806    1.417   1_655 S
C941   O979    1.299   .     A
C941   C943    1.460   .     S
C941   O981    1.297   .     A
C942   O980    1.301   .     A
C942   C944    1.461   .     S
C942   O982    1.296   .     A
C943   C947    1.399   .     A
C943   C949    1.395   .     A
C944   C948    1.399   .     A
C944   C950    1.393   .     A
C945   C953    1.405   .     A
C945   C947    1.393   .     A
C945   H963    1.083   .     S
C946   H964    1.084   .     S
C946   C948    1.395   .     A
C946   C954    1.405   .     A
C947   H962    1.082   .     S
C948   H961    1.081   .     S
C949   H960    1.076   .     S
C949   C951    1.396   .     A
C950   H959    1.078   .     S
C950   C952    1.395   .     A
C951   C953    1.418   .     A
C951   C955    1.420   .     A
C952   C954    1.416   .     A
C952   C956    1.418   .     A
C953   C335    1.391   1_556 S
C955   C362    1.415   1_556 S
N973   Zn983   2.022   .     S
N974   Zn984   2.022   .     S
O975   Zn983   2.003   .     S
O976   Zn984   2.003   .     S
O977   Zn984   1.995   .     S
O978   Zn983   1.995   .     S
O979   Zn983   1.967   .     S
O980   Zn984   1.967   .     S
O981   Zn984   1.909   .     S
O982   Zn983   1.909   .     S
C985   H986    1.086   .     S
C985   O987    1.216   .     D
C988   H989    1.086   .     S
C988   O990    1.217   .     D
C991   O1041   1.290   .     A
C991   C1002   1.419   .     S
C991   O1043   1.286   .     A
C992   O1042   1.290   .     A
C992   C1001   1.419   .     S
C992   O1044   1.286   .     A
C993   C995    1.388   .     A
C993   C1022   1.418   .     A
C993   H1031   1.079   .     S
C994   C996    1.389   .     A
C994   H1032   1.078   .     S
C994   C1021   1.418   .     A
C995   H1023   1.084   .     S
C996   H1024   1.084   .     S
C996   C426    1.391   1_556 S
C997   H1033   1.084   .     S
C997   C1002   1.399   .     A
C997   C603    1.370   1_565 S
C998   H1034   1.084   .     S
C998   C1001   1.399   .     A
C999   H1035   1.084   .     S
C999   C1001   1.395   .     A
C1000  H1036   1.084   .     S
C1000  C1002   1.395   .     A
C1000  C602    1.370   1_565 S
C1003  N1040   1.385   .     A
C1003  C1051   1.471   .     S
C1003  C1071   1.416   .     S
C1004  C1054   1.472   .     S
C1004  N1039   1.385   .     A
C1004  C1138   1.417   1_455 S
C1005  N1039   1.356   .     A
C1005  H1037   1.083   .     S
C1005  C1135   1.416   1_455 S
C1006  H1038   1.083   .     S
C1006  N1040   1.357   .     A
C1006  C1070   1.417   .     S
C1007  O1045   1.299   .     A
C1007  C1009   1.460   .     S
C1007  O1047   1.297   .     A
C1008  O1046   1.301   .     A
C1008  C1010   1.461   .     S
C1008  O1048   1.296   .     A
C1009  C1013   1.399   .     A
C1009  C1015   1.395   .     A
C1010  C1014   1.399   .     A
C1010  C1016   1.393   .     A
C1011  C1019   1.405   .     A
C1011  C1013   1.393   .     A
C1011  H1029   1.083   .     S
C1012  H1030   1.084   .     S
C1012  C1014   1.395   .     A
C1012  C1020   1.405   .     A
C1013  H1028   1.082   .     S
C1014  H1027   1.081   .     S
C1015  H1026   1.076   .     S
C1015  C1017   1.396   .     A
C1016  H1025   1.078   .     S
C1016  C1018   1.395   .     A
C1017  C1019   1.418   .     A
C1017  C1021   1.420   .     A
C1018  C1020   1.416   .     A
C1018  C1022   1.418   .     A
C1019  C401    1.391   1_556 S
C1021  C428    1.415   1_556 S
N1039  Zn1049  2.022   .     S
N1040  Zn1050  2.022   .     S
O1041  Zn1049  2.003   .     S
O1042  Zn1050  2.003   .     S
O1043  Zn1050  1.995   .     S
O1044  Zn1049  1.995   .     S
O1045  Zn1049  1.967   .     S
O1046  Zn1050  1.967   .     S
O1047  Zn1050  1.909   .     S
O1048  Zn1049  1.909   .     S
C1051  H1052   1.086   .     S
C1051  O1053   1.216   .     D
C1054  H1055   1.086   .     S
C1054  O1056   1.217   .     D
C1057  O1107   1.290   .     A
C1057  C1068   1.419   .     S
C1057  O1109   1.286   .     A
C1058  O1108   1.290   .     A
C1058  C1067   1.419   .     S
C1058  O1110   1.286   .     A
C1059  C1061   1.388   .     A
C1059  C1088   1.418   .     A
C1059  H1097   1.079   .     S
C1060  C1062   1.389   .     A
C1060  H1098   1.078   .     S
C1060  C1087   1.418   .     A
C1061  H1089   1.084   .     S
C1062  H1090   1.084   .     S
C1062  C492    1.391   1_556 S
C1063  H1099   1.084   .     S
C1063  C1068   1.399   .     A
C1063  C669    1.370   1_565 S
C1064  H1100   1.084   .     S
C1064  C1067   1.399   .     A
C1065  H1101   1.084   .     S
C1065  C1067   1.395   .     A
C1066  H1102   1.084   .     S
C1066  C1068   1.395   .     A
C1066  C668    1.370   1_565 S
C1069  N1106   1.385   .     A
C1069  C1117   1.471   .     S
C1069  C1137   1.416   .     S
C1070  C1120   1.472   .     S
C1070  N1105   1.385   .     A
C1071  N1105   1.356   .     A
C1071  H1103   1.083   .     S
C1072  H1104   1.083   .     S
C1072  N1106   1.357   .     A
C1072  C1136   1.417   .     S
C1073  O1111   1.299   .     A
C1073  C1075   1.460   .     S
C1073  O1113   1.297   .     A
C1074  O1112   1.301   .     A
C1074  C1076   1.461   .     S
C1074  O1114   1.296   .     A
C1075  C1079   1.399   .     A
C1075  C1081   1.395   .     A
C1076  C1080   1.399   .     A
C1076  C1082   1.393   .     A
C1077  C1085   1.405   .     A
C1077  C1079   1.393   .     A
C1077  H1095   1.083   .     S
C1078  H1096   1.084   .     S
C1078  C1080   1.395   .     A
C1078  C1086   1.405   .     A
C1079  H1094   1.082   .     S
C1080  H1093   1.081   .     S
C1081  H1092   1.076   .     S
C1081  C1083   1.396   .     A
C1082  H1091   1.078   .     S
C1082  C1084   1.395   .     A
C1083  C1085   1.418   .     A
C1083  C1087   1.420   .     A
C1084  C1086   1.416   .     A
C1084  C1088   1.418   .     A
C1085  C467    1.391   1_556 S
C1087  C494    1.415   1_556 S
N1105  Zn1115  2.022   .     S
N1106  Zn1116  2.022   .     S
O1107  Zn1115  2.003   .     S
O1108  Zn1116  2.003   .     S
O1109  Zn1116  1.995   .     S
O1110  Zn1115  1.995   .     S
O1111  Zn1115  1.967   .     S
O1112  Zn1116  1.967   .     S
O1113  Zn1116  1.909   .     S
O1114  Zn1115  1.909   .     S
C1117  H1118   1.086   .     S
C1117  O1119   1.216   .     D
C1120  H1121   1.086   .     S
C1120  O1122   1.217   .     D
C1123  O1173   1.290   .     A
C1123  C1134   1.419   .     S
C1123  O1175   1.286   .     A
C1124  O1174   1.290   .     A
C1124  C1133   1.419   .     S
C1124  O1176   1.286   .     A
C1125  C1127   1.388   .     A
C1125  C1154   1.418   .     A
C1125  H1163   1.079   .     S
C1126  C1128   1.389   .     A
C1126  H1164   1.078   .     S
C1126  C1153   1.418   .     A
C1127  H1155   1.084   .     S
C1128  H1156   1.084   .     S
C1128  C558    1.391   1_556 S
C1129  H1165   1.084   .     S
C1129  C1134   1.399   .     A
C1129  C735    1.370   1_565 S
C1130  H1166   1.084   .     S
C1130  C1133   1.399   .     A
C1131  H1167   1.084   .     S
C1131  C1133   1.395   .     A
C1132  H1168   1.084   .     S
C1132  C1134   1.395   .     A
C1132  C734    1.370   1_565 S
C1135  N1172   1.385   .     A
C1135  C1183   1.471   .     S
C1135  C1005   1.416   1_655 S
C1136  C1186   1.472   .     S
C1136  N1171   1.385   .     A
C1137  N1171   1.356   .     A
C1137  H1169   1.083   .     S
C1138  H1170   1.083   .     S
C1138  N1172   1.357   .     A
C1138  C1004   1.417   1_655 S
C1139  O1177   1.299   .     A
C1139  C1141   1.460   .     S
C1139  O1179   1.297   .     A
C1140  O1178   1.301   .     A
C1140  C1142   1.461   .     S
C1140  O1180   1.296   .     A
C1141  C1145   1.399   .     A
C1141  C1147   1.395   .     A
C1142  C1146   1.399   .     A
C1142  C1148   1.393   .     A
C1143  C1151   1.405   .     A
C1143  C1145   1.393   .     A
C1143  H1161   1.083   .     S
C1144  H1162   1.084   .     S
C1144  C1146   1.395   .     A
C1144  C1152   1.405   .     A
C1145  H1160   1.082   .     S
C1146  H1159   1.081   .     S
C1147  H1158   1.076   .     S
C1147  C1149   1.396   .     A
C1148  H1157   1.078   .     S
C1148  C1150   1.395   .     A
C1149  C1151   1.418   .     A
C1149  C1153   1.420   .     A
C1150  C1152   1.416   .     A
C1150  C1154   1.418   .     A
C1151  C533    1.391   1_556 S
C1153  C560    1.415   1_556 S
N1171  Zn1181  2.022   .     S
N1172  Zn1182  2.022   .     S
O1173  Zn1181  2.003   .     S
O1174  Zn1182  2.003   .     S
O1175  Zn1182  1.995   .     S
O1176  Zn1181  1.995   .     S
O1177  Zn1181  1.967   .     S
O1178  Zn1182  1.967   .     S
O1179  Zn1182  1.909   .     S
O1180  Zn1181  1.909   .     S
C1183  H1184   1.086   .     S
C1183  O1185   1.216   .     D
C1186  H1187   1.086   .     S
C1186  O1188   1.217   .     D
