data_str_m3_o10_o17_pcu_sym.149
_audit_creation_date              2020-01-03
_audit_creation_method            'Materials Studio'
_symmetry_space_group_name_H-M    'P1'
_symmetry_Int_Tables_number       1
_symmetry_cell_setting            triclinic
loop_
_symmetry_equiv_pos_as_xyz
  x,y,z
_cell_length_a                    23.4254
_cell_length_b                    25.9023
_cell_length_c                    29.7388
_cell_angle_alpha                 92.7521
_cell_angle_beta                  84.6034
_cell_angle_gamma                 93.4074
loop_
_atom_site_label
_atom_site_type_symbol
_atom_site_fract_x
_atom_site_fract_y
_atom_site_fract_z
_atom_site_U_iso_or_equiv
_atom_site_adp_type
_atom_site_occupancy
C1     C     0.18182   0.26495   0.25172   0.00000  Uiso   1.00
C2     C     0.19883   0.20539   0.40581   0.00000  Uiso   1.00
C3     C     0.16650   0.16654   0.11596   0.00000  Uiso   1.00
C4     C     0.16665   0.16681   0.38403   0.00000  Uiso   1.00
C5     C     0.19973   0.20448   0.09257   0.00000  Uiso   1.00
C6     C     0.13363   0.12871   0.40738   0.00000  Uiso   1.00
C7     C     0.19938   0.20546   0.04608   0.00000  Uiso   1.00
C8     C     0.13359   0.12798   0.45391   0.00000  Uiso   1.00
C9     C     0.16643   0.16664   0.02339   0.00000  Uiso   1.00
C10    C     0.16632   0.16693   0.47663   0.00000  Uiso   1.00
C11    C     0.13383   0.12740   0.04756   0.00000  Uiso   1.00
C12    C     0.15178   0.06911   0.25519   0.00000  Uiso   1.00
C13    C     0.19871   0.20630   0.45248   0.00000  Uiso   1.00
C14    C     0.23118   0.24446   0.02209   0.00000  Uiso   1.00
C15    C     0.10165   0.08906   0.47790   0.00000  Uiso   1.00
C16    C     0.23016   0.32822   0.45280   0.00000  Uiso   1.00
C17    C     0.10207   0.00542   0.04708   0.00000  Uiso   1.00
C18    C     0.28655   0.33088   0.23144   0.00000  Uiso   1.00
C19    C     0.06519   0.00980   0.31530   0.00000  Uiso   1.00
C20    C     0.31788   0.10886   0.17134   0.00000  Uiso   1.00
C21    C     0.01223   0.21980   0.33032   0.00000  Uiso   1.00
C22    C     0.22995   0.24579   0.47535   0.00000  Uiso   1.00
C23    C     0.10257   0.08793   0.02468   0.00000  Uiso   1.00
C24    C     0.19028   0.31977   0.25868   0.00000  Uiso   1.00
C25    C     0.14364   0.01562   0.26400   0.00000  Uiso   1.00
C26    C     0.16673   0.16682   0.33640   0.00000  Uiso   1.00
C27    C     0.16657   0.16649   0.16359   0.00000  Uiso   1.00
C28    C     0.13360   0.12840   0.09425   0.00000  Uiso   1.00
F29    F     0.26342   0.28132   0.04387   0.00000  Uiso   1.00
F30    F     0.06953   0.05215   0.45607   0.00000  Uiso   1.00
H31    H     0.10904   0.09915   0.11394   0.00000  Uiso   1.00
H32    H     0.07711   0.30909   0.06764   0.00000  Uiso   1.00
H33    H     0.26940   0.32934   0.19766   0.00000  Uiso   1.00
H34    H     0.30814   0.29504   0.23668   0.00000  Uiso   1.00
H35    H     0.32083   0.02863   0.23191   0.00000  Uiso   1.00
H36    H     0.06394   0.05240   0.32099   0.00000  Uiso   1.00
H37    H     0.09007   0.32712   0.34101   0.00000  Uiso   1.00
H38    H     0.02008   0.32760   0.32056   0.00000  Uiso   1.00
H39    H     0.31573   0.14516   0.15321   0.00000  Uiso   1.00
H40    H     0.27515   0.08900   0.17886   0.00000  Uiso   1.00
H41    H     0.00996   0.08214   0.14832   0.00000  Uiso   1.00
H42    H     0.22271   0.23504   0.38620   0.00000  Uiso   1.00
H43    H     0.05548   0.23937   0.32629   0.00000  Uiso   1.00
H44    H     0.01267   0.18133   0.34539   0.00000  Uiso   1.00
H45    H     0.31884   0.24440   0.35430   0.00000  Uiso   1.00
H46    H     0.22476   0.23356   0.11093   0.00000  Uiso   1.00
H47    H     0.10895   0.09941   0.38899   0.00000  Uiso   1.00
H48    H     0.22244   0.01179   0.48779   0.00000  Uiso   1.00
H49    H     0.18864   0.31968   0.43779   0.00000  Uiso   1.00
H50    H     0.25506   0.02457   0.43222   0.00000  Uiso   1.00
H51    H     0.14367   0.01376   0.06200   0.00000  Uiso   1.00
H52    H     0.10961   0.32189   0.01206   0.00000  Uiso   1.00
N53    N     0.31678   0.15265   0.23783   0.00000  Uiso   1.00
N54    N     0.01656   0.18068   0.26217   0.00000  Uiso   1.00
O55    O     0.12975   0.24619   0.25298   0.00000  Uiso   1.00
O56    O     0.07004   0.04998   0.04824   0.00000  Uiso   1.00
O57    O     0.24449   0.00794   0.26750   0.00000  Uiso   1.00
O58    O     0.08750   0.32844   0.27098   0.00000  Uiso   1.00
O59    O     0.01278   0.11839   0.21058   0.00000  Uiso   1.00
O60    O     0.32121   0.21566   0.28903   0.00000  Uiso   1.00
O61    O     0.20358   0.08714   0.24701   0.00000  Uiso   1.00
O62    O     0.22613   0.23721   0.24518   0.00000  Uiso   1.00
O63    O     0.10720   0.09613   0.25481   0.00000  Uiso   1.00
O64    O     0.11847   0.17117   0.31997   0.00000  Uiso   1.00
O65    O     0.21486   0.16216   0.18002   0.00000  Uiso   1.00
O66    O     0.21485   0.16219   0.31217   0.00000  Uiso   1.00
O67    O     0.11848   0.17115   0.18782   0.00000  Uiso   1.00
O68    O     0.26239   0.28380   0.45179   0.00000  Uiso   1.00
Zn69   Zn    0.10231   0.17266   0.25521   0.00000  Uiso   1.00
Zn70   Zn    0.23102   0.16067   0.24479   0.00000  Uiso   1.00
C71    C     0.51515   0.26495   0.25172   0.00000  Uiso   1.00
C72    C     0.53217   0.20539   0.40581   0.00000  Uiso   1.00
C73    C     0.49983   0.16654   0.11596   0.00000  Uiso   1.00
C74    C     0.49999   0.16681   0.38403   0.00000  Uiso   1.00
C75    C     0.53306   0.20448   0.09257   0.00000  Uiso   1.00
C76    C     0.46696   0.12871   0.40738   0.00000  Uiso   1.00
C77    C     0.53271   0.20546   0.04608   0.00000  Uiso   1.00
C78    C     0.46692   0.12798   0.45391   0.00000  Uiso   1.00
C79    C     0.49976   0.16664   0.02339   0.00000  Uiso   1.00
C80    C     0.49966   0.16693   0.47663   0.00000  Uiso   1.00
C81    C     0.46717   0.12740   0.04756   0.00000  Uiso   1.00
C82    C     0.48511   0.06911   0.25519   0.00000  Uiso   1.00
C83    C     0.53204   0.20630   0.45248   0.00000  Uiso   1.00
C84    C     0.56451   0.24446   0.02209   0.00000  Uiso   1.00
C85    C     0.43498   0.08906   0.47790   0.00000  Uiso   1.00
C86    C     0.56350   0.32822   0.45280   0.00000  Uiso   1.00
C87    C     0.43540   0.00542   0.04708   0.00000  Uiso   1.00
C88    C     0.61989   0.33088   0.23144   0.00000  Uiso   1.00
C89    C     0.39852   0.00980   0.31530   0.00000  Uiso   1.00
C90    C     0.65121   0.10886   0.17134   0.00000  Uiso   1.00
C91    C     0.34556   0.21980   0.33032   0.00000  Uiso   1.00
C92    C     0.56328   0.24579   0.47535   0.00000  Uiso   1.00
C93    C     0.43590   0.08793   0.02468   0.00000  Uiso   1.00
C94    C     0.52361   0.31977   0.25868   0.00000  Uiso   1.00
C95    C     0.47698   0.01562   0.26400   0.00000  Uiso   1.00
C96    C     0.50007   0.16682   0.33640   0.00000  Uiso   1.00
C97    C     0.49990   0.16649   0.16359   0.00000  Uiso   1.00
C98    C     0.46693   0.12840   0.09425   0.00000  Uiso   1.00
F99    F     0.59675   0.28132   0.04387   0.00000  Uiso   1.00
F100   F     0.40286   0.05215   0.45607   0.00000  Uiso   1.00
H101   H     0.44238   0.09915   0.11394   0.00000  Uiso   1.00
H102   H     0.41044   0.30909   0.06764   0.00000  Uiso   1.00
H103   H     0.60273   0.32934   0.19766   0.00000  Uiso   1.00
H104   H     0.64148   0.29504   0.23668   0.00000  Uiso   1.00
H105   H     0.65417   0.02863   0.23191   0.00000  Uiso   1.00
H106   H     0.39727   0.05240   0.32099   0.00000  Uiso   1.00
H107   H     0.42340   0.32712   0.34101   0.00000  Uiso   1.00
H108   H     0.35342   0.32760   0.32056   0.00000  Uiso   1.00
H109   H     0.64906   0.14516   0.15321   0.00000  Uiso   1.00
H110   H     0.60848   0.08900   0.17886   0.00000  Uiso   1.00
H111   H     0.34329   0.08214   0.14832   0.00000  Uiso   1.00
H112   H     0.55605   0.23504   0.38620   0.00000  Uiso   1.00
H113   H     0.38881   0.23937   0.32629   0.00000  Uiso   1.00
H114   H     0.34600   0.18133   0.34539   0.00000  Uiso   1.00
H115   H     0.65217   0.24440   0.35430   0.00000  Uiso   1.00
H116   H     0.55810   0.23356   0.11093   0.00000  Uiso   1.00
H117   H     0.44229   0.09941   0.38899   0.00000  Uiso   1.00
H118   H     0.55578   0.01179   0.48779   0.00000  Uiso   1.00
H119   H     0.52197   0.31968   0.43779   0.00000  Uiso   1.00
H120   H     0.58839   0.02457   0.43222   0.00000  Uiso   1.00
H121   H     0.47700   0.01376   0.06200   0.00000  Uiso   1.00
H122   H     0.44295   0.32189   0.01206   0.00000  Uiso   1.00
N123   N     0.65011   0.15265   0.23783   0.00000  Uiso   1.00
N124   N     0.34989   0.18068   0.26217   0.00000  Uiso   1.00
O125   O     0.46308   0.24619   0.25298   0.00000  Uiso   1.00
O126   O     0.40337   0.04998   0.04824   0.00000  Uiso   1.00
O127   O     0.57782   0.00794   0.26750   0.00000  Uiso   1.00
O128   O     0.42083   0.32844   0.27098   0.00000  Uiso   1.00
O129   O     0.34611   0.11839   0.21058   0.00000  Uiso   1.00
O130   O     0.65455   0.21566   0.28903   0.00000  Uiso   1.00
O131   O     0.53692   0.08714   0.24701   0.00000  Uiso   1.00
O132   O     0.55946   0.23721   0.24518   0.00000  Uiso   1.00
O133   O     0.44054   0.09613   0.25481   0.00000  Uiso   1.00
O134   O     0.45181   0.17117   0.31997   0.00000  Uiso   1.00
O135   O     0.54819   0.16216   0.18002   0.00000  Uiso   1.00
O136   O     0.54819   0.16219   0.31217   0.00000  Uiso   1.00
O137   O     0.45181   0.17115   0.18782   0.00000  Uiso   1.00
O138   O     0.59572   0.28380   0.45179   0.00000  Uiso   1.00
Zn139  Zn    0.43565   0.17266   0.25521   0.00000  Uiso   1.00
Zn140  Zn    0.56435   0.16067   0.24479   0.00000  Uiso   1.00
C141   C     0.84849   0.26495   0.25172   0.00000  Uiso   1.00
C142   C     0.86550   0.20539   0.40581   0.00000  Uiso   1.00
C143   C     0.83316   0.16654   0.11596   0.00000  Uiso   1.00
C144   C     0.83332   0.16681   0.38403   0.00000  Uiso   1.00
C145   C     0.86640   0.20448   0.09257   0.00000  Uiso   1.00
C146   C     0.80029   0.12871   0.40738   0.00000  Uiso   1.00
C147   C     0.86604   0.20546   0.04608   0.00000  Uiso   1.00
C148   C     0.80026   0.12798   0.45391   0.00000  Uiso   1.00
C149   C     0.83309   0.16664   0.02339   0.00000  Uiso   1.00
C150   C     0.83299   0.16693   0.47663   0.00000  Uiso   1.00
C151   C     0.80050   0.12740   0.04756   0.00000  Uiso   1.00
C152   C     0.81845   0.06911   0.25519   0.00000  Uiso   1.00
C153   C     0.86538   0.20630   0.45248   0.00000  Uiso   1.00
C154   C     0.89785   0.24446   0.02209   0.00000  Uiso   1.00
C155   C     0.76832   0.08906   0.47790   0.00000  Uiso   1.00
C156   C     0.89683   0.32822   0.45280   0.00000  Uiso   1.00
C157   C     0.76873   0.00542   0.04708   0.00000  Uiso   1.00
C158   C     0.95322   0.33088   0.23144   0.00000  Uiso   1.00
C159   C     0.73186   0.00980   0.31530   0.00000  Uiso   1.00
C160   C     0.98454   0.10886   0.17134   0.00000  Uiso   1.00
C161   C     0.67890   0.21980   0.33032   0.00000  Uiso   1.00
C162   C     0.89662   0.24579   0.47535   0.00000  Uiso   1.00
C163   C     0.76923   0.08793   0.02468   0.00000  Uiso   1.00
C164   C     0.85694   0.31977   0.25868   0.00000  Uiso   1.00
C165   C     0.81031   0.01562   0.26400   0.00000  Uiso   1.00
C166   C     0.83340   0.16682   0.33640   0.00000  Uiso   1.00
C167   C     0.83324   0.16649   0.16359   0.00000  Uiso   1.00
C168   C     0.80026   0.12840   0.09425   0.00000  Uiso   1.00
F169   F     0.93009   0.28132   0.04387   0.00000  Uiso   1.00
F170   F     0.73620   0.05215   0.45607   0.00000  Uiso   1.00
H171   H     0.77571   0.09915   0.11394   0.00000  Uiso   1.00
H172   H     0.74378   0.30909   0.06764   0.00000  Uiso   1.00
H173   H     0.93606   0.32934   0.19766   0.00000  Uiso   1.00
H174   H     0.97481   0.29504   0.23668   0.00000  Uiso   1.00
H175   H     0.98750   0.02863   0.23191   0.00000  Uiso   1.00
H176   H     0.73060   0.05240   0.32099   0.00000  Uiso   1.00
H177   H     0.75673   0.32712   0.34101   0.00000  Uiso   1.00
H178   H     0.68675   0.32760   0.32056   0.00000  Uiso   1.00
H179   H     0.98240   0.14516   0.15321   0.00000  Uiso   1.00
H180   H     0.94182   0.08900   0.17886   0.00000  Uiso   1.00
H181   H     0.67663   0.08214   0.14832   0.00000  Uiso   1.00
H182   H     0.88938   0.23504   0.38620   0.00000  Uiso   1.00
H183   H     0.72214   0.23937   0.32629   0.00000  Uiso   1.00
H184   H     0.67934   0.18133   0.34539   0.00000  Uiso   1.00
H185   H     0.98551   0.24440   0.35430   0.00000  Uiso   1.00
H186   H     0.89143   0.23356   0.11093   0.00000  Uiso   1.00
H187   H     0.77562   0.09941   0.38899   0.00000  Uiso   1.00
H188   H     0.88911   0.01179   0.48779   0.00000  Uiso   1.00
H189   H     0.85531   0.31968   0.43779   0.00000  Uiso   1.00
H190   H     0.92173   0.02457   0.43222   0.00000  Uiso   1.00
H191   H     0.81034   0.01376   0.06200   0.00000  Uiso   1.00
H192   H     0.77628   0.32189   0.01206   0.00000  Uiso   1.00
N193   N     0.98344   0.15265   0.23783   0.00000  Uiso   1.00
N194   N     0.68322   0.18068   0.26217   0.00000  Uiso   1.00
O195   O     0.79642   0.24619   0.25298   0.00000  Uiso   1.00
O196   O     0.73671   0.04998   0.04824   0.00000  Uiso   1.00
O197   O     0.91115   0.00794   0.26750   0.00000  Uiso   1.00
O198   O     0.75416   0.32844   0.27098   0.00000  Uiso   1.00
O199   O     0.67944   0.11839   0.21058   0.00000  Uiso   1.00
O200   O     0.98788   0.21566   0.28903   0.00000  Uiso   1.00
O201   O     0.87025   0.08714   0.24701   0.00000  Uiso   1.00
O202   O     0.89280   0.23721   0.24518   0.00000  Uiso   1.00
O203   O     0.77387   0.09613   0.25481   0.00000  Uiso   1.00
O204   O     0.78514   0.17117   0.31997   0.00000  Uiso   1.00
O205   O     0.88153   0.16216   0.18002   0.00000  Uiso   1.00
O206   O     0.88152   0.16219   0.31217   0.00000  Uiso   1.00
O207   O     0.78515   0.17115   0.18782   0.00000  Uiso   1.00
O208   O     0.92906   0.28380   0.45179   0.00000  Uiso   1.00
Zn209  Zn    0.76898   0.17266   0.25521   0.00000  Uiso   1.00
Zn210  Zn    0.89769   0.16067   0.24479   0.00000  Uiso   1.00
C211   C     0.18182   0.59829   0.25172   0.00000  Uiso   1.00
C212   C     0.19883   0.53872   0.40581   0.00000  Uiso   1.00
C213   C     0.16650   0.49987   0.11596   0.00000  Uiso   1.00
C214   C     0.16665   0.50014   0.38403   0.00000  Uiso   1.00
C215   C     0.19973   0.53781   0.09257   0.00000  Uiso   1.00
C216   C     0.13363   0.46205   0.40738   0.00000  Uiso   1.00
C217   C     0.19938   0.53879   0.04608   0.00000  Uiso   1.00
C218   C     0.13359   0.46131   0.45391   0.00000  Uiso   1.00
C219   C     0.16643   0.49997   0.02339   0.00000  Uiso   1.00
C220   C     0.16632   0.50026   0.47663   0.00000  Uiso   1.00
C221   C     0.13383   0.46074   0.04756   0.00000  Uiso   1.00
C222   C     0.15178   0.40245   0.25519   0.00000  Uiso   1.00
C223   C     0.19871   0.53963   0.45248   0.00000  Uiso   1.00
C224   C     0.23118   0.57780   0.02209   0.00000  Uiso   1.00
C225   C     0.10165   0.42240   0.47790   0.00000  Uiso   1.00
C226   C     0.23016   0.66155   0.45280   0.00000  Uiso   1.00
C227   C     0.10207   0.33875   0.04708   0.00000  Uiso   1.00
C228   C     0.28655   0.66421   0.23144   0.00000  Uiso   1.00
C229   C     0.06519   0.34314   0.31530   0.00000  Uiso   1.00
C230   C     0.31788   0.44220   0.17134   0.00000  Uiso   1.00
C231   C     0.01223   0.55313   0.33032   0.00000  Uiso   1.00
C232   C     0.22995   0.57912   0.47535   0.00000  Uiso   1.00
C233   C     0.10257   0.42126   0.02468   0.00000  Uiso   1.00
C234   C     0.19028   0.65311   0.25868   0.00000  Uiso   1.00
C235   C     0.14364   0.34895   0.26400   0.00000  Uiso   1.00
C236   C     0.16673   0.50016   0.33640   0.00000  Uiso   1.00
C237   C     0.16657   0.49982   0.16359   0.00000  Uiso   1.00
C238   C     0.13360   0.46173   0.09425   0.00000  Uiso   1.00
F239   F     0.26342   0.61465   0.04387   0.00000  Uiso   1.00
F240   F     0.06953   0.38548   0.45607   0.00000  Uiso   1.00
H241   H     0.10904   0.43248   0.11394   0.00000  Uiso   1.00
H242   H     0.07711   0.64242   0.06764   0.00000  Uiso   1.00
H243   H     0.26940   0.66267   0.19766   0.00000  Uiso   1.00
H244   H     0.30814   0.62837   0.23668   0.00000  Uiso   1.00
H245   H     0.32083   0.36196   0.23191   0.00000  Uiso   1.00
H246   H     0.06394   0.38574   0.32099   0.00000  Uiso   1.00
H247   H     0.09007   0.66046   0.34101   0.00000  Uiso   1.00
H248   H     0.02008   0.66094   0.32056   0.00000  Uiso   1.00
H249   H     0.31573   0.47849   0.15321   0.00000  Uiso   1.00
H250   H     0.27515   0.42234   0.17886   0.00000  Uiso   1.00
H251   H     0.00996   0.41547   0.14832   0.00000  Uiso   1.00
H252   H     0.22271   0.56837   0.38620   0.00000  Uiso   1.00
H253   H     0.05548   0.57271   0.32629   0.00000  Uiso   1.00
H254   H     0.01267   0.51466   0.34539   0.00000  Uiso   1.00
H255   H     0.31884   0.57774   0.35430   0.00000  Uiso   1.00
H256   H     0.22476   0.56690   0.11093   0.00000  Uiso   1.00
H257   H     0.10895   0.43274   0.38899   0.00000  Uiso   1.00
H258   H     0.22244   0.34513   0.48779   0.00000  Uiso   1.00
H259   H     0.18864   0.65302   0.43779   0.00000  Uiso   1.00
H260   H     0.25506   0.35790   0.43222   0.00000  Uiso   1.00
H261   H     0.14367   0.34710   0.06200   0.00000  Uiso   1.00
H262   H     0.10961   0.65522   0.01206   0.00000  Uiso   1.00
N263   N     0.31678   0.48598   0.23783   0.00000  Uiso   1.00
N264   N     0.01656   0.51402   0.26217   0.00000  Uiso   1.00
O265   O     0.12975   0.57952   0.25298   0.00000  Uiso   1.00
O266   O     0.07004   0.38331   0.04824   0.00000  Uiso   1.00
O267   O     0.24449   0.34128   0.26750   0.00000  Uiso   1.00
O268   O     0.08750   0.66178   0.27098   0.00000  Uiso   1.00
O269   O     0.01278   0.45172   0.21058   0.00000  Uiso   1.00
O270   O     0.32121   0.54899   0.28903   0.00000  Uiso   1.00
O271   O     0.20358   0.42048   0.24701   0.00000  Uiso   1.00
O272   O     0.22613   0.57054   0.24518   0.00000  Uiso   1.00
O273   O     0.10720   0.42946   0.25481   0.00000  Uiso   1.00
O274   O     0.11847   0.50450   0.31997   0.00000  Uiso   1.00
O275   O     0.21486   0.49550   0.18002   0.00000  Uiso   1.00
O276   O     0.21485   0.49552   0.31217   0.00000  Uiso   1.00
O277   O     0.11848   0.50448   0.18782   0.00000  Uiso   1.00
O278   O     0.26239   0.61713   0.45179   0.00000  Uiso   1.00
Zn279  Zn    0.10231   0.50600   0.25521   0.00000  Uiso   1.00
Zn280  Zn    0.23102   0.49400   0.24479   0.00000  Uiso   1.00
C281   C     0.51515   0.59829   0.25172   0.00000  Uiso   1.00
C282   C     0.53217   0.53872   0.40581   0.00000  Uiso   1.00
C283   C     0.49983   0.49987   0.11596   0.00000  Uiso   1.00
C284   C     0.49999   0.50014   0.38403   0.00000  Uiso   1.00
C285   C     0.53306   0.53781   0.09257   0.00000  Uiso   1.00
C286   C     0.46696   0.46205   0.40738   0.00000  Uiso   1.00
C287   C     0.53271   0.53879   0.04608   0.00000  Uiso   1.00
C288   C     0.46692   0.46131   0.45391   0.00000  Uiso   1.00
C289   C     0.49976   0.49997   0.02339   0.00000  Uiso   1.00
C290   C     0.49966   0.50026   0.47663   0.00000  Uiso   1.00
C291   C     0.46717   0.46074   0.04756   0.00000  Uiso   1.00
C292   C     0.48511   0.40245   0.25519   0.00000  Uiso   1.00
C293   C     0.53204   0.53963   0.45248   0.00000  Uiso   1.00
C294   C     0.56451   0.57780   0.02209   0.00000  Uiso   1.00
C295   C     0.43498   0.42240   0.47790   0.00000  Uiso   1.00
C296   C     0.56350   0.66155   0.45280   0.00000  Uiso   1.00
C297   C     0.43540   0.33875   0.04708   0.00000  Uiso   1.00
C298   C     0.61989   0.66421   0.23144   0.00000  Uiso   1.00
C299   C     0.39852   0.34314   0.31530   0.00000  Uiso   1.00
C300   C     0.65121   0.44220   0.17134   0.00000  Uiso   1.00
C301   C     0.34556   0.55313   0.33032   0.00000  Uiso   1.00
C302   C     0.56328   0.57912   0.47535   0.00000  Uiso   1.00
C303   C     0.43590   0.42126   0.02468   0.00000  Uiso   1.00
C304   C     0.52361   0.65311   0.25868   0.00000  Uiso   1.00
C305   C     0.47698   0.34895   0.26400   0.00000  Uiso   1.00
C306   C     0.50007   0.50016   0.33640   0.00000  Uiso   1.00
C307   C     0.49990   0.49982   0.16359   0.00000  Uiso   1.00
C308   C     0.46693   0.46173   0.09425   0.00000  Uiso   1.00
F309   F     0.59675   0.61465   0.04387   0.00000  Uiso   1.00
F310   F     0.40286   0.38548   0.45607   0.00000  Uiso   1.00
H311   H     0.44238   0.43248   0.11394   0.00000  Uiso   1.00
H312   H     0.41044   0.64242   0.06764   0.00000  Uiso   1.00
H313   H     0.60273   0.66267   0.19766   0.00000  Uiso   1.00
H314   H     0.64148   0.62837   0.23668   0.00000  Uiso   1.00
H315   H     0.65417   0.36196   0.23191   0.00000  Uiso   1.00
H316   H     0.39727   0.38574   0.32099   0.00000  Uiso   1.00
H317   H     0.42340   0.66046   0.34101   0.00000  Uiso   1.00
H318   H     0.35342   0.66094   0.32056   0.00000  Uiso   1.00
H319   H     0.64906   0.47849   0.15321   0.00000  Uiso   1.00
H320   H     0.60848   0.42234   0.17886   0.00000  Uiso   1.00
H321   H     0.34329   0.41547   0.14832   0.00000  Uiso   1.00
H322   H     0.55605   0.56837   0.38620   0.00000  Uiso   1.00
H323   H     0.38881   0.57271   0.32629   0.00000  Uiso   1.00
H324   H     0.34600   0.51466   0.34539   0.00000  Uiso   1.00
H325   H     0.65217   0.57774   0.35430   0.00000  Uiso   1.00
H326   H     0.55810   0.56690   0.11093   0.00000  Uiso   1.00
H327   H     0.44229   0.43274   0.38899   0.00000  Uiso   1.00
H328   H     0.55578   0.34513   0.48779   0.00000  Uiso   1.00
H329   H     0.52197   0.65302   0.43779   0.00000  Uiso   1.00
H330   H     0.58839   0.35790   0.43222   0.00000  Uiso   1.00
H331   H     0.47700   0.34710   0.06200   0.00000  Uiso   1.00
H332   H     0.44295   0.65522   0.01206   0.00000  Uiso   1.00
N333   N     0.65011   0.48598   0.23783   0.00000  Uiso   1.00
N334   N     0.34989   0.51402   0.26217   0.00000  Uiso   1.00
O335   O     0.46308   0.57952   0.25298   0.00000  Uiso   1.00
O336   O     0.40337   0.38331   0.04824   0.00000  Uiso   1.00
O337   O     0.57782   0.34128   0.26750   0.00000  Uiso   1.00
O338   O     0.42083   0.66178   0.27098   0.00000  Uiso   1.00
O339   O     0.34611   0.45172   0.21058   0.00000  Uiso   1.00
O340   O     0.65455   0.54899   0.28903   0.00000  Uiso   1.00
O341   O     0.53692   0.42048   0.24701   0.00000  Uiso   1.00
O342   O     0.55946   0.57054   0.24518   0.00000  Uiso   1.00
O343   O     0.44054   0.42946   0.25481   0.00000  Uiso   1.00
O344   O     0.45181   0.50450   0.31997   0.00000  Uiso   1.00
O345   O     0.54819   0.49550   0.18002   0.00000  Uiso   1.00
O346   O     0.54819   0.49552   0.31217   0.00000  Uiso   1.00
O347   O     0.45181   0.50448   0.18782   0.00000  Uiso   1.00
O348   O     0.59572   0.61713   0.45179   0.00000  Uiso   1.00
Zn349  Zn    0.43565   0.50600   0.25521   0.00000  Uiso   1.00
Zn350  Zn    0.56435   0.49400   0.24479   0.00000  Uiso   1.00
C351   C     0.84849   0.59829   0.25172   0.00000  Uiso   1.00
C352   C     0.86550   0.53872   0.40581   0.00000  Uiso   1.00
C353   C     0.83316   0.49987   0.11596   0.00000  Uiso   1.00
C354   C     0.83332   0.50014   0.38403   0.00000  Uiso   1.00
C355   C     0.86640   0.53781   0.09257   0.00000  Uiso   1.00
C356   C     0.80029   0.46205   0.40738   0.00000  Uiso   1.00
C357   C     0.86604   0.53879   0.04608   0.00000  Uiso   1.00
C358   C     0.80026   0.46131   0.45391   0.00000  Uiso   1.00
C359   C     0.83309   0.49997   0.02339   0.00000  Uiso   1.00
C360   C     0.83299   0.50026   0.47663   0.00000  Uiso   1.00
C361   C     0.80050   0.46074   0.04756   0.00000  Uiso   1.00
C362   C     0.81845   0.40245   0.25519   0.00000  Uiso   1.00
C363   C     0.86538   0.53963   0.45248   0.00000  Uiso   1.00
C364   C     0.89785   0.57780   0.02209   0.00000  Uiso   1.00
C365   C     0.76832   0.42240   0.47790   0.00000  Uiso   1.00
C366   C     0.89683   0.66155   0.45280   0.00000  Uiso   1.00
C367   C     0.76873   0.33875   0.04708   0.00000  Uiso   1.00
C368   C     0.95322   0.66421   0.23144   0.00000  Uiso   1.00
C369   C     0.73186   0.34314   0.31530   0.00000  Uiso   1.00
C370   C     0.98454   0.44220   0.17134   0.00000  Uiso   1.00
C371   C     0.67890   0.55313   0.33032   0.00000  Uiso   1.00
C372   C     0.89662   0.57912   0.47535   0.00000  Uiso   1.00
C373   C     0.76923   0.42126   0.02468   0.00000  Uiso   1.00
C374   C     0.85694   0.65311   0.25868   0.00000  Uiso   1.00
C375   C     0.81031   0.34895   0.26400   0.00000  Uiso   1.00
C376   C     0.83340   0.50016   0.33640   0.00000  Uiso   1.00
C377   C     0.83324   0.49982   0.16359   0.00000  Uiso   1.00
C378   C     0.80026   0.46173   0.09425   0.00000  Uiso   1.00
F379   F     0.93009   0.61465   0.04387   0.00000  Uiso   1.00
F380   F     0.73620   0.38548   0.45607   0.00000  Uiso   1.00
H381   H     0.77571   0.43248   0.11394   0.00000  Uiso   1.00
H382   H     0.74378   0.64242   0.06764   0.00000  Uiso   1.00
H383   H     0.93606   0.66267   0.19766   0.00000  Uiso   1.00
H384   H     0.97481   0.62837   0.23668   0.00000  Uiso   1.00
H385   H     0.98750   0.36196   0.23191   0.00000  Uiso   1.00
H386   H     0.73060   0.38574   0.32099   0.00000  Uiso   1.00
H387   H     0.75673   0.66046   0.34101   0.00000  Uiso   1.00
H388   H     0.68675   0.66094   0.32056   0.00000  Uiso   1.00
H389   H     0.98240   0.47849   0.15321   0.00000  Uiso   1.00
H390   H     0.94182   0.42234   0.17886   0.00000  Uiso   1.00
H391   H     0.67663   0.41547   0.14832   0.00000  Uiso   1.00
H392   H     0.88938   0.56837   0.38620   0.00000  Uiso   1.00
H393   H     0.72214   0.57271   0.32629   0.00000  Uiso   1.00
H394   H     0.67934   0.51466   0.34539   0.00000  Uiso   1.00
H395   H     0.98551   0.57774   0.35430   0.00000  Uiso   1.00
H396   H     0.89143   0.56690   0.11093   0.00000  Uiso   1.00
H397   H     0.77562   0.43274   0.38899   0.00000  Uiso   1.00
H398   H     0.88911   0.34513   0.48779   0.00000  Uiso   1.00
H399   H     0.85531   0.65302   0.43779   0.00000  Uiso   1.00
H400   H     0.92173   0.35790   0.43222   0.00000  Uiso   1.00
H401   H     0.81034   0.34710   0.06200   0.00000  Uiso   1.00
H402   H     0.77628   0.65522   0.01206   0.00000  Uiso   1.00
N403   N     0.98344   0.48598   0.23783   0.00000  Uiso   1.00
N404   N     0.68322   0.51402   0.26217   0.00000  Uiso   1.00
O405   O     0.79642   0.57952   0.25298   0.00000  Uiso   1.00
O406   O     0.73671   0.38331   0.04824   0.00000  Uiso   1.00
O407   O     0.91115   0.34128   0.26750   0.00000  Uiso   1.00
O408   O     0.75416   0.66178   0.27098   0.00000  Uiso   1.00
O409   O     0.67944   0.45172   0.21058   0.00000  Uiso   1.00
O410   O     0.98788   0.54899   0.28903   0.00000  Uiso   1.00
O411   O     0.87025   0.42048   0.24701   0.00000  Uiso   1.00
O412   O     0.89280   0.57054   0.24518   0.00000  Uiso   1.00
O413   O     0.77387   0.42946   0.25481   0.00000  Uiso   1.00
O414   O     0.78514   0.50450   0.31997   0.00000  Uiso   1.00
O415   O     0.88153   0.49550   0.18002   0.00000  Uiso   1.00
O416   O     0.88152   0.49552   0.31217   0.00000  Uiso   1.00
O417   O     0.78515   0.50448   0.18782   0.00000  Uiso   1.00
O418   O     0.92906   0.61713   0.45179   0.00000  Uiso   1.00
Zn419  Zn    0.76898   0.50600   0.25521   0.00000  Uiso   1.00
Zn420  Zn    0.89769   0.49400   0.24479   0.00000  Uiso   1.00
C421   C     0.18182   0.93162   0.25172   0.00000  Uiso   1.00
C422   C     0.19883   0.87205   0.40581   0.00000  Uiso   1.00
C423   C     0.16650   0.83321   0.11596   0.00000  Uiso   1.00
C424   C     0.16665   0.83347   0.38403   0.00000  Uiso   1.00
C425   C     0.19973   0.87115   0.09257   0.00000  Uiso   1.00
C426   C     0.13363   0.79538   0.40738   0.00000  Uiso   1.00
C427   C     0.19938   0.87212   0.04608   0.00000  Uiso   1.00
C428   C     0.13359   0.79465   0.45391   0.00000  Uiso   1.00
C429   C     0.16643   0.83331   0.02339   0.00000  Uiso   1.00
C430   C     0.16632   0.83360   0.47663   0.00000  Uiso   1.00
C431   C     0.13383   0.79407   0.04756   0.00000  Uiso   1.00
C432   C     0.15178   0.73578   0.25519   0.00000  Uiso   1.00
C433   C     0.19871   0.87297   0.45248   0.00000  Uiso   1.00
C434   C     0.23118   0.91113   0.02209   0.00000  Uiso   1.00
C435   C     0.10165   0.75573   0.47790   0.00000  Uiso   1.00
C436   C     0.23016   0.99488   0.45280   0.00000  Uiso   1.00
C437   C     0.10207   0.67208   0.04708   0.00000  Uiso   1.00
C438   C     0.28655   0.99755   0.23144   0.00000  Uiso   1.00
C439   C     0.06519   0.67647   0.31530   0.00000  Uiso   1.00
C440   C     0.31788   0.77553   0.17134   0.00000  Uiso   1.00
C441   C     0.01223   0.88647   0.33032   0.00000  Uiso   1.00
C442   C     0.22995   0.91246   0.47535   0.00000  Uiso   1.00
C443   C     0.10257   0.75460   0.02468   0.00000  Uiso   1.00
C444   C     0.19028   0.98644   0.25868   0.00000  Uiso   1.00
C445   C     0.14364   0.68229   0.26400   0.00000  Uiso   1.00
C446   C     0.16673   0.83349   0.33640   0.00000  Uiso   1.00
C447   C     0.16657   0.83316   0.16359   0.00000  Uiso   1.00
C448   C     0.13360   0.79507   0.09425   0.00000  Uiso   1.00
F449   F     0.26342   0.94799   0.04387   0.00000  Uiso   1.00
F450   F     0.06953   0.71881   0.45607   0.00000  Uiso   1.00
H451   H     0.10904   0.76581   0.11394   0.00000  Uiso   1.00
H452   H     0.07711   0.97576   0.06764   0.00000  Uiso   1.00
H453   H     0.26940   0.99601   0.19766   0.00000  Uiso   1.00
H454   H     0.30814   0.96171   0.23668   0.00000  Uiso   1.00
H455   H     0.32083   0.69530   0.23191   0.00000  Uiso   1.00
H456   H     0.06394   0.71907   0.32099   0.00000  Uiso   1.00
H457   H     0.09007   0.99379   0.34101   0.00000  Uiso   1.00
H458   H     0.02008   0.99427   0.32056   0.00000  Uiso   1.00
H459   H     0.31573   0.81182   0.15321   0.00000  Uiso   1.00
H460   H     0.27515   0.75567   0.17886   0.00000  Uiso   1.00
H461   H     0.00996   0.74880   0.14832   0.00000  Uiso   1.00
H462   H     0.22271   0.90170   0.38620   0.00000  Uiso   1.00
H463   H     0.05548   0.90604   0.32629   0.00000  Uiso   1.00
H464   H     0.01267   0.84799   0.34539   0.00000  Uiso   1.00
H465   H     0.31884   0.91107   0.35430   0.00000  Uiso   1.00
H466   H     0.22476   0.90023   0.11093   0.00000  Uiso   1.00
H467   H     0.10895   0.76608   0.38899   0.00000  Uiso   1.00
H468   H     0.22244   0.67846   0.48779   0.00000  Uiso   1.00
H469   H     0.18864   0.98635   0.43779   0.00000  Uiso   1.00
H470   H     0.25506   0.69124   0.43222   0.00000  Uiso   1.00
H471   H     0.14367   0.68043   0.06200   0.00000  Uiso   1.00
H472   H     0.10961   0.98855   0.01206   0.00000  Uiso   1.00
N473   N     0.31678   0.81932   0.23783   0.00000  Uiso   1.00
N474   N     0.01656   0.84735   0.26217   0.00000  Uiso   1.00
O475   O     0.12975   0.91286   0.25298   0.00000  Uiso   1.00
O476   O     0.07004   0.71664   0.04824   0.00000  Uiso   1.00
O477   O     0.24449   0.67461   0.26750   0.00000  Uiso   1.00
O478   O     0.08750   0.99511   0.27098   0.00000  Uiso   1.00
O479   O     0.01278   0.78506   0.21058   0.00000  Uiso   1.00
O480   O     0.32121   0.88232   0.28903   0.00000  Uiso   1.00
O481   O     0.20358   0.75381   0.24701   0.00000  Uiso   1.00
O482   O     0.22613   0.90387   0.24518   0.00000  Uiso   1.00
O483   O     0.10720   0.76279   0.25481   0.00000  Uiso   1.00
O484   O     0.11847   0.83784   0.31997   0.00000  Uiso   1.00
O485   O     0.21486   0.82883   0.18002   0.00000  Uiso   1.00
O486   O     0.21485   0.82885   0.31217   0.00000  Uiso   1.00
O487   O     0.11848   0.83781   0.18782   0.00000  Uiso   1.00
O488   O     0.26239   0.95046   0.45179   0.00000  Uiso   1.00
Zn489  Zn    0.10231   0.83933   0.25521   0.00000  Uiso   1.00
Zn490  Zn    0.23102   0.82734   0.24479   0.00000  Uiso   1.00
C491   C     0.51515   0.93162   0.25172   0.00000  Uiso   1.00
C492   C     0.53217   0.87205   0.40581   0.00000  Uiso   1.00
C493   C     0.49983   0.83321   0.11596   0.00000  Uiso   1.00
C494   C     0.49999   0.83347   0.38403   0.00000  Uiso   1.00
C495   C     0.53306   0.87115   0.09257   0.00000  Uiso   1.00
C496   C     0.46696   0.79538   0.40738   0.00000  Uiso   1.00
C497   C     0.53271   0.87212   0.04608   0.00000  Uiso   1.00
C498   C     0.46692   0.79465   0.45391   0.00000  Uiso   1.00
C499   C     0.49976   0.83331   0.02339   0.00000  Uiso   1.00
C500   C     0.49966   0.83360   0.47663   0.00000  Uiso   1.00
C501   C     0.46717   0.79407   0.04756   0.00000  Uiso   1.00
C502   C     0.48511   0.73578   0.25519   0.00000  Uiso   1.00
C503   C     0.53204   0.87297   0.45248   0.00000  Uiso   1.00
C504   C     0.56451   0.91113   0.02209   0.00000  Uiso   1.00
C505   C     0.43498   0.75573   0.47790   0.00000  Uiso   1.00
C506   C     0.56350   0.99488   0.45280   0.00000  Uiso   1.00
C507   C     0.43540   0.67208   0.04708   0.00000  Uiso   1.00
C508   C     0.61989   0.99755   0.23144   0.00000  Uiso   1.00
C509   C     0.39852   0.67647   0.31530   0.00000  Uiso   1.00
C510   C     0.65121   0.77553   0.17134   0.00000  Uiso   1.00
C511   C     0.34556   0.88647   0.33032   0.00000  Uiso   1.00
C512   C     0.56328   0.91246   0.47535   0.00000  Uiso   1.00
C513   C     0.43590   0.75460   0.02468   0.00000  Uiso   1.00
C514   C     0.52361   0.98644   0.25868   0.00000  Uiso   1.00
C515   C     0.47698   0.68229   0.26400   0.00000  Uiso   1.00
C516   C     0.50007   0.83349   0.33640   0.00000  Uiso   1.00
C517   C     0.49990   0.83316   0.16359   0.00000  Uiso   1.00
C518   C     0.46693   0.79507   0.09425   0.00000  Uiso   1.00
F519   F     0.59675   0.94799   0.04387   0.00000  Uiso   1.00
F520   F     0.40286   0.71881   0.45607   0.00000  Uiso   1.00
H521   H     0.44238   0.76581   0.11394   0.00000  Uiso   1.00
H522   H     0.41044   0.97576   0.06764   0.00000  Uiso   1.00
H523   H     0.60273   0.99601   0.19766   0.00000  Uiso   1.00
H524   H     0.64148   0.96171   0.23668   0.00000  Uiso   1.00
H525   H     0.65417   0.69530   0.23191   0.00000  Uiso   1.00
H526   H     0.39727   0.71907   0.32099   0.00000  Uiso   1.00
H527   H     0.42340   0.99379   0.34101   0.00000  Uiso   1.00
H528   H     0.35342   0.99427   0.32056   0.00000  Uiso   1.00
H529   H     0.64906   0.81182   0.15321   0.00000  Uiso   1.00
H530   H     0.60848   0.75567   0.17886   0.00000  Uiso   1.00
H531   H     0.34329   0.74880   0.14832   0.00000  Uiso   1.00
H532   H     0.55605   0.90170   0.38620   0.00000  Uiso   1.00
H533   H     0.38881   0.90604   0.32629   0.00000  Uiso   1.00
H534   H     0.34600   0.84799   0.34539   0.00000  Uiso   1.00
H535   H     0.65217   0.91107   0.35430   0.00000  Uiso   1.00
H536   H     0.55810   0.90023   0.11093   0.00000  Uiso   1.00
H537   H     0.44229   0.76608   0.38899   0.00000  Uiso   1.00
H538   H     0.55578   0.67846   0.48779   0.00000  Uiso   1.00
H539   H     0.52197   0.98635   0.43779   0.00000  Uiso   1.00
H540   H     0.58839   0.69124   0.43222   0.00000  Uiso   1.00
H541   H     0.47700   0.68043   0.06200   0.00000  Uiso   1.00
H542   H     0.44295   0.98855   0.01206   0.00000  Uiso   1.00
N543   N     0.65011   0.81932   0.23783   0.00000  Uiso   1.00
N544   N     0.34989   0.84735   0.26217   0.00000  Uiso   1.00
O545   O     0.46308   0.91286   0.25298   0.00000  Uiso   1.00
O546   O     0.40337   0.71664   0.04824   0.00000  Uiso   1.00
O547   O     0.57782   0.67461   0.26750   0.00000  Uiso   1.00
O548   O     0.42083   0.99511   0.27098   0.00000  Uiso   1.00
O549   O     0.34611   0.78506   0.21058   0.00000  Uiso   1.00
O550   O     0.65455   0.88232   0.28903   0.00000  Uiso   1.00
O551   O     0.53692   0.75381   0.24701   0.00000  Uiso   1.00
O552   O     0.55946   0.90387   0.24518   0.00000  Uiso   1.00
O553   O     0.44054   0.76279   0.25481   0.00000  Uiso   1.00
O554   O     0.45181   0.83784   0.31997   0.00000  Uiso   1.00
O555   O     0.54819   0.82883   0.18002   0.00000  Uiso   1.00
O556   O     0.54819   0.82885   0.31217   0.00000  Uiso   1.00
O557   O     0.45181   0.83781   0.18782   0.00000  Uiso   1.00
O558   O     0.59572   0.95046   0.45179   0.00000  Uiso   1.00
Zn559  Zn    0.43565   0.83933   0.25521   0.00000  Uiso   1.00
Zn560  Zn    0.56435   0.82734   0.24479   0.00000  Uiso   1.00
C561   C     0.84849   0.93162   0.25172   0.00000  Uiso   1.00
C562   C     0.86550   0.87205   0.40581   0.00000  Uiso   1.00
C563   C     0.83316   0.83321   0.11596   0.00000  Uiso   1.00
C564   C     0.83332   0.83347   0.38403   0.00000  Uiso   1.00
C565   C     0.86640   0.87115   0.09257   0.00000  Uiso   1.00
C566   C     0.80029   0.79538   0.40738   0.00000  Uiso   1.00
C567   C     0.86604   0.87212   0.04608   0.00000  Uiso   1.00
C568   C     0.80026   0.79465   0.45391   0.00000  Uiso   1.00
C569   C     0.83309   0.83331   0.02339   0.00000  Uiso   1.00
C570   C     0.83299   0.83360   0.47663   0.00000  Uiso   1.00
C571   C     0.80050   0.79407   0.04756   0.00000  Uiso   1.00
C572   C     0.81845   0.73578   0.25519   0.00000  Uiso   1.00
C573   C     0.86538   0.87297   0.45248   0.00000  Uiso   1.00
C574   C     0.89785   0.91113   0.02209   0.00000  Uiso   1.00
C575   C     0.76832   0.75573   0.47790   0.00000  Uiso   1.00
C576   C     0.89683   0.99488   0.45280   0.00000  Uiso   1.00
C577   C     0.76873   0.67208   0.04708   0.00000  Uiso   1.00
C578   C     0.95322   0.99755   0.23144   0.00000  Uiso   1.00
C579   C     0.73186   0.67647   0.31530   0.00000  Uiso   1.00
C580   C     0.98454   0.77553   0.17134   0.00000  Uiso   1.00
C581   C     0.67890   0.88647   0.33032   0.00000  Uiso   1.00
C582   C     0.89662   0.91246   0.47535   0.00000  Uiso   1.00
C583   C     0.76923   0.75460   0.02468   0.00000  Uiso   1.00
C584   C     0.85694   0.98644   0.25868   0.00000  Uiso   1.00
C585   C     0.81031   0.68229   0.26400   0.00000  Uiso   1.00
C586   C     0.83340   0.83349   0.33640   0.00000  Uiso   1.00
C587   C     0.83324   0.83316   0.16359   0.00000  Uiso   1.00
C588   C     0.80026   0.79507   0.09425   0.00000  Uiso   1.00
F589   F     0.93009   0.94799   0.04387   0.00000  Uiso   1.00
F590   F     0.73620   0.71881   0.45607   0.00000  Uiso   1.00
H591   H     0.77571   0.76581   0.11394   0.00000  Uiso   1.00
H592   H     0.74378   0.97576   0.06764   0.00000  Uiso   1.00
H593   H     0.93606   0.99601   0.19766   0.00000  Uiso   1.00
H594   H     0.97481   0.96171   0.23668   0.00000  Uiso   1.00
H595   H     0.98750   0.69530   0.23191   0.00000  Uiso   1.00
H596   H     0.73060   0.71907   0.32099   0.00000  Uiso   1.00
H597   H     0.75673   0.99379   0.34101   0.00000  Uiso   1.00
H598   H     0.68675   0.99427   0.32056   0.00000  Uiso   1.00
H599   H     0.98240   0.81182   0.15321   0.00000  Uiso   1.00
H600   H     0.94182   0.75567   0.17886   0.00000  Uiso   1.00
H601   H     0.67663   0.74880   0.14832   0.00000  Uiso   1.00
H602   H     0.88938   0.90170   0.38620   0.00000  Uiso   1.00
H603   H     0.72214   0.90604   0.32629   0.00000  Uiso   1.00
H604   H     0.67934   0.84799   0.34539   0.00000  Uiso   1.00
H605   H     0.98551   0.91107   0.35430   0.00000  Uiso   1.00
H606   H     0.89143   0.90023   0.11093   0.00000  Uiso   1.00
H607   H     0.77562   0.76608   0.38899   0.00000  Uiso   1.00
H608   H     0.88911   0.67846   0.48779   0.00000  Uiso   1.00
H609   H     0.85531   0.98635   0.43779   0.00000  Uiso   1.00
H610   H     0.92173   0.69124   0.43222   0.00000  Uiso   1.00
H611   H     0.81034   0.68043   0.06200   0.00000  Uiso   1.00
H612   H     0.77628   0.98855   0.01206   0.00000  Uiso   1.00
N613   N     0.98344   0.81932   0.23783   0.00000  Uiso   1.00
N614   N     0.68322   0.84735   0.26217   0.00000  Uiso   1.00
O615   O     0.79642   0.91286   0.25298   0.00000  Uiso   1.00
O616   O     0.73671   0.71664   0.04824   0.00000  Uiso   1.00
O617   O     0.91115   0.67461   0.26750   0.00000  Uiso   1.00
O618   O     0.75416   0.99511   0.27098   0.00000  Uiso   1.00
O619   O     0.67944   0.78506   0.21058   0.00000  Uiso   1.00
O620   O     0.98788   0.88232   0.28903   0.00000  Uiso   1.00
O621   O     0.87025   0.75381   0.24701   0.00000  Uiso   1.00
O622   O     0.89280   0.90387   0.24518   0.00000  Uiso   1.00
O623   O     0.77387   0.76279   0.25481   0.00000  Uiso   1.00
O624   O     0.78514   0.83784   0.31997   0.00000  Uiso   1.00
O625   O     0.88153   0.82883   0.18002   0.00000  Uiso   1.00
O626   O     0.88152   0.82885   0.31217   0.00000  Uiso   1.00
O627   O     0.78515   0.83781   0.18782   0.00000  Uiso   1.00
O628   O     0.92906   0.95046   0.45179   0.00000  Uiso   1.00
Zn629  Zn    0.76898   0.83933   0.25521   0.00000  Uiso   1.00
Zn630  Zn    0.89769   0.82734   0.24479   0.00000  Uiso   1.00
C631   C     0.18182   0.26495   0.75172   0.00000  Uiso   1.00
C632   C     0.19883   0.20539   0.90581   0.00000  Uiso   1.00
C633   C     0.16650   0.16654   0.61596   0.00000  Uiso   1.00
C634   C     0.16665   0.16681   0.88403   0.00000  Uiso   1.00
C635   C     0.19973   0.20448   0.59257   0.00000  Uiso   1.00
C636   C     0.13363   0.12871   0.90738   0.00000  Uiso   1.00
C637   C     0.19938   0.20546   0.54608   0.00000  Uiso   1.00
C638   C     0.13359   0.12798   0.95391   0.00000  Uiso   1.00
C639   C     0.16643   0.16664   0.52339   0.00000  Uiso   1.00
C640   C     0.16632   0.16693   0.97663   0.00000  Uiso   1.00
C641   C     0.13383   0.12740   0.54756   0.00000  Uiso   1.00
C642   C     0.15178   0.06911   0.75519   0.00000  Uiso   1.00
C643   C     0.19871   0.20630   0.95248   0.00000  Uiso   1.00
C644   C     0.23118   0.24446   0.52209   0.00000  Uiso   1.00
C645   C     0.10165   0.08906   0.97790   0.00000  Uiso   1.00
C646   C     0.23016   0.32822   0.95280   0.00000  Uiso   1.00
C647   C     0.10207   0.00542   0.54708   0.00000  Uiso   1.00
C648   C     0.28655   0.33088   0.73144   0.00000  Uiso   1.00
C649   C     0.06519   0.00980   0.81530   0.00000  Uiso   1.00
C650   C     0.31788   0.10886   0.67134   0.00000  Uiso   1.00
C651   C     0.01223   0.21980   0.83032   0.00000  Uiso   1.00
C652   C     0.22995   0.24579   0.97535   0.00000  Uiso   1.00
C653   C     0.10257   0.08793   0.52468   0.00000  Uiso   1.00
C654   C     0.19028   0.31977   0.75868   0.00000  Uiso   1.00
C655   C     0.14364   0.01562   0.76400   0.00000  Uiso   1.00
C656   C     0.16673   0.16682   0.83640   0.00000  Uiso   1.00
C657   C     0.16657   0.16649   0.66359   0.00000  Uiso   1.00
C658   C     0.13360   0.12840   0.59425   0.00000  Uiso   1.00
F659   F     0.26342   0.28132   0.54387   0.00000  Uiso   1.00
F660   F     0.06953   0.05215   0.95607   0.00000  Uiso   1.00
H661   H     0.10904   0.09915   0.61394   0.00000  Uiso   1.00
H662   H     0.07711   0.30909   0.56764   0.00000  Uiso   1.00
H663   H     0.26940   0.32934   0.69766   0.00000  Uiso   1.00
H664   H     0.30814   0.29504   0.73668   0.00000  Uiso   1.00
H665   H     0.32083   0.02863   0.73191   0.00000  Uiso   1.00
H666   H     0.06394   0.05240   0.82099   0.00000  Uiso   1.00
H667   H     0.09007   0.32712   0.84101   0.00000  Uiso   1.00
H668   H     0.02008   0.32760   0.82056   0.00000  Uiso   1.00
H669   H     0.31573   0.14516   0.65321   0.00000  Uiso   1.00
H670   H     0.27515   0.08900   0.67886   0.00000  Uiso   1.00
H671   H     0.00996   0.08214   0.64832   0.00000  Uiso   1.00
H672   H     0.22271   0.23504   0.88620   0.00000  Uiso   1.00
H673   H     0.05548   0.23937   0.82629   0.00000  Uiso   1.00
H674   H     0.01267   0.18133   0.84539   0.00000  Uiso   1.00
H675   H     0.31884   0.24440   0.85430   0.00000  Uiso   1.00
H676   H     0.22476   0.23356   0.61093   0.00000  Uiso   1.00
H677   H     0.10895   0.09941   0.88899   0.00000  Uiso   1.00
H678   H     0.22244   0.01179   0.98779   0.00000  Uiso   1.00
H679   H     0.18864   0.31968   0.93779   0.00000  Uiso   1.00
H680   H     0.25506   0.02457   0.93222   0.00000  Uiso   1.00
H681   H     0.14367   0.01376   0.56200   0.00000  Uiso   1.00
H682   H     0.10961   0.32189   0.51206   0.00000  Uiso   1.00
N683   N     0.31678   0.15265   0.73783   0.00000  Uiso   1.00
N684   N     0.01656   0.18068   0.76217   0.00000  Uiso   1.00
O685   O     0.12975   0.24619   0.75298   0.00000  Uiso   1.00
O686   O     0.07004   0.04998   0.54824   0.00000  Uiso   1.00
O687   O     0.24449   0.00794   0.76750   0.00000  Uiso   1.00
O688   O     0.08750   0.32844   0.77098   0.00000  Uiso   1.00
O689   O     0.01278   0.11839   0.71058   0.00000  Uiso   1.00
O690   O     0.32121   0.21566   0.78903   0.00000  Uiso   1.00
O691   O     0.20358   0.08714   0.74701   0.00000  Uiso   1.00
O692   O     0.22613   0.23721   0.74518   0.00000  Uiso   1.00
O693   O     0.10720   0.09613   0.75481   0.00000  Uiso   1.00
O694   O     0.11847   0.17117   0.81997   0.00000  Uiso   1.00
O695   O     0.21486   0.16216   0.68002   0.00000  Uiso   1.00
O696   O     0.21485   0.16219   0.81217   0.00000  Uiso   1.00
O697   O     0.11848   0.17115   0.68782   0.00000  Uiso   1.00
O698   O     0.26239   0.28380   0.95179   0.00000  Uiso   1.00
Zn699  Zn    0.10231   0.17266   0.75521   0.00000  Uiso   1.00
Zn700  Zn    0.23102   0.16067   0.74479   0.00000  Uiso   1.00
C701   C     0.51515   0.26495   0.75172   0.00000  Uiso   1.00
C702   C     0.53217   0.20539   0.90581   0.00000  Uiso   1.00
C703   C     0.49983   0.16654   0.61596   0.00000  Uiso   1.00
C704   C     0.49999   0.16681   0.88403   0.00000  Uiso   1.00
C705   C     0.53306   0.20448   0.59257   0.00000  Uiso   1.00
C706   C     0.46696   0.12871   0.90738   0.00000  Uiso   1.00
C707   C     0.53271   0.20546   0.54608   0.00000  Uiso   1.00
C708   C     0.46692   0.12798   0.95391   0.00000  Uiso   1.00
C709   C     0.49976   0.16664   0.52339   0.00000  Uiso   1.00
C710   C     0.49966   0.16693   0.97663   0.00000  Uiso   1.00
C711   C     0.46717   0.12740   0.54756   0.00000  Uiso   1.00
C712   C     0.48511   0.06911   0.75519   0.00000  Uiso   1.00
C713   C     0.53204   0.20630   0.95248   0.00000  Uiso   1.00
C714   C     0.56451   0.24446   0.52209   0.00000  Uiso   1.00
C715   C     0.43498   0.08906   0.97790   0.00000  Uiso   1.00
C716   C     0.56350   0.32822   0.95280   0.00000  Uiso   1.00
C717   C     0.43540   0.00542   0.54708   0.00000  Uiso   1.00
C718   C     0.61989   0.33088   0.73144   0.00000  Uiso   1.00
C719   C     0.39852   0.00980   0.81530   0.00000  Uiso   1.00
C720   C     0.65121   0.10886   0.67134   0.00000  Uiso   1.00
C721   C     0.34556   0.21980   0.83032   0.00000  Uiso   1.00
C722   C     0.56328   0.24579   0.97535   0.00000  Uiso   1.00
C723   C     0.43590   0.08793   0.52468   0.00000  Uiso   1.00
C724   C     0.52361   0.31977   0.75868   0.00000  Uiso   1.00
C725   C     0.47698   0.01562   0.76400   0.00000  Uiso   1.00
C726   C     0.50007   0.16682   0.83640   0.00000  Uiso   1.00
C727   C     0.49990   0.16649   0.66359   0.00000  Uiso   1.00
C728   C     0.46693   0.12840   0.59425   0.00000  Uiso   1.00
F729   F     0.59675   0.28132   0.54387   0.00000  Uiso   1.00
F730   F     0.40286   0.05215   0.95607   0.00000  Uiso   1.00
H731   H     0.44238   0.09915   0.61394   0.00000  Uiso   1.00
H732   H     0.41044   0.30909   0.56764   0.00000  Uiso   1.00
H733   H     0.60273   0.32934   0.69766   0.00000  Uiso   1.00
H734   H     0.64148   0.29504   0.73668   0.00000  Uiso   1.00
H735   H     0.65417   0.02863   0.73191   0.00000  Uiso   1.00
H736   H     0.39727   0.05240   0.82099   0.00000  Uiso   1.00
H737   H     0.42340   0.32712   0.84101   0.00000  Uiso   1.00
H738   H     0.35342   0.32760   0.82056   0.00000  Uiso   1.00
H739   H     0.64906   0.14516   0.65321   0.00000  Uiso   1.00
H740   H     0.60848   0.08900   0.67886   0.00000  Uiso   1.00
H741   H     0.34329   0.08214   0.64832   0.00000  Uiso   1.00
H742   H     0.55605   0.23504   0.88620   0.00000  Uiso   1.00
H743   H     0.38881   0.23937   0.82629   0.00000  Uiso   1.00
H744   H     0.34600   0.18133   0.84539   0.00000  Uiso   1.00
H745   H     0.65217   0.24440   0.85430   0.00000  Uiso   1.00
H746   H     0.55810   0.23356   0.61093   0.00000  Uiso   1.00
H747   H     0.44229   0.09941   0.88899   0.00000  Uiso   1.00
H748   H     0.55578   0.01179   0.98779   0.00000  Uiso   1.00
H749   H     0.52197   0.31968   0.93779   0.00000  Uiso   1.00
H750   H     0.58839   0.02457   0.93222   0.00000  Uiso   1.00
H751   H     0.47700   0.01376   0.56200   0.00000  Uiso   1.00
H752   H     0.44295   0.32189   0.51206   0.00000  Uiso   1.00
N753   N     0.65011   0.15265   0.73783   0.00000  Uiso   1.00
N754   N     0.34989   0.18068   0.76217   0.00000  Uiso   1.00
O755   O     0.46308   0.24619   0.75298   0.00000  Uiso   1.00
O756   O     0.40337   0.04998   0.54824   0.00000  Uiso   1.00
O757   O     0.57782   0.00794   0.76750   0.00000  Uiso   1.00
O758   O     0.42083   0.32844   0.77098   0.00000  Uiso   1.00
O759   O     0.34611   0.11839   0.71058   0.00000  Uiso   1.00
O760   O     0.65455   0.21566   0.78903   0.00000  Uiso   1.00
O761   O     0.53692   0.08714   0.74701   0.00000  Uiso   1.00
O762   O     0.55946   0.23721   0.74518   0.00000  Uiso   1.00
O763   O     0.44054   0.09613   0.75481   0.00000  Uiso   1.00
O764   O     0.45181   0.17117   0.81997   0.00000  Uiso   1.00
O765   O     0.54819   0.16216   0.68002   0.00000  Uiso   1.00
O766   O     0.54819   0.16219   0.81217   0.00000  Uiso   1.00
O767   O     0.45181   0.17115   0.68782   0.00000  Uiso   1.00
O768   O     0.59572   0.28380   0.95179   0.00000  Uiso   1.00
Zn769  Zn    0.43565   0.17266   0.75521   0.00000  Uiso   1.00
Zn770  Zn    0.56435   0.16067   0.74479   0.00000  Uiso   1.00
C771   C     0.84849   0.26495   0.75172   0.00000  Uiso   1.00
C772   C     0.86550   0.20539   0.90581   0.00000  Uiso   1.00
C773   C     0.83316   0.16654   0.61596   0.00000  Uiso   1.00
C774   C     0.83332   0.16681   0.88403   0.00000  Uiso   1.00
C775   C     0.86640   0.20448   0.59257   0.00000  Uiso   1.00
C776   C     0.80029   0.12871   0.90738   0.00000  Uiso   1.00
C777   C     0.86604   0.20546   0.54608   0.00000  Uiso   1.00
C778   C     0.80026   0.12798   0.95391   0.00000  Uiso   1.00
C779   C     0.83309   0.16664   0.52339   0.00000  Uiso   1.00
C780   C     0.83299   0.16693   0.97663   0.00000  Uiso   1.00
C781   C     0.80050   0.12740   0.54756   0.00000  Uiso   1.00
C782   C     0.81845   0.06911   0.75519   0.00000  Uiso   1.00
C783   C     0.86538   0.20630   0.95248   0.00000  Uiso   1.00
C784   C     0.89785   0.24446   0.52209   0.00000  Uiso   1.00
C785   C     0.76832   0.08906   0.97790   0.00000  Uiso   1.00
C786   C     0.89683   0.32822   0.95280   0.00000  Uiso   1.00
C787   C     0.76873   0.00542   0.54708   0.00000  Uiso   1.00
C788   C     0.95322   0.33088   0.73144   0.00000  Uiso   1.00
C789   C     0.73186   0.00980   0.81530   0.00000  Uiso   1.00
C790   C     0.98454   0.10886   0.67134   0.00000  Uiso   1.00
C791   C     0.67890   0.21980   0.83032   0.00000  Uiso   1.00
C792   C     0.89662   0.24579   0.97535   0.00000  Uiso   1.00
C793   C     0.76923   0.08793   0.52468   0.00000  Uiso   1.00
C794   C     0.85694   0.31977   0.75868   0.00000  Uiso   1.00
C795   C     0.81031   0.01562   0.76400   0.00000  Uiso   1.00
C796   C     0.83340   0.16682   0.83640   0.00000  Uiso   1.00
C797   C     0.83324   0.16649   0.66359   0.00000  Uiso   1.00
C798   C     0.80026   0.12840   0.59425   0.00000  Uiso   1.00
F799   F     0.93009   0.28132   0.54387   0.00000  Uiso   1.00
F800   F     0.73620   0.05215   0.95607   0.00000  Uiso   1.00
H801   H     0.77571   0.09915   0.61394   0.00000  Uiso   1.00
H802   H     0.74378   0.30909   0.56764   0.00000  Uiso   1.00
H803   H     0.93606   0.32934   0.69766   0.00000  Uiso   1.00
H804   H     0.97481   0.29504   0.73668   0.00000  Uiso   1.00
H805   H     0.98750   0.02863   0.73191   0.00000  Uiso   1.00
H806   H     0.73060   0.05240   0.82099   0.00000  Uiso   1.00
H807   H     0.75673   0.32712   0.84101   0.00000  Uiso   1.00
H808   H     0.68675   0.32760   0.82056   0.00000  Uiso   1.00
H809   H     0.98240   0.14516   0.65321   0.00000  Uiso   1.00
H810   H     0.94182   0.08900   0.67886   0.00000  Uiso   1.00
H811   H     0.67663   0.08214   0.64832   0.00000  Uiso   1.00
H812   H     0.88938   0.23504   0.88620   0.00000  Uiso   1.00
H813   H     0.72214   0.23937   0.82629   0.00000  Uiso   1.00
H814   H     0.67934   0.18133   0.84539   0.00000  Uiso   1.00
H815   H     0.98551   0.24440   0.85430   0.00000  Uiso   1.00
H816   H     0.89143   0.23356   0.61093   0.00000  Uiso   1.00
H817   H     0.77562   0.09941   0.88899   0.00000  Uiso   1.00
H818   H     0.88911   0.01179   0.98779   0.00000  Uiso   1.00
H819   H     0.85531   0.31968   0.93779   0.00000  Uiso   1.00
H820   H     0.92173   0.02457   0.93222   0.00000  Uiso   1.00
H821   H     0.81034   0.01376   0.56200   0.00000  Uiso   1.00
H822   H     0.77628   0.32189   0.51206   0.00000  Uiso   1.00
N823   N     0.98344   0.15265   0.73783   0.00000  Uiso   1.00
N824   N     0.68322   0.18068   0.76217   0.00000  Uiso   1.00
O825   O     0.79642   0.24619   0.75298   0.00000  Uiso   1.00
O826   O     0.73671   0.04998   0.54824   0.00000  Uiso   1.00
O827   O     0.91115   0.00794   0.76750   0.00000  Uiso   1.00
O828   O     0.75416   0.32844   0.77098   0.00000  Uiso   1.00
O829   O     0.67944   0.11839   0.71058   0.00000  Uiso   1.00
O830   O     0.98788   0.21566   0.78903   0.00000  Uiso   1.00
O831   O     0.87025   0.08714   0.74701   0.00000  Uiso   1.00
O832   O     0.89280   0.23721   0.74518   0.00000  Uiso   1.00
O833   O     0.77387   0.09613   0.75481   0.00000  Uiso   1.00
O834   O     0.78514   0.17117   0.81997   0.00000  Uiso   1.00
O835   O     0.88153   0.16216   0.68002   0.00000  Uiso   1.00
O836   O     0.88152   0.16219   0.81217   0.00000  Uiso   1.00
O837   O     0.78515   0.17115   0.68782   0.00000  Uiso   1.00
O838   O     0.92906   0.28380   0.95179   0.00000  Uiso   1.00
Zn839  Zn    0.76898   0.17266   0.75521   0.00000  Uiso   1.00
Zn840  Zn    0.89769   0.16067   0.74479   0.00000  Uiso   1.00
C841   C     0.18182   0.59829   0.75172   0.00000  Uiso   1.00
C842   C     0.19883   0.53872   0.90581   0.00000  Uiso   1.00
C843   C     0.16650   0.49987   0.61596   0.00000  Uiso   1.00
C844   C     0.16665   0.50014   0.88403   0.00000  Uiso   1.00
C845   C     0.19973   0.53781   0.59257   0.00000  Uiso   1.00
C846   C     0.13363   0.46205   0.90738   0.00000  Uiso   1.00
C847   C     0.19938   0.53879   0.54608   0.00000  Uiso   1.00
C848   C     0.13359   0.46131   0.95391   0.00000  Uiso   1.00
C849   C     0.16643   0.49997   0.52339   0.00000  Uiso   1.00
C850   C     0.16632   0.50026   0.97663   0.00000  Uiso   1.00
C851   C     0.13383   0.46074   0.54756   0.00000  Uiso   1.00
C852   C     0.15178   0.40245   0.75519   0.00000  Uiso   1.00
C853   C     0.19871   0.53963   0.95248   0.00000  Uiso   1.00
C854   C     0.23118   0.57780   0.52209   0.00000  Uiso   1.00
C855   C     0.10165   0.42240   0.97790   0.00000  Uiso   1.00
C856   C     0.23016   0.66155   0.95280   0.00000  Uiso   1.00
C857   C     0.10207   0.33875   0.54708   0.00000  Uiso   1.00
C858   C     0.28655   0.66421   0.73144   0.00000  Uiso   1.00
C859   C     0.06519   0.34314   0.81530   0.00000  Uiso   1.00
C860   C     0.31788   0.44220   0.67134   0.00000  Uiso   1.00
C861   C     0.01223   0.55313   0.83032   0.00000  Uiso   1.00
C862   C     0.22995   0.57912   0.97535   0.00000  Uiso   1.00
C863   C     0.10257   0.42126   0.52468   0.00000  Uiso   1.00
C864   C     0.19028   0.65311   0.75868   0.00000  Uiso   1.00
C865   C     0.14364   0.34895   0.76400   0.00000  Uiso   1.00
C866   C     0.16673   0.50016   0.83640   0.00000  Uiso   1.00
C867   C     0.16657   0.49982   0.66359   0.00000  Uiso   1.00
C868   C     0.13360   0.46173   0.59425   0.00000  Uiso   1.00
F869   F     0.26342   0.61465   0.54387   0.00000  Uiso   1.00
F870   F     0.06953   0.38548   0.95607   0.00000  Uiso   1.00
H871   H     0.10904   0.43248   0.61394   0.00000  Uiso   1.00
H872   H     0.07711   0.64242   0.56764   0.00000  Uiso   1.00
H873   H     0.26940   0.66267   0.69766   0.00000  Uiso   1.00
H874   H     0.30814   0.62837   0.73668   0.00000  Uiso   1.00
H875   H     0.32083   0.36196   0.73191   0.00000  Uiso   1.00
H876   H     0.06394   0.38574   0.82099   0.00000  Uiso   1.00
H877   H     0.09007   0.66046   0.84101   0.00000  Uiso   1.00
H878   H     0.02008   0.66094   0.82056   0.00000  Uiso   1.00
H879   H     0.31573   0.47849   0.65321   0.00000  Uiso   1.00
H880   H     0.27515   0.42234   0.67886   0.00000  Uiso   1.00
H881   H     0.00996   0.41547   0.64832   0.00000  Uiso   1.00
H882   H     0.22271   0.56837   0.88620   0.00000  Uiso   1.00
H883   H     0.05548   0.57271   0.82629   0.00000  Uiso   1.00
H884   H     0.01267   0.51466   0.84539   0.00000  Uiso   1.00
H885   H     0.31884   0.57774   0.85430   0.00000  Uiso   1.00
H886   H     0.22476   0.56690   0.61093   0.00000  Uiso   1.00
H887   H     0.10895   0.43274   0.88899   0.00000  Uiso   1.00
H888   H     0.22244   0.34513   0.98779   0.00000  Uiso   1.00
H889   H     0.18864   0.65302   0.93779   0.00000  Uiso   1.00
H890   H     0.25506   0.35790   0.93222   0.00000  Uiso   1.00
H891   H     0.14367   0.34710   0.56200   0.00000  Uiso   1.00
H892   H     0.10961   0.65522   0.51206   0.00000  Uiso   1.00
N893   N     0.31678   0.48598   0.73783   0.00000  Uiso   1.00
N894   N     0.01656   0.51402   0.76217   0.00000  Uiso   1.00
O895   O     0.12975   0.57952   0.75298   0.00000  Uiso   1.00
O896   O     0.07004   0.38331   0.54824   0.00000  Uiso   1.00
O897   O     0.24449   0.34128   0.76750   0.00000  Uiso   1.00
O898   O     0.08750   0.66178   0.77098   0.00000  Uiso   1.00
O899   O     0.01278   0.45172   0.71058   0.00000  Uiso   1.00
O900   O     0.32121   0.54899   0.78903   0.00000  Uiso   1.00
O901   O     0.20358   0.42048   0.74701   0.00000  Uiso   1.00
O902   O     0.22613   0.57054   0.74518   0.00000  Uiso   1.00
O903   O     0.10720   0.42946   0.75481   0.00000  Uiso   1.00
O904   O     0.11847   0.50450   0.81997   0.00000  Uiso   1.00
O905   O     0.21486   0.49550   0.68002   0.00000  Uiso   1.00
O906   O     0.21485   0.49552   0.81217   0.00000  Uiso   1.00
O907   O     0.11848   0.50448   0.68782   0.00000  Uiso   1.00
O908   O     0.26239   0.61713   0.95179   0.00000  Uiso   1.00
Zn909  Zn    0.10231   0.50600   0.75521   0.00000  Uiso   1.00
Zn910  Zn    0.23102   0.49400   0.74479   0.00000  Uiso   1.00
C911   C     0.51515   0.59829   0.75172   0.00000  Uiso   1.00
C912   C     0.53217   0.53872   0.90581   0.00000  Uiso   1.00
C913   C     0.49983   0.49987   0.61596   0.00000  Uiso   1.00
C914   C     0.49999   0.50014   0.88403   0.00000  Uiso   1.00
C915   C     0.53306   0.53781   0.59257   0.00000  Uiso   1.00
C916   C     0.46696   0.46205   0.90738   0.00000  Uiso   1.00
C917   C     0.53271   0.53879   0.54608   0.00000  Uiso   1.00
C918   C     0.46692   0.46131   0.95391   0.00000  Uiso   1.00
C919   C     0.49976   0.49997   0.52339   0.00000  Uiso   1.00
C920   C     0.49966   0.50026   0.97663   0.00000  Uiso   1.00
C921   C     0.46717   0.46074   0.54756   0.00000  Uiso   1.00
C922   C     0.48511   0.40245   0.75519   0.00000  Uiso   1.00
C923   C     0.53204   0.53963   0.95248   0.00000  Uiso   1.00
C924   C     0.56451   0.57780   0.52209   0.00000  Uiso   1.00
C925   C     0.43498   0.42240   0.97790   0.00000  Uiso   1.00
C926   C     0.56350   0.66155   0.95280   0.00000  Uiso   1.00
C927   C     0.43540   0.33875   0.54708   0.00000  Uiso   1.00
C928   C     0.61989   0.66421   0.73144   0.00000  Uiso   1.00
C929   C     0.39852   0.34314   0.81530   0.00000  Uiso   1.00
C930   C     0.65121   0.44220   0.67134   0.00000  Uiso   1.00
C931   C     0.34556   0.55313   0.83032   0.00000  Uiso   1.00
C932   C     0.56328   0.57912   0.97535   0.00000  Uiso   1.00
C933   C     0.43590   0.42126   0.52468   0.00000  Uiso   1.00
C934   C     0.52361   0.65311   0.75868   0.00000  Uiso   1.00
C935   C     0.47698   0.34895   0.76400   0.00000  Uiso   1.00
C936   C     0.50007   0.50016   0.83640   0.00000  Uiso   1.00
C937   C     0.49990   0.49982   0.66359   0.00000  Uiso   1.00
C938   C     0.46693   0.46173   0.59425   0.00000  Uiso   1.00
F939   F     0.59675   0.61465   0.54387   0.00000  Uiso   1.00
F940   F     0.40286   0.38548   0.95607   0.00000  Uiso   1.00
H941   H     0.44238   0.43248   0.61394   0.00000  Uiso   1.00
H942   H     0.41044   0.64242   0.56764   0.00000  Uiso   1.00
H943   H     0.60273   0.66267   0.69766   0.00000  Uiso   1.00
H944   H     0.64148   0.62837   0.73668   0.00000  Uiso   1.00
H945   H     0.65417   0.36196   0.73191   0.00000  Uiso   1.00
H946   H     0.39727   0.38574   0.82099   0.00000  Uiso   1.00
H947   H     0.42340   0.66046   0.84101   0.00000  Uiso   1.00
H948   H     0.35342   0.66094   0.82056   0.00000  Uiso   1.00
H949   H     0.64906   0.47849   0.65321   0.00000  Uiso   1.00
H950   H     0.60848   0.42234   0.67886   0.00000  Uiso   1.00
H951   H     0.34329   0.41547   0.64832   0.00000  Uiso   1.00
H952   H     0.55605   0.56837   0.88620   0.00000  Uiso   1.00
H953   H     0.38881   0.57271   0.82629   0.00000  Uiso   1.00
H954   H     0.34600   0.51466   0.84539   0.00000  Uiso   1.00
H955   H     0.65217   0.57774   0.85430   0.00000  Uiso   1.00
H956   H     0.55810   0.56690   0.61093   0.00000  Uiso   1.00
H957   H     0.44229   0.43274   0.88899   0.00000  Uiso   1.00
H958   H     0.55578   0.34513   0.98779   0.00000  Uiso   1.00
H959   H     0.52197   0.65302   0.93779   0.00000  Uiso   1.00
H960   H     0.58839   0.35790   0.93222   0.00000  Uiso   1.00
H961   H     0.47700   0.34710   0.56200   0.00000  Uiso   1.00
H962   H     0.44295   0.65522   0.51206   0.00000  Uiso   1.00
N963   N     0.65011   0.48598   0.73783   0.00000  Uiso   1.00
N964   N     0.34989   0.51402   0.76217   0.00000  Uiso   1.00
O965   O     0.46308   0.57952   0.75298   0.00000  Uiso   1.00
O966   O     0.40337   0.38331   0.54824   0.00000  Uiso   1.00
O967   O     0.57782   0.34128   0.76750   0.00000  Uiso   1.00
O968   O     0.42083   0.66178   0.77098   0.00000  Uiso   1.00
O969   O     0.34611   0.45172   0.71058   0.00000  Uiso   1.00
O970   O     0.65455   0.54899   0.78903   0.00000  Uiso   1.00
O971   O     0.53692   0.42048   0.74701   0.00000  Uiso   1.00
O972   O     0.55946   0.57054   0.74518   0.00000  Uiso   1.00
O973   O     0.44054   0.42946   0.75481   0.00000  Uiso   1.00
O974   O     0.45181   0.50450   0.81997   0.00000  Uiso   1.00
O975   O     0.54819   0.49550   0.68002   0.00000  Uiso   1.00
O976   O     0.54819   0.49552   0.81217   0.00000  Uiso   1.00
O977   O     0.45181   0.50448   0.68782   0.00000  Uiso   1.00
O978   O     0.59572   0.61713   0.95179   0.00000  Uiso   1.00
Zn979  Zn    0.43565   0.50600   0.75521   0.00000  Uiso   1.00
Zn980  Zn    0.56435   0.49400   0.74479   0.00000  Uiso   1.00
C981   C     0.84849   0.59829   0.75172   0.00000  Uiso   1.00
C982   C     0.86550   0.53872   0.90581   0.00000  Uiso   1.00
C983   C     0.83316   0.49987   0.61596   0.00000  Uiso   1.00
C984   C     0.83332   0.50014   0.88403   0.00000  Uiso   1.00
C985   C     0.86640   0.53781   0.59257   0.00000  Uiso   1.00
C986   C     0.80029   0.46205   0.90738   0.00000  Uiso   1.00
C987   C     0.86604   0.53879   0.54608   0.00000  Uiso   1.00
C988   C     0.80026   0.46131   0.95391   0.00000  Uiso   1.00
C989   C     0.83309   0.49997   0.52339   0.00000  Uiso   1.00
C990   C     0.83299   0.50026   0.97663   0.00000  Uiso   1.00
C991   C     0.80050   0.46074   0.54756   0.00000  Uiso   1.00
C992   C     0.81845   0.40245   0.75519   0.00000  Uiso   1.00
C993   C     0.86538   0.53963   0.95248   0.00000  Uiso   1.00
C994   C     0.89785   0.57780   0.52209   0.00000  Uiso   1.00
C995   C     0.76832   0.42240   0.97790   0.00000  Uiso   1.00
C996   C     0.89683   0.66155   0.95280   0.00000  Uiso   1.00
C997   C     0.76873   0.33875   0.54708   0.00000  Uiso   1.00
C998   C     0.95322   0.66421   0.73144   0.00000  Uiso   1.00
C999   C     0.73186   0.34314   0.81530   0.00000  Uiso   1.00
C1000  C     0.98454   0.44220   0.67134   0.00000  Uiso   1.00
C1001  C     0.67890   0.55313   0.83032   0.00000  Uiso   1.00
C1002  C     0.89662   0.57912   0.97535   0.00000  Uiso   1.00
C1003  C     0.76923   0.42126   0.52468   0.00000  Uiso   1.00
C1004  C     0.85694   0.65311   0.75868   0.00000  Uiso   1.00
C1005  C     0.81031   0.34895   0.76400   0.00000  Uiso   1.00
C1006  C     0.83340   0.50016   0.83640   0.00000  Uiso   1.00
C1007  C     0.83324   0.49982   0.66359   0.00000  Uiso   1.00
C1008  C     0.80026   0.46173   0.59425   0.00000  Uiso   1.00
F1009  F     0.93009   0.61465   0.54387   0.00000  Uiso   1.00
F1010  F     0.73620   0.38548   0.95607   0.00000  Uiso   1.00
H1011  H     0.77571   0.43248   0.61394   0.00000  Uiso   1.00
H1012  H     0.74378   0.64242   0.56764   0.00000  Uiso   1.00
H1013  H     0.93606   0.66267   0.69766   0.00000  Uiso   1.00
H1014  H     0.97481   0.62837   0.73668   0.00000  Uiso   1.00
H1015  H     0.98750   0.36196   0.73191   0.00000  Uiso   1.00
H1016  H     0.73060   0.38574   0.82099   0.00000  Uiso   1.00
H1017  H     0.75673   0.66046   0.84101   0.00000  Uiso   1.00
H1018  H     0.68675   0.66094   0.82056   0.00000  Uiso   1.00
H1019  H     0.98240   0.47849   0.65321   0.00000  Uiso   1.00
H1020  H     0.94182   0.42234   0.67886   0.00000  Uiso   1.00
H1021  H     0.67663   0.41547   0.64832   0.00000  Uiso   1.00
H1022  H     0.88938   0.56837   0.88620   0.00000  Uiso   1.00
H1023  H     0.72214   0.57271   0.82629   0.00000  Uiso   1.00
H1024  H     0.67934   0.51466   0.84539   0.00000  Uiso   1.00
H1025  H     0.98551   0.57774   0.85430   0.00000  Uiso   1.00
H1026  H     0.89143   0.56690   0.61093   0.00000  Uiso   1.00
H1027  H     0.77562   0.43274   0.88899   0.00000  Uiso   1.00
H1028  H     0.88911   0.34513   0.98779   0.00000  Uiso   1.00
H1029  H     0.85531   0.65302   0.93779   0.00000  Uiso   1.00
H1030  H     0.92173   0.35790   0.93222   0.00000  Uiso   1.00
H1031  H     0.81034   0.34710   0.56200   0.00000  Uiso   1.00
H1032  H     0.77628   0.65522   0.51206   0.00000  Uiso   1.00
N1033  N     0.98344   0.48598   0.73783   0.00000  Uiso   1.00
N1034  N     0.68322   0.51402   0.76217   0.00000  Uiso   1.00
O1035  O     0.79642   0.57952   0.75298   0.00000  Uiso   1.00
O1036  O     0.73671   0.38331   0.54824   0.00000  Uiso   1.00
O1037  O     0.91115   0.34128   0.76750   0.00000  Uiso   1.00
O1038  O     0.75416   0.66178   0.77098   0.00000  Uiso   1.00
O1039  O     0.67944   0.45172   0.71058   0.00000  Uiso   1.00
O1040  O     0.98788   0.54899   0.78903   0.00000  Uiso   1.00
O1041  O     0.87025   0.42048   0.74701   0.00000  Uiso   1.00
O1042  O     0.89280   0.57054   0.74518   0.00000  Uiso   1.00
O1043  O     0.77387   0.42946   0.75481   0.00000  Uiso   1.00
O1044  O     0.78514   0.50450   0.81997   0.00000  Uiso   1.00
O1045  O     0.88153   0.49550   0.68002   0.00000  Uiso   1.00
O1046  O     0.88152   0.49552   0.81217   0.00000  Uiso   1.00
O1047  O     0.78515   0.50448   0.68782   0.00000  Uiso   1.00
O1048  O     0.92906   0.61713   0.95179   0.00000  Uiso   1.00
Zn1049 Zn    0.76898   0.50600   0.75521   0.00000  Uiso   1.00
Zn1050 Zn    0.89769   0.49400   0.74479   0.00000  Uiso   1.00
C1051  C     0.18182   0.93162   0.75172   0.00000  Uiso   1.00
C1052  C     0.19883   0.87205   0.90581   0.00000  Uiso   1.00
C1053  C     0.16650   0.83321   0.61596   0.00000  Uiso   1.00
C1054  C     0.16665   0.83347   0.88403   0.00000  Uiso   1.00
C1055  C     0.19973   0.87115   0.59257   0.00000  Uiso   1.00
C1056  C     0.13363   0.79538   0.90738   0.00000  Uiso   1.00
C1057  C     0.19938   0.87212   0.54608   0.00000  Uiso   1.00
C1058  C     0.13359   0.79465   0.95391   0.00000  Uiso   1.00
C1059  C     0.16643   0.83331   0.52339   0.00000  Uiso   1.00
C1060  C     0.16632   0.83360   0.97663   0.00000  Uiso   1.00
C1061  C     0.13383   0.79407   0.54756   0.00000  Uiso   1.00
C1062  C     0.15178   0.73578   0.75519   0.00000  Uiso   1.00
C1063  C     0.19871   0.87297   0.95248   0.00000  Uiso   1.00
C1064  C     0.23118   0.91113   0.52209   0.00000  Uiso   1.00
C1065  C     0.10165   0.75573   0.97790   0.00000  Uiso   1.00
C1066  C     0.23016   0.99488   0.95280   0.00000  Uiso   1.00
C1067  C     0.10207   0.67208   0.54708   0.00000  Uiso   1.00
C1068  C     0.28655   0.99755   0.73144   0.00000  Uiso   1.00
C1069  C     0.06519   0.67647   0.81530   0.00000  Uiso   1.00
C1070  C     0.31788   0.77553   0.67134   0.00000  Uiso   1.00
C1071  C     0.01223   0.88647   0.83032   0.00000  Uiso   1.00
C1072  C     0.22995   0.91246   0.97535   0.00000  Uiso   1.00
C1073  C     0.10257   0.75460   0.52468   0.00000  Uiso   1.00
C1074  C     0.19028   0.98644   0.75868   0.00000  Uiso   1.00
C1075  C     0.14364   0.68229   0.76400   0.00000  Uiso   1.00
C1076  C     0.16673   0.83349   0.83640   0.00000  Uiso   1.00
C1077  C     0.16657   0.83316   0.66359   0.00000  Uiso   1.00
C1078  C     0.13360   0.79507   0.59425   0.00000  Uiso   1.00
F1079  F     0.26342   0.94799   0.54387   0.00000  Uiso   1.00
F1080  F     0.06953   0.71881   0.95607   0.00000  Uiso   1.00
H1081  H     0.10904   0.76581   0.61394   0.00000  Uiso   1.00
H1082  H     0.07711   0.97576   0.56764   0.00000  Uiso   1.00
H1083  H     0.26940   0.99601   0.69766   0.00000  Uiso   1.00
H1084  H     0.30814   0.96171   0.73668   0.00000  Uiso   1.00
H1085  H     0.32083   0.69530   0.73191   0.00000  Uiso   1.00
H1086  H     0.06394   0.71907   0.82099   0.00000  Uiso   1.00
H1087  H     0.09007   0.99379   0.84101   0.00000  Uiso   1.00
H1088  H     0.02008   0.99427   0.82056   0.00000  Uiso   1.00
H1089  H     0.31573   0.81182   0.65321   0.00000  Uiso   1.00
H1090  H     0.27515   0.75567   0.67886   0.00000  Uiso   1.00
H1091  H     0.00996   0.74880   0.64832   0.00000  Uiso   1.00
H1092  H     0.22271   0.90170   0.88620   0.00000  Uiso   1.00
H1093  H     0.05548   0.90604   0.82629   0.00000  Uiso   1.00
H1094  H     0.01267   0.84799   0.84539   0.00000  Uiso   1.00
H1095  H     0.31884   0.91107   0.85430   0.00000  Uiso   1.00
H1096  H     0.22476   0.90023   0.61093   0.00000  Uiso   1.00
H1097  H     0.10895   0.76608   0.88899   0.00000  Uiso   1.00
H1098  H     0.22244   0.67846   0.98779   0.00000  Uiso   1.00
H1099  H     0.18864   0.98635   0.93779   0.00000  Uiso   1.00
H1100  H     0.25506   0.69124   0.93222   0.00000  Uiso   1.00
H1101  H     0.14367   0.68043   0.56200   0.00000  Uiso   1.00
H1102  H     0.10961   0.98855   0.51206   0.00000  Uiso   1.00
N1103  N     0.31678   0.81932   0.73783   0.00000  Uiso   1.00
N1104  N     0.01656   0.84735   0.76217   0.00000  Uiso   1.00
O1105  O     0.12975   0.91286   0.75298   0.00000  Uiso   1.00
O1106  O     0.07004   0.71664   0.54824   0.00000  Uiso   1.00
O1107  O     0.24449   0.67461   0.76750   0.00000  Uiso   1.00
O1108  O     0.08750   0.99511   0.77098   0.00000  Uiso   1.00
O1109  O     0.01278   0.78506   0.71058   0.00000  Uiso   1.00
O1110  O     0.32121   0.88232   0.78903   0.00000  Uiso   1.00
O1111  O     0.20358   0.75381   0.74701   0.00000  Uiso   1.00
O1112  O     0.22613   0.90387   0.74518   0.00000  Uiso   1.00
O1113  O     0.10720   0.76279   0.75481   0.00000  Uiso   1.00
O1114  O     0.11847   0.83784   0.81997   0.00000  Uiso   1.00
O1115  O     0.21486   0.82883   0.68002   0.00000  Uiso   1.00
O1116  O     0.21485   0.82885   0.81217   0.00000  Uiso   1.00
O1117  O     0.11848   0.83781   0.68782   0.00000  Uiso   1.00
O1118  O     0.26239   0.95046   0.95179   0.00000  Uiso   1.00
Zn1119 Zn    0.10231   0.83933   0.75521   0.00000  Uiso   1.00
Zn1120 Zn    0.23102   0.82734   0.74479   0.00000  Uiso   1.00
C1121  C     0.51515   0.93162   0.75172   0.00000  Uiso   1.00
C1122  C     0.53217   0.87205   0.90581   0.00000  Uiso   1.00
C1123  C     0.49983   0.83321   0.61596   0.00000  Uiso   1.00
C1124  C     0.49999   0.83347   0.88403   0.00000  Uiso   1.00
C1125  C     0.53306   0.87115   0.59257   0.00000  Uiso   1.00
C1126  C     0.46696   0.79538   0.90738   0.00000  Uiso   1.00
C1127  C     0.53271   0.87212   0.54608   0.00000  Uiso   1.00
C1128  C     0.46692   0.79465   0.95391   0.00000  Uiso   1.00
C1129  C     0.49976   0.83331   0.52339   0.00000  Uiso   1.00
C1130  C     0.49966   0.83360   0.97663   0.00000  Uiso   1.00
C1131  C     0.46717   0.79407   0.54756   0.00000  Uiso   1.00
C1132  C     0.48511   0.73578   0.75519   0.00000  Uiso   1.00
C1133  C     0.53204   0.87297   0.95248   0.00000  Uiso   1.00
C1134  C     0.56451   0.91113   0.52209   0.00000  Uiso   1.00
C1135  C     0.43498   0.75573   0.97790   0.00000  Uiso   1.00
C1136  C     0.56350   0.99488   0.95280   0.00000  Uiso   1.00
C1137  C     0.43540   0.67208   0.54708   0.00000  Uiso   1.00
C1138  C     0.61989   0.99755   0.73144   0.00000  Uiso   1.00
C1139  C     0.39852   0.67647   0.81530   0.00000  Uiso   1.00
C1140  C     0.65121   0.77553   0.67134   0.00000  Uiso   1.00
C1141  C     0.34556   0.88647   0.83032   0.00000  Uiso   1.00
C1142  C     0.56328   0.91246   0.97535   0.00000  Uiso   1.00
C1143  C     0.43590   0.75460   0.52468   0.00000  Uiso   1.00
C1144  C     0.52361   0.98644   0.75868   0.00000  Uiso   1.00
C1145  C     0.47698   0.68229   0.76400   0.00000  Uiso   1.00
C1146  C     0.50007   0.83349   0.83640   0.00000  Uiso   1.00
C1147  C     0.49990   0.83316   0.66359   0.00000  Uiso   1.00
C1148  C     0.46693   0.79507   0.59425   0.00000  Uiso   1.00
F1149  F     0.59675   0.94799   0.54387   0.00000  Uiso   1.00
F1150  F     0.40286   0.71881   0.95607   0.00000  Uiso   1.00
H1151  H     0.44238   0.76581   0.61394   0.00000  Uiso   1.00
H1152  H     0.41044   0.97576   0.56764   0.00000  Uiso   1.00
H1153  H     0.60273   0.99601   0.69766   0.00000  Uiso   1.00
H1154  H     0.64148   0.96171   0.73668   0.00000  Uiso   1.00
H1155  H     0.65417   0.69530   0.73191   0.00000  Uiso   1.00
H1156  H     0.39727   0.71907   0.82099   0.00000  Uiso   1.00
H1157  H     0.42340   0.99379   0.84101   0.00000  Uiso   1.00
H1158  H     0.35342   0.99427   0.82056   0.00000  Uiso   1.00
H1159  H     0.64906   0.81182   0.65321   0.00000  Uiso   1.00
H1160  H     0.60848   0.75567   0.67886   0.00000  Uiso   1.00
H1161  H     0.34329   0.74880   0.64832   0.00000  Uiso   1.00
H1162  H     0.55605   0.90170   0.88620   0.00000  Uiso   1.00
H1163  H     0.38881   0.90604   0.82629   0.00000  Uiso   1.00
H1164  H     0.34600   0.84799   0.84539   0.00000  Uiso   1.00
H1165  H     0.65217   0.91107   0.85430   0.00000  Uiso   1.00
H1166  H     0.55810   0.90023   0.61093   0.00000  Uiso   1.00
H1167  H     0.44229   0.76608   0.88899   0.00000  Uiso   1.00
H1168  H     0.55578   0.67846   0.98779   0.00000  Uiso   1.00
H1169  H     0.52197   0.98635   0.93779   0.00000  Uiso   1.00
H1170  H     0.58839   0.69124   0.93222   0.00000  Uiso   1.00
H1171  H     0.47700   0.68043   0.56200   0.00000  Uiso   1.00
H1172  H     0.44295   0.98855   0.51206   0.00000  Uiso   1.00
N1173  N     0.65011   0.81932   0.73783   0.00000  Uiso   1.00
N1174  N     0.34989   0.84735   0.76217   0.00000  Uiso   1.00
O1175  O     0.46308   0.91286   0.75298   0.00000  Uiso   1.00
O1176  O     0.40337   0.71664   0.54824   0.00000  Uiso   1.00
O1177  O     0.57782   0.67461   0.76750   0.00000  Uiso   1.00
O1178  O     0.42083   0.99511   0.77098   0.00000  Uiso   1.00
O1179  O     0.34611   0.78506   0.71058   0.00000  Uiso   1.00
O1180  O     0.65455   0.88232   0.78903   0.00000  Uiso   1.00
O1181  O     0.53692   0.75381   0.74701   0.00000  Uiso   1.00
O1182  O     0.55946   0.90387   0.74518   0.00000  Uiso   1.00
O1183  O     0.44054   0.76279   0.75481   0.00000  Uiso   1.00
O1184  O     0.45181   0.83784   0.81997   0.00000  Uiso   1.00
O1185  O     0.54819   0.82883   0.68002   0.00000  Uiso   1.00
O1186  O     0.54819   0.82885   0.81217   0.00000  Uiso   1.00
O1187  O     0.45181   0.83781   0.68782   0.00000  Uiso   1.00
O1188  O     0.59572   0.95046   0.95179   0.00000  Uiso   1.00
Zn1189 Zn    0.43565   0.83933   0.75521   0.00000  Uiso   1.00
Zn1190 Zn    0.56435   0.82734   0.74479   0.00000  Uiso   1.00
C1191  C     0.84849   0.93162   0.75172   0.00000  Uiso   1.00
C1192  C     0.86550   0.87205   0.90581   0.00000  Uiso   1.00
C1193  C     0.83316   0.83321   0.61596   0.00000  Uiso   1.00
C1194  C     0.83332   0.83347   0.88403   0.00000  Uiso   1.00
C1195  C     0.86640   0.87115   0.59257   0.00000  Uiso   1.00
C1196  C     0.80029   0.79538   0.90738   0.00000  Uiso   1.00
C1197  C     0.86604   0.87212   0.54608   0.00000  Uiso   1.00
C1198  C     0.80026   0.79465   0.95391   0.00000  Uiso   1.00
C1199  C     0.83309   0.83331   0.52339   0.00000  Uiso   1.00
C1200  C     0.83299   0.83360   0.97663   0.00000  Uiso   1.00
C1201  C     0.80050   0.79407   0.54756   0.00000  Uiso   1.00
C1202  C     0.81845   0.73578   0.75519   0.00000  Uiso   1.00
C1203  C     0.86538   0.87297   0.95248   0.00000  Uiso   1.00
C1204  C     0.89785   0.91113   0.52209   0.00000  Uiso   1.00
C1205  C     0.76832   0.75573   0.97790   0.00000  Uiso   1.00
C1206  C     0.89683   0.99488   0.95280   0.00000  Uiso   1.00
C1207  C     0.76873   0.67208   0.54708   0.00000  Uiso   1.00
C1208  C     0.95322   0.99755   0.73144   0.00000  Uiso   1.00
C1209  C     0.73186   0.67647   0.81530   0.00000  Uiso   1.00
C1210  C     0.98454   0.77553   0.67134   0.00000  Uiso   1.00
C1211  C     0.67890   0.88647   0.83032   0.00000  Uiso   1.00
C1212  C     0.89662   0.91246   0.97535   0.00000  Uiso   1.00
C1213  C     0.76923   0.75460   0.52468   0.00000  Uiso   1.00
C1214  C     0.85694   0.98644   0.75868   0.00000  Uiso   1.00
C1215  C     0.81031   0.68229   0.76400   0.00000  Uiso   1.00
C1216  C     0.83340   0.83349   0.83640   0.00000  Uiso   1.00
C1217  C     0.83324   0.83316   0.66359   0.00000  Uiso   1.00
C1218  C     0.80026   0.79507   0.59425   0.00000  Uiso   1.00
F1219  F     0.93009   0.94799   0.54387   0.00000  Uiso   1.00
F1220  F     0.73620   0.71881   0.95607   0.00000  Uiso   1.00
H1221  H     0.77571   0.76581   0.61394   0.00000  Uiso   1.00
H1222  H     0.74378   0.97576   0.56764   0.00000  Uiso   1.00
H1223  H     0.93606   0.99601   0.69766   0.00000  Uiso   1.00
H1224  H     0.97481   0.96171   0.73668   0.00000  Uiso   1.00
H1225  H     0.98750   0.69530   0.73191   0.00000  Uiso   1.00
H1226  H     0.73060   0.71907   0.82099   0.00000  Uiso   1.00
H1227  H     0.75673   0.99379   0.84101   0.00000  Uiso   1.00
H1228  H     0.68675   0.99427   0.82056   0.00000  Uiso   1.00
H1229  H     0.98240   0.81182   0.65321   0.00000  Uiso   1.00
H1230  H     0.94182   0.75567   0.67886   0.00000  Uiso   1.00
H1231  H     0.67663   0.74880   0.64832   0.00000  Uiso   1.00
H1232  H     0.88938   0.90170   0.88620   0.00000  Uiso   1.00
H1233  H     0.72214   0.90604   0.82629   0.00000  Uiso   1.00
H1234  H     0.67934   0.84799   0.84539   0.00000  Uiso   1.00
H1235  H     0.98551   0.91107   0.85430   0.00000  Uiso   1.00
H1236  H     0.89143   0.90023   0.61093   0.00000  Uiso   1.00
H1237  H     0.77562   0.76608   0.88899   0.00000  Uiso   1.00
H1238  H     0.88911   0.67846   0.98779   0.00000  Uiso   1.00
H1239  H     0.85531   0.98635   0.93779   0.00000  Uiso   1.00
H1240  H     0.92173   0.69124   0.93222   0.00000  Uiso   1.00
H1241  H     0.81034   0.68043   0.56200   0.00000  Uiso   1.00
H1242  H     0.77628   0.98855   0.51206   0.00000  Uiso   1.00
N1243  N     0.98344   0.81932   0.73783   0.00000  Uiso   1.00
N1244  N     0.68322   0.84735   0.76217   0.00000  Uiso   1.00
O1245  O     0.79642   0.91286   0.75298   0.00000  Uiso   1.00
O1246  O     0.73671   0.71664   0.54824   0.00000  Uiso   1.00
O1247  O     0.91115   0.67461   0.76750   0.00000  Uiso   1.00
O1248  O     0.75416   0.99511   0.77098   0.00000  Uiso   1.00
O1249  O     0.67944   0.78506   0.71058   0.00000  Uiso   1.00
O1250  O     0.98788   0.88232   0.78903   0.00000  Uiso   1.00
O1251  O     0.87025   0.75381   0.74701   0.00000  Uiso   1.00
O1252  O     0.89280   0.90387   0.74518   0.00000  Uiso   1.00
O1253  O     0.77387   0.76279   0.75481   0.00000  Uiso   1.00
O1254  O     0.78514   0.83784   0.81997   0.00000  Uiso   1.00
O1255  O     0.88153   0.82883   0.68002   0.00000  Uiso   1.00
O1256  O     0.88152   0.82885   0.81217   0.00000  Uiso   1.00
O1257  O     0.78515   0.83781   0.68782   0.00000  Uiso   1.00
O1258  O     0.92906   0.95046   0.95179   0.00000  Uiso   1.00
Zn1259 Zn    0.76898   0.83933   0.75521   0.00000  Uiso   1.00
Zn1260 Zn    0.89769   0.82734   0.74479   0.00000  Uiso   1.00
loop_
_geom_bond_atom_site_label_1
_geom_bond_atom_site_label_2
_geom_bond_distance
_geom_bond_site_symmetry_2
_ccdc_geom_bond_type
C1     C24     1.430   .     S
C1     O62     1.292   .     A
C1     O55     1.284   .     A
C2     C4      1.388   .     A
C2     H42     1.083   .     S
C2     C13     1.387   .     A
C3     C27     1.417   .     S
C3     C28     1.389   .     A
C3     C5      1.389   .     A
C4     C26     1.416   .     S
C4     C6      1.389   .     A
C5     C7      1.385   .     A
C5     H46     1.085   .     S
C6     H47     1.085   .     S
C6     C8      1.385   .     A
C7     C14     1.402   .     A
C7     C9      1.415   .     A
C8     C10     1.415   .     A
C8     C15     1.401   .     A
C9     C11     1.417   .     A
C9     C640    1.391   1_554 S
C10    C13     1.417   .     A
C10    C639    1.391   .     S
C11    C28     1.387   .     A
C11    C23     1.408   .     A
C12    C25     1.421   .     S
C12    O61     1.280   .     A
C12    O63     1.292   .     A
C13    C22     1.408   .     A
C14    F29     1.359   .     S
C14    C652    1.395   1_554 S
C15    F30     1.360   .     S
C15    C653    1.395   .     S
C16    O68     1.411   .     S
C16    H49     1.114   .     S
C16    H258    1.113   .     S
C16    H260    1.109   .     S
C17    O56     1.411   .     S
C17    H51     1.114   .     S
C17    H452    1.109   1_545 S
C17    H472    1.112   1_545 S
C18    H34     1.107   .     S
C18    H33     1.115   .     S
C18    H245    1.103   .     S
C18    O267    1.414   .     S
C19    H36     1.110   .     S
C19    H457    1.113   1_545 S
C19    H458    1.108   1_545 S
C19    O478    1.414   1_545 S
C20    H40     1.106   .     S
C20    H39     1.112   .     S
C20    H111    1.109   .     S
C20    O129    1.399   .     S
C21    H44     1.113   .     S
C21    H43     1.104   .     S
C21    H185    1.108   1_455 S
C21    O200    1.399   1_455 S
C22    O68     1.384   .     S
C22    C644    1.395   .     S
C23    O56     1.384   .     S
C23    C645    1.395   1_554 S
C24    C235    1.358   .     S
C24    O267    1.399   .     S
C25    C444    1.358   1_545 S
C25    O478    1.390   1_545 S
C26    O66     1.288   .     A
C26    O64     1.286   .     A
C27    O65     1.287   .     A
C27    O67     1.288   .     A
C28    H31     1.084   .     S
H32    C227    1.109   .     S
H35    C438    1.103   1_545 S
H37    C229    1.113   .     S
H38    C229    1.108   .     S
H41    C160    1.109   1_455 S
H45    C91     1.108   .     S
H48    C436    1.113   1_545 S
H50    C436    1.109   1_545 S
H52    C227    1.112   .     S
N53    Zn70    2.022   .     S
N53    N124    1.281   .     S
N53    O129    1.347   .     S
N54    Zn69    2.022   .     S
N54    N193    1.281   1_455 S
N54    O200    1.346   1_455 S
O55    Zn69    1.976   .     S
O57    C438    1.414   1_545 S
O57    C444    1.399   1_545 S
O58    C235    1.390   .     S
O58    C229    1.414   .     S
O59    N193    1.347   1_455 S
O59    C160    1.399   1_455 S
O60    C91     1.399   .     S
O60    N124    1.346   .     S
O61    Zn70    1.976   .     S
O62    Zn70    1.992   .     S
O63    Zn69    1.992   .     S
O64    Zn69    2.000   .     S
O65    Zn70    2.000   .     S
O66    Zn70    2.003   .     S
O67    Zn69    2.003   .     S
C71    C94     1.430   .     S
C71    O132    1.292   .     A
C71    O125    1.284   .     A
C72    C74     1.388   .     A
C72    H112    1.083   .     S
C72    C83     1.387   .     A
C73    C97     1.417   .     S
C73    C98     1.389   .     A
C73    C75     1.389   .     A
C74    C96     1.416   .     S
C74    C76     1.389   .     A
C75    C77     1.385   .     A
C75    H116    1.085   .     S
C76    H117    1.085   .     S
C76    C78     1.385   .     A
C77    C84     1.402   .     A
C77    C79     1.415   .     A
C78    C80     1.415   .     A
C78    C85     1.401   .     A
C79    C81     1.417   .     A
C79    C710    1.391   1_554 S
C80    C83     1.417   .     A
C80    C709    1.391   .     S
C81    C98     1.387   .     A
C81    C93     1.408   .     A
C82    C95     1.421   .     S
C82    O131    1.280   .     A
C82    O133    1.292   .     A
C83    C92     1.408   .     A
C84    F99     1.359   .     S
C84    C722    1.395   1_554 S
C85    F100    1.360   .     S
C85    C723    1.395   .     S
C86    O138    1.411   .     S
C86    H119    1.114   .     S
C86    H328    1.113   .     S
C86    H330    1.109   .     S
C87    O126    1.411   .     S
C87    H121    1.114   .     S
C87    H522    1.109   1_545 S
C87    H542    1.112   1_545 S
C88    H104    1.107   .     S
C88    H103    1.115   .     S
C88    H315    1.103   .     S
C88    O337    1.414   .     S
C89    H106    1.110   .     S
C89    H527    1.113   1_545 S
C89    H528    1.108   1_545 S
C89    O548    1.414   1_545 S
C90    H110    1.106   .     S
C90    H109    1.112   .     S
C90    H181    1.109   .     S
C90    O199    1.399   .     S
C91    H114    1.113   .     S
C91    H113    1.104   .     S
C92    O138    1.384   .     S
C92    C714    1.395   .     S
C93    O126    1.384   .     S
C93    C715    1.395   1_554 S
C94    C305    1.358   .     S
C94    O337    1.399   .     S
C95    C514    1.358   1_545 S
C95    O548    1.390   1_545 S
C96    O136    1.288   .     A
C96    O134    1.286   .     A
C97    O135    1.287   .     A
C97    O137    1.288   .     A
C98    H101    1.084   .     S
H102   C297    1.109   .     S
H105   C508    1.103   1_545 S
H107   C299    1.113   .     S
H108   C299    1.108   .     S
H115   C161    1.108   .     S
H118   C506    1.113   1_545 S
H120   C506    1.109   1_545 S
H122   C297    1.112   .     S
N123   Zn140   2.022   .     S
N123   N194    1.281   .     S
N123   O199    1.347   .     S
N124   Zn139   2.022   .     S
O125   Zn139   1.976   .     S
O127   C508    1.414   1_545 S
O127   C514    1.399   1_545 S
O128   C305    1.390   .     S
O128   C299    1.414   .     S
O130   C161    1.399   .     S
O130   N194    1.346   .     S
O131   Zn140   1.976   .     S
O132   Zn140   1.992   .     S
O133   Zn139   1.992   .     S
O134   Zn139   2.000   .     S
O135   Zn140   2.000   .     S
O136   Zn140   2.003   .     S
O137   Zn139   2.003   .     S
C141   C164    1.430   .     S
C141   O202    1.292   .     A
C141   O195    1.284   .     A
C142   C144    1.388   .     A
C142   H182    1.083   .     S
C142   C153    1.387   .     A
C143   C167    1.417   .     S
C143   C168    1.389   .     A
C143   C145    1.389   .     A
C144   C166    1.416   .     S
C144   C146    1.389   .     A
C145   C147    1.385   .     A
C145   H186    1.085   .     S
C146   H187    1.085   .     S
C146   C148    1.385   .     A
C147   C154    1.402   .     A
C147   C149    1.415   .     A
C148   C150    1.415   .     A
C148   C155    1.401   .     A
C149   C151    1.417   .     A
C149   C780    1.391   1_554 S
C150   C153    1.417   .     A
C150   C779    1.391   .     S
C151   C168    1.387   .     A
C151   C163    1.408   .     A
C152   C165    1.421   .     S
C152   O201    1.280   .     A
C152   O203    1.292   .     A
C153   C162    1.408   .     A
C154   F169    1.359   .     S
C154   C792    1.395   1_554 S
C155   F170    1.360   .     S
C155   C793    1.395   .     S
C156   O208    1.411   .     S
C156   H189    1.114   .     S
C156   H398    1.113   .     S
C156   H400    1.109   .     S
C157   O196    1.411   .     S
C157   H191    1.114   .     S
C157   H592    1.109   1_545 S
C157   H612    1.112   1_545 S
C158   H174    1.107   .     S
C158   H173    1.115   .     S
C158   H385    1.103   .     S
C158   O407    1.414   .     S
C159   H176    1.110   .     S
C159   H597    1.113   1_545 S
C159   H598    1.108   1_545 S
C159   O618    1.414   1_545 S
C160   H180    1.106   .     S
C160   H179    1.112   .     S
C160   H41     1.109   1_655 S
C160   O59     1.399   1_655 S
C161   H184    1.113   .     S
C161   H183    1.104   .     S
C162   O208    1.384   .     S
C162   C784    1.395   .     S
C163   O196    1.384   .     S
C163   C785    1.395   1_554 S
C164   C375    1.358   .     S
C164   O407    1.399   .     S
C165   C584    1.358   1_545 S
C165   O618    1.390   1_545 S
C166   O206    1.288   .     A
C166   O204    1.286   .     A
C167   O205    1.287   .     A
C167   O207    1.288   .     A
C168   H171    1.084   .     S
H172   C367    1.109   .     S
H175   C578    1.103   1_545 S
H177   C369    1.113   .     S
H178   C369    1.108   .     S
H185   C21     1.108   1_655 S
H188   C576    1.113   1_545 S
H190   C576    1.109   1_545 S
H192   C367    1.112   .     S
N193   Zn210   2.022   .     S
N193   N54     1.281   1_655 S
N193   O59     1.347   1_655 S
N194   Zn209   2.022   .     S
O195   Zn209   1.976   .     S
O197   C578    1.414   1_545 S
O197   C584    1.399   1_545 S
O198   C375    1.390   .     S
O198   C369    1.414   .     S
O200   C21     1.399   1_655 S
O200   N54     1.346   1_655 S
O201   Zn210   1.976   .     S
O202   Zn210   1.992   .     S
O203   Zn209   1.992   .     S
O204   Zn209   2.000   .     S
O205   Zn210   2.000   .     S
O206   Zn210   2.003   .     S
O207   Zn209   2.003   .     S
C211   C234    1.430   .     S
C211   O272    1.292   .     A
C211   O265    1.284   .     A
C212   C214    1.388   .     A
C212   H252    1.083   .     S
C212   C223    1.387   .     A
C213   C237    1.417   .     S
C213   C238    1.389   .     A
C213   C215    1.389   .     A
C214   C236    1.416   .     S
C214   C216    1.389   .     A
C215   C217    1.385   .     A
C215   H256    1.085   .     S
C216   H257    1.085   .     S
C216   C218    1.385   .     A
C217   C224    1.402   .     A
C217   C219    1.415   .     A
C218   C220    1.415   .     A
C218   C225    1.401   .     A
C219   C221    1.417   .     A
C219   C850    1.391   1_554 S
C220   C223    1.417   .     A
C220   C849    1.391   .     S
C221   C238    1.387   .     A
C221   C233    1.408   .     A
C222   C235    1.421   .     S
C222   O271    1.280   .     A
C222   O273    1.292   .     A
C223   C232    1.408   .     A
C224   F239    1.359   .     S
C224   C862    1.395   1_554 S
C225   F240    1.360   .     S
C225   C863    1.395   .     S
C226   O278    1.411   .     S
C226   H259    1.114   .     S
C226   H468    1.113   .     S
C226   H470    1.109   .     S
C227   O266    1.411   .     S
C227   H261    1.114   .     S
C228   H244    1.107   .     S
C228   H243    1.115   .     S
C228   H455    1.103   .     S
C228   O477    1.414   .     S
C229   H246    1.110   .     S
C230   H250    1.106   .     S
C230   H249    1.112   .     S
C230   H321    1.109   .     S
C230   O339    1.399   .     S
C231   H254    1.113   .     S
C231   H253    1.104   .     S
C231   H395    1.108   1_455 S
C231   O410    1.399   1_455 S
C232   O278    1.384   .     S
C232   C854    1.395   .     S
C233   O266    1.384   .     S
C233   C855    1.395   1_554 S
C234   C445    1.358   .     S
C234   O477    1.399   .     S
C236   O276    1.288   .     A
C236   O274    1.286   .     A
C237   O275    1.287   .     A
C237   O277    1.288   .     A
C238   H241    1.084   .     S
H242   C437    1.109   .     S
H247   C439    1.113   .     S
H248   C439    1.108   .     S
H251   C370    1.109   1_455 S
H255   C301    1.108   .     S
H262   C437    1.112   .     S
N263   Zn280   2.022   .     S
N263   N334    1.281   .     S
N263   O339    1.347   .     S
N264   Zn279   2.022   .     S
N264   N403    1.281   1_455 S
N264   O410    1.346   1_455 S
O265   Zn279   1.976   .     S
O268   C445    1.390   .     S
O268   C439    1.414   .     S
O269   N403    1.347   1_455 S
O269   C370    1.399   1_455 S
O270   C301    1.399   .     S
O270   N334    1.346   .     S
O271   Zn280   1.976   .     S
O272   Zn280   1.992   .     S
O273   Zn279   1.992   .     S
O274   Zn279   2.000   .     S
O275   Zn280   2.000   .     S
O276   Zn280   2.003   .     S
O277   Zn279   2.003   .     S
C281   C304    1.430   .     S
C281   O342    1.292   .     A
C281   O335    1.284   .     A
C282   C284    1.388   .     A
C282   H322    1.083   .     S
C282   C293    1.387   .     A
C283   C307    1.417   .     S
C283   C308    1.389   .     A
C283   C285    1.389   .     A
C284   C306    1.416   .     S
C284   C286    1.389   .     A
C285   C287    1.385   .     A
C285   H326    1.085   .     S
C286   H327    1.085   .     S
C286   C288    1.385   .     A
C287   C294    1.402   .     A
C287   C289    1.415   .     A
C288   C290    1.415   .     A
C288   C295    1.401   .     A
C289   C291    1.417   .     A
C289   C920    1.391   1_554 S
C290   C293    1.417   .     A
C290   C919    1.391   .     S
C291   C308    1.387   .     A
C291   C303    1.408   .     A
C292   C305    1.421   .     S
C292   O341    1.280   .     A
C292   O343    1.292   .     A
C293   C302    1.408   .     A
C294   F309    1.359   .     S
C294   C932    1.395   1_554 S
C295   F310    1.360   .     S
C295   C933    1.395   .     S
C296   O348    1.411   .     S
C296   H329    1.114   .     S
C296   H538    1.113   .     S
C296   H540    1.109   .     S
C297   O336    1.411   .     S
C297   H331    1.114   .     S
C298   H314    1.107   .     S
C298   H313    1.115   .     S
C298   H525    1.103   .     S
C298   O547    1.414   .     S
C299   H316    1.110   .     S
C300   H320    1.106   .     S
C300   H319    1.112   .     S
C300   H391    1.109   .     S
C300   O409    1.399   .     S
C301   H324    1.113   .     S
C301   H323    1.104   .     S
C302   O348    1.384   .     S
C302   C924    1.395   .     S
C303   O336    1.384   .     S
C303   C925    1.395   1_554 S
C304   C515    1.358   .     S
C304   O547    1.399   .     S
C306   O346    1.288   .     A
C306   O344    1.286   .     A
C307   O345    1.287   .     A
C307   O347    1.288   .     A
C308   H311    1.084   .     S
H312   C507    1.109   .     S
H317   C509    1.113   .     S
H318   C509    1.108   .     S
H325   C371    1.108   .     S
H332   C507    1.112   .     S
N333   Zn350   2.022   .     S
N333   N404    1.281   .     S
N333   O409    1.347   .     S
N334   Zn349   2.022   .     S
O335   Zn349   1.976   .     S
O338   C515    1.390   .     S
O338   C509    1.414   .     S
O340   C371    1.399   .     S
O340   N404    1.346   .     S
O341   Zn350   1.976   .     S
O342   Zn350   1.992   .     S
O343   Zn349   1.992   .     S
O344   Zn349   2.000   .     S
O345   Zn350   2.000   .     S
O346   Zn350   2.003   .     S
O347   Zn349   2.003   .     S
C351   C374    1.430   .     S
C351   O412    1.292   .     A
C351   O405    1.284   .     A
C352   C354    1.388   .     A
C352   H392    1.083   .     S
C352   C363    1.387   .     A
C353   C377    1.417   .     S
C353   C378    1.389   .     A
C353   C355    1.389   .     A
C354   C376    1.416   .     S
C354   C356    1.389   .     A
C355   C357    1.385   .     A
C355   H396    1.085   .     S
C356   H397    1.085   .     S
C356   C358    1.385   .     A
C357   C364    1.402   .     A
C357   C359    1.415   .     A
C358   C360    1.415   .     A
C358   C365    1.401   .     A
C359   C361    1.417   .     A
C359   C990    1.391   1_554 S
C360   C363    1.417   .     A
C360   C989    1.391   .     S
C361   C378    1.387   .     A
C361   C373    1.408   .     A
C362   C375    1.421   .     S
C362   O411    1.280   .     A
C362   O413    1.292   .     A
C363   C372    1.408   .     A
C364   F379    1.359   .     S
C364   C1002   1.395   1_554 S
C365   F380    1.360   .     S
C365   C1003   1.395   .     S
C366   O418    1.411   .     S
C366   H399    1.114   .     S
C366   H608    1.113   .     S
C366   H610    1.109   .     S
C367   O406    1.411   .     S
C367   H401    1.114   .     S
C368   H384    1.107   .     S
C368   H383    1.115   .     S
C368   H595    1.103   .     S
C368   O617    1.414   .     S
C369   H386    1.110   .     S
C370   H390    1.106   .     S
C370   H389    1.112   .     S
C370   H251    1.109   1_655 S
C370   O269    1.399   1_655 S
C371   H394    1.113   .     S
C371   H393    1.104   .     S
C372   O418    1.384   .     S
C372   C994    1.395   .     S
C373   O406    1.384   .     S
C373   C995    1.395   1_554 S
C374   C585    1.358   .     S
C374   O617    1.399   .     S
C376   O416    1.288   .     A
C376   O414    1.286   .     A
C377   O415    1.287   .     A
C377   O417    1.288   .     A
C378   H381    1.084   .     S
H382   C577    1.109   .     S
H387   C579    1.113   .     S
H388   C579    1.108   .     S
H395   C231    1.108   1_655 S
H402   C577    1.112   .     S
N403   Zn420   2.022   .     S
N403   N264    1.281   1_655 S
N403   O269    1.347   1_655 S
N404   Zn419   2.022   .     S
O405   Zn419   1.976   .     S
O408   C585    1.390   .     S
O408   C579    1.414   .     S
O410   C231    1.399   1_655 S
O410   N264    1.346   1_655 S
O411   Zn420   1.976   .     S
O412   Zn420   1.992   .     S
O413   Zn419   1.992   .     S
O414   Zn419   2.000   .     S
O415   Zn420   2.000   .     S
O416   Zn420   2.003   .     S
O417   Zn419   2.003   .     S
C421   C444    1.430   .     S
C421   O482    1.292   .     A
C421   O475    1.284   .     A
C422   C424    1.388   .     A
C422   H462    1.083   .     S
C422   C433    1.387   .     A
C423   C447    1.417   .     S
C423   C448    1.389   .     A
C423   C425    1.389   .     A
C424   C446    1.416   .     S
C424   C426    1.389   .     A
C425   C427    1.385   .     A
C425   H466    1.085   .     S
C426   H467    1.085   .     S
C426   C428    1.385   .     A
C427   C434    1.402   .     A
C427   C429    1.415   .     A
C428   C430    1.415   .     A
C428   C435    1.401   .     A
C429   C431    1.417   .     A
C429   C1060   1.391   1_554 S
C430   C433    1.417   .     A
C430   C1059   1.391   .     S
C431   C448    1.387   .     A
C431   C443    1.408   .     A
C432   C445    1.421   .     S
C432   O481    1.280   .     A
C432   O483    1.292   .     A
C433   C442    1.408   .     A
C434   F449    1.359   .     S
C434   C1072   1.395   1_554 S
C435   F450    1.360   .     S
C435   C1073   1.395   .     S
C436   O488    1.411   .     S
C436   H469    1.114   .     S
C436   H48     1.113   1_565 S
C436   H50     1.109   1_565 S
C437   O476    1.411   .     S
C437   H471    1.114   .     S
C438   H454    1.107   .     S
C438   H453    1.115   .     S
C438   H35     1.103   1_565 S
C438   O57     1.414   1_565 S
C439   H456    1.110   .     S
C440   H460    1.106   .     S
C440   H459    1.112   .     S
C440   H531    1.109   .     S
C440   O549    1.399   .     S
C441   H464    1.113   .     S
C441   H463    1.104   .     S
C441   H605    1.108   1_455 S
C441   O620    1.399   1_455 S
C442   O488    1.384   .     S
C442   C1064   1.395   .     S
C443   O476    1.384   .     S
C443   C1065   1.395   1_554 S
C444   C25     1.358   1_565 S
C444   O57     1.399   1_565 S
C446   O486    1.288   .     A
C446   O484    1.286   .     A
C447   O485    1.287   .     A
C447   O487    1.288   .     A
C448   H451    1.084   .     S
H452   C17     1.109   1_565 S
H457   C19     1.113   1_565 S
H458   C19     1.108   1_565 S
H461   C580    1.109   1_455 S
H465   C511    1.108   .     S
H472   C17     1.112   1_565 S
N473   Zn490   2.022   .     S
N473   N544    1.281   .     S
N473   O549    1.347   .     S
N474   Zn489   2.022   .     S
N474   N613    1.281   1_455 S
N474   O620    1.346   1_455 S
O475   Zn489   1.976   .     S
O478   C25     1.390   1_565 S
O478   C19     1.414   1_565 S
O479   N613    1.347   1_455 S
O479   C580    1.399   1_455 S
O480   C511    1.399   .     S
O480   N544    1.346   .     S
O481   Zn490   1.976   .     S
O482   Zn490   1.992   .     S
O483   Zn489   1.992   .     S
O484   Zn489   2.000   .     S
O485   Zn490   2.000   .     S
O486   Zn490   2.003   .     S
O487   Zn489   2.003   .     S
C491   C514    1.430   .     S
C491   O552    1.292   .     A
C491   O545    1.284   .     A
C492   C494    1.388   .     A
C492   H532    1.083   .     S
C492   C503    1.387   .     A
C493   C517    1.417   .     S
C493   C518    1.389   .     A
C493   C495    1.389   .     A
C494   C516    1.416   .     S
C494   C496    1.389   .     A
C495   C497    1.385   .     A
C495   H536    1.085   .     S
C496   H537    1.085   .     S
C496   C498    1.385   .     A
C497   C504    1.402   .     A
C497   C499    1.415   .     A
C498   C500    1.415   .     A
C498   C505    1.401   .     A
C499   C501    1.417   .     A
C499   C1130   1.391   1_554 S
C500   C503    1.417   .     A
C500   C1129   1.391   .     S
C501   C518    1.387   .     A
C501   C513    1.408   .     A
C502   C515    1.421   .     S
C502   O551    1.280   .     A
C502   O553    1.292   .     A
C503   C512    1.408   .     A
C504   F519    1.359   .     S
C504   C1142   1.395   1_554 S
C505   F520    1.360   .     S
C505   C1143   1.395   .     S
C506   O558    1.411   .     S
C506   H539    1.114   .     S
C506   H118    1.113   1_565 S
C506   H120    1.109   1_565 S
C507   O546    1.411   .     S
C507   H541    1.114   .     S
C508   H524    1.107   .     S
C508   H523    1.115   .     S
C508   H105    1.103   1_565 S
C508   O127    1.414   1_565 S
C509   H526    1.110   .     S
C510   H530    1.106   .     S
C510   H529    1.112   .     S
C510   H601    1.109   .     S
C510   O619    1.399   .     S
C511   H534    1.113   .     S
C511   H533    1.104   .     S
C512   O558    1.384   .     S
C512   C1134   1.395   .     S
C513   O546    1.384   .     S
C513   C1135   1.395   1_554 S
C514   C95     1.358   1_565 S
C514   O127    1.399   1_565 S
C516   O556    1.288   .     A
C516   O554    1.286   .     A
C517   O555    1.287   .     A
C517   O557    1.288   .     A
C518   H521    1.084   .     S
H522   C87     1.109   1_565 S
H527   C89     1.113   1_565 S
H528   C89     1.108   1_565 S
H535   C581    1.108   .     S
H542   C87     1.112   1_565 S
N543   Zn560   2.022   .     S
N543   N614    1.281   .     S
N543   O619    1.347   .     S
N544   Zn559   2.022   .     S
O545   Zn559   1.976   .     S
O548   C95     1.390   1_565 S
O548   C89     1.414   1_565 S
O550   C581    1.399   .     S
O550   N614    1.346   .     S
O551   Zn560   1.976   .     S
O552   Zn560   1.992   .     S
O553   Zn559   1.992   .     S
O554   Zn559   2.000   .     S
O555   Zn560   2.000   .     S
O556   Zn560   2.003   .     S
O557   Zn559   2.003   .     S
C561   C584    1.430   .     S
C561   O622    1.292   .     A
C561   O615    1.284   .     A
C562   C564    1.388   .     A
C562   H602    1.083   .     S
C562   C573    1.387   .     A
C563   C587    1.417   .     S
C563   C588    1.389   .     A
C563   C565    1.389   .     A
C564   C586    1.416   .     S
C564   C566    1.389   .     A
C565   C567    1.385   .     A
C565   H606    1.085   .     S
C566   H607    1.085   .     S
C566   C568    1.385   .     A
C567   C574    1.402   .     A
C567   C569    1.415   .     A
C568   C570    1.415   .     A
C568   C575    1.401   .     A
C569   C571    1.417   .     A
C569   C1200   1.391   1_554 S
C570   C573    1.417   .     A
C570   C1199   1.391   .     S
C571   C588    1.387   .     A
C571   C583    1.408   .     A
C572   C585    1.421   .     S
C572   O621    1.280   .     A
C572   O623    1.292   .     A
C573   C582    1.408   .     A
C574   F589    1.359   .     S
C574   C1212   1.395   1_554 S
C575   F590    1.360   .     S
C575   C1213   1.395   .     S
C576   O628    1.411   .     S
C576   H609    1.114   .     S
C576   H188    1.113   1_565 S
C576   H190    1.109   1_565 S
C577   O616    1.411   .     S
C577   H611    1.114   .     S
C578   H594    1.107   .     S
C578   H593    1.115   .     S
C578   H175    1.103   1_565 S
C578   O197    1.414   1_565 S
C579   H596    1.110   .     S
C580   H600    1.106   .     S
C580   H599    1.112   .     S
C580   H461    1.109   1_655 S
C580   O479    1.399   1_655 S
C581   H604    1.113   .     S
C581   H603    1.104   .     S
C582   O628    1.384   .     S
C582   C1204   1.395   .     S
C583   O616    1.384   .     S
C583   C1205   1.395   1_554 S
C584   C165    1.358   1_565 S
C584   O197    1.399   1_565 S
C586   O626    1.288   .     A
C586   O624    1.286   .     A
C587   O625    1.287   .     A
C587   O627    1.288   .     A
C588   H591    1.084   .     S
H592   C157    1.109   1_565 S
H597   C159    1.113   1_565 S
H598   C159    1.108   1_565 S
H605   C441    1.108   1_655 S
H612   C157    1.112   1_565 S
N613   Zn630   2.022   .     S
N613   N474    1.281   1_655 S
N613   O479    1.347   1_655 S
N614   Zn629   2.022   .     S
O615   Zn629   1.976   .     S
O618   C165    1.390   1_565 S
O618   C159    1.414   1_565 S
O620   C441    1.399   1_655 S
O620   N474    1.346   1_655 S
O621   Zn630   1.976   .     S
O622   Zn630   1.992   .     S
O623   Zn629   1.992   .     S
O624   Zn629   2.000   .     S
O625   Zn630   2.000   .     S
O626   Zn630   2.003   .     S
O627   Zn629   2.003   .     S
C631   C654    1.430   .     S
C631   O692    1.292   .     A
C631   O685    1.284   .     A
C632   C634    1.388   .     A
C632   H672    1.083   .     S
C632   C643    1.387   .     A
C633   C657    1.417   .     S
C633   C658    1.389   .     A
C633   C635    1.389   .     A
C634   C656    1.416   .     S
C634   C636    1.389   .     A
C635   C637    1.385   .     A
C635   H676    1.085   .     S
C636   H677    1.085   .     S
C636   C638    1.385   .     A
C637   C644    1.402   .     A
C637   C639    1.415   .     A
C638   C640    1.415   .     A
C638   C645    1.401   .     A
C639   C641    1.417   .     A
C640   C643    1.417   .     A
C640   C9      1.391   1_556 S
C641   C658    1.387   .     A
C641   C653    1.408   .     A
C642   C655    1.421   .     S
C642   O691    1.280   .     A
C642   O693    1.292   .     A
C643   C652    1.408   .     A
C644   F659    1.359   .     S
C645   F660    1.360   .     S
C645   C23     1.395   1_556 S
C646   O698    1.411   .     S
C646   H679    1.114   .     S
C646   H888    1.113   .     S
C646   H890    1.109   .     S
C647   O686    1.411   .     S
C647   H681    1.114   .     S
C647   H1082   1.109   1_545 S
C647   H1102   1.112   1_545 S
C648   H664    1.107   .     S
C648   H663    1.115   .     S
C648   H875    1.103   .     S
C648   O897    1.414   .     S
C649   H666    1.110   .     S
C649   H1087   1.113   1_545 S
C649   H1088   1.108   1_545 S
C649   O1108   1.414   1_545 S
C650   H670    1.106   .     S
C650   H669    1.112   .     S
C650   H741    1.109   .     S
C650   O759    1.399   .     S
C651   H674    1.113   .     S
C651   H673    1.104   .     S
C651   H815    1.108   1_455 S
C651   O830    1.399   1_455 S
C652   O698    1.384   .     S
C652   C14     1.395   1_556 S
C653   O686    1.384   .     S
C654   C865    1.358   .     S
C654   O897    1.399   .     S
C655   C1074   1.358   1_545 S
C655   O1108   1.390   1_545 S
C656   O696    1.288   .     A
C656   O694    1.286   .     A
C657   O695    1.287   .     A
C657   O697    1.288   .     A
C658   H661    1.084   .     S
H662   C857    1.109   .     S
H665   C1068   1.103   1_545 S
H667   C859    1.113   .     S
H668   C859    1.108   .     S
H671   C790    1.109   1_455 S
H675   C721    1.108   .     S
H678   C1066   1.113   1_545 S
H680   C1066   1.109   1_545 S
H682   C857    1.112   .     S
N683   Zn700   2.022   .     S
N683   N754    1.281   .     S
N683   O759    1.347   .     S
N684   Zn699   2.022   .     S
N684   N823    1.281   1_455 S
N684   O830    1.346   1_455 S
O685   Zn699   1.976   .     S
O687   C1068   1.414   1_545 S
O687   C1074   1.399   1_545 S
O688   C865    1.390   .     S
O688   C859    1.414   .     S
O689   N823    1.347   1_455 S
O689   C790    1.399   1_455 S
O690   C721    1.399   .     S
O690   N754    1.346   .     S
O691   Zn700   1.976   .     S
O692   Zn700   1.992   .     S
O693   Zn699   1.992   .     S
O694   Zn699   2.000   .     S
O695   Zn700   2.000   .     S
O696   Zn700   2.003   .     S
O697   Zn699   2.003   .     S
C701   C724    1.430   .     S
C701   O762    1.292   .     A
C701   O755    1.284   .     A
C702   C704    1.388   .     A
C702   H742    1.083   .     S
C702   C713    1.387   .     A
C703   C727    1.417   .     S
C703   C728    1.389   .     A
C703   C705    1.389   .     A
C704   C726    1.416   .     S
C704   C706    1.389   .     A
C705   C707    1.385   .     A
C705   H746    1.085   .     S
C706   H747    1.085   .     S
C706   C708    1.385   .     A
C707   C714    1.402   .     A
C707   C709    1.415   .     A
C708   C710    1.415   .     A
C708   C715    1.401   .     A
C709   C711    1.417   .     A
C710   C713    1.417   .     A
C710   C79     1.391   1_556 S
C711   C728    1.387   .     A
C711   C723    1.408   .     A
C712   C725    1.421   .     S
C712   O761    1.280   .     A
C712   O763    1.292   .     A
C713   C722    1.408   .     A
C714   F729    1.359   .     S
C715   F730    1.360   .     S
C715   C93     1.395   1_556 S
C716   O768    1.411   .     S
C716   H749    1.114   .     S
C716   H958    1.113   .     S
C716   H960    1.109   .     S
C717   O756    1.411   .     S
C717   H751    1.114   .     S
C717   H1152   1.109   1_545 S
C717   H1172   1.112   1_545 S
C718   H734    1.107   .     S
C718   H733    1.115   .     S
C718   H945    1.103   .     S
C718   O967    1.414   .     S
C719   H736    1.110   .     S
C719   H1157   1.113   1_545 S
C719   H1158   1.108   1_545 S
C719   O1178   1.414   1_545 S
C720   H740    1.106   .     S
C720   H739    1.112   .     S
C720   H811    1.109   .     S
C720   O829    1.399   .     S
C721   H744    1.113   .     S
C721   H743    1.104   .     S
C722   O768    1.384   .     S
C722   C84     1.395   1_556 S
C723   O756    1.384   .     S
C724   C935    1.358   .     S
C724   O967    1.399   .     S
C725   C1144   1.358   1_545 S
C725   O1178   1.390   1_545 S
C726   O766    1.288   .     A
C726   O764    1.286   .     A
C727   O765    1.287   .     A
C727   O767    1.288   .     A
C728   H731    1.084   .     S
H732   C927    1.109   .     S
H735   C1138   1.103   1_545 S
H737   C929    1.113   .     S
H738   C929    1.108   .     S
H745   C791    1.108   .     S
H748   C1136   1.113   1_545 S
H750   C1136   1.109   1_545 S
H752   C927    1.112   .     S
N753   Zn770   2.022   .     S
N753   N824    1.281   .     S
N753   O829    1.347   .     S
N754   Zn769   2.022   .     S
O755   Zn769   1.976   .     S
O757   C1138   1.414   1_545 S
O757   C1144   1.399   1_545 S
O758   C935    1.390   .     S
O758   C929    1.414   .     S
O760   C791    1.399   .     S
O760   N824    1.346   .     S
O761   Zn770   1.976   .     S
O762   Zn770   1.992   .     S
O763   Zn769   1.992   .     S
O764   Zn769   2.000   .     S
O765   Zn770   2.000   .     S
O766   Zn770   2.003   .     S
O767   Zn769   2.003   .     S
C771   C794    1.430   .     S
C771   O832    1.292   .     A
C771   O825    1.284   .     A
C772   C774    1.388   .     A
C772   H812    1.083   .     S
C772   C783    1.387   .     A
C773   C797    1.417   .     S
C773   C798    1.389   .     A
C773   C775    1.389   .     A
C774   C796    1.416   .     S
C774   C776    1.389   .     A
C775   C777    1.385   .     A
C775   H816    1.085   .     S
C776   H817    1.085   .     S
C776   C778    1.385   .     A
C777   C784    1.402   .     A
C777   C779    1.415   .     A
C778   C780    1.415   .     A
C778   C785    1.401   .     A
C779   C781    1.417   .     A
C780   C783    1.417   .     A
C780   C149    1.391   1_556 S
C781   C798    1.387   .     A
C781   C793    1.408   .     A
C782   C795    1.421   .     S
C782   O831    1.280   .     A
C782   O833    1.292   .     A
C783   C792    1.408   .     A
C784   F799    1.359   .     S
C785   F800    1.360   .     S
C785   C163    1.395   1_556 S
C786   O838    1.411   .     S
C786   H819    1.114   .     S
C786   H1028   1.113   .     S
C786   H1030   1.109   .     S
C787   O826    1.411   .     S
C787   H821    1.114   .     S
C787   H1222   1.109   1_545 S
C787   H1242   1.112   1_545 S
C788   H804    1.107   .     S
C788   H803    1.115   .     S
C788   H1015   1.103   .     S
C788   O1037   1.414   .     S
C789   H806    1.110   .     S
C789   H1227   1.113   1_545 S
C789   H1228   1.108   1_545 S
C789   O1248   1.414   1_545 S
C790   H810    1.106   .     S
C790   H809    1.112   .     S
C790   H671    1.109   1_655 S
C790   O689    1.399   1_655 S
C791   H814    1.113   .     S
C791   H813    1.104   .     S
C792   O838    1.384   .     S
C792   C154    1.395   1_556 S
C793   O826    1.384   .     S
C794   C1005   1.358   .     S
C794   O1037   1.399   .     S
C795   C1214   1.358   1_545 S
C795   O1248   1.390   1_545 S
C796   O836    1.288   .     A
C796   O834    1.286   .     A
C797   O835    1.287   .     A
C797   O837    1.288   .     A
C798   H801    1.084   .     S
H802   C997    1.109   .     S
H805   C1208   1.103   1_545 S
H807   C999    1.113   .     S
H808   C999    1.108   .     S
H815   C651    1.108   1_655 S
H818   C1206   1.113   1_545 S
H820   C1206   1.109   1_545 S
H822   C997    1.112   .     S
N823   Zn840   2.022   .     S
N823   N684    1.281   1_655 S
N823   O689    1.347   1_655 S
N824   Zn839   2.022   .     S
O825   Zn839   1.976   .     S
O827   C1208   1.414   1_545 S
O827   C1214   1.399   1_545 S
O828   C1005   1.390   .     S
O828   C999    1.414   .     S
O830   C651    1.399   1_655 S
O830   N684    1.346   1_655 S
O831   Zn840   1.976   .     S
O832   Zn840   1.992   .     S
O833   Zn839   1.992   .     S
O834   Zn839   2.000   .     S
O835   Zn840   2.000   .     S
O836   Zn840   2.003   .     S
O837   Zn839   2.003   .     S
C841   C864    1.430   .     S
C841   O902    1.292   .     A
C841   O895    1.284   .     A
C842   C844    1.388   .     A
C842   H882    1.083   .     S
C842   C853    1.387   .     A
C843   C867    1.417   .     S
C843   C868    1.389   .     A
C843   C845    1.389   .     A
C844   C866    1.416   .     S
C844   C846    1.389   .     A
C845   C847    1.385   .     A
C845   H886    1.085   .     S
C846   H887    1.085   .     S
C846   C848    1.385   .     A
C847   C854    1.402   .     A
C847   C849    1.415   .     A
C848   C850    1.415   .     A
C848   C855    1.401   .     A
C849   C851    1.417   .     A
C850   C853    1.417   .     A
C850   C219    1.391   1_556 S
C851   C868    1.387   .     A
C851   C863    1.408   .     A
C852   C865    1.421   .     S
C852   O901    1.280   .     A
C852   O903    1.292   .     A
C853   C862    1.408   .     A
C854   F869    1.359   .     S
C855   F870    1.360   .     S
C855   C233    1.395   1_556 S
C856   O908    1.411   .     S
C856   H889    1.114   .     S
C856   H1098   1.113   .     S
C856   H1100   1.109   .     S
C857   O896    1.411   .     S
C857   H891    1.114   .     S
C858   H874    1.107   .     S
C858   H873    1.115   .     S
C858   H1085   1.103   .     S
C858   O1107   1.414   .     S
C859   H876    1.110   .     S
C860   H880    1.106   .     S
C860   H879    1.112   .     S
C860   H951    1.109   .     S
C860   O969    1.399   .     S
C861   H884    1.113   .     S
C861   H883    1.104   .     S
C861   H1025   1.108   1_455 S
C861   O1040   1.399   1_455 S
C862   O908    1.384   .     S
C862   C224    1.395   1_556 S
C863   O896    1.384   .     S
C864   C1075   1.358   .     S
C864   O1107   1.399   .     S
C866   O906    1.288   .     A
C866   O904    1.286   .     A
C867   O905    1.287   .     A
C867   O907    1.288   .     A
C868   H871    1.084   .     S
H872   C1067   1.109   .     S
H877   C1069   1.113   .     S
H878   C1069   1.108   .     S
H881   C1000   1.109   1_455 S
H885   C931    1.108   .     S
H892   C1067   1.112   .     S
N893   Zn910   2.022   .     S
N893   N964    1.281   .     S
N893   O969    1.347   .     S
N894   Zn909   2.022   .     S
N894   N1033   1.281   1_455 S
N894   O1040   1.346   1_455 S
O895   Zn909   1.976   .     S
O898   C1075   1.390   .     S
O898   C1069   1.414   .     S
O899   N1033   1.347   1_455 S
O899   C1000   1.399   1_455 S
O900   C931    1.399   .     S
O900   N964    1.346   .     S
O901   Zn910   1.976   .     S
O902   Zn910   1.992   .     S
O903   Zn909   1.992   .     S
O904   Zn909   2.000   .     S
O905   Zn910   2.000   .     S
O906   Zn910   2.003   .     S
O907   Zn909   2.003   .     S
C911   C934    1.430   .     S
C911   O972    1.292   .     A
C911   O965    1.284   .     A
C912   C914    1.388   .     A
C912   H952    1.083   .     S
C912   C923    1.387   .     A
C913   C937    1.417   .     S
C913   C938    1.389   .     A
C913   C915    1.389   .     A
C914   C936    1.416   .     S
C914   C916    1.389   .     A
C915   C917    1.385   .     A
C915   H956    1.085   .     S
C916   H957    1.085   .     S
C916   C918    1.385   .     A
C917   C924    1.402   .     A
C917   C919    1.415   .     A
C918   C920    1.415   .     A
C918   C925    1.401   .     A
C919   C921    1.417   .     A
C920   C923    1.417   .     A
C920   C289    1.391   1_556 S
C921   C938    1.387   .     A
C921   C933    1.408   .     A
C922   C935    1.421   .     S
C922   O971    1.280   .     A
C922   O973    1.292   .     A
C923   C932    1.408   .     A
C924   F939    1.359   .     S
C925   F940    1.360   .     S
C925   C303    1.395   1_556 S
C926   O978    1.411   .     S
C926   H959    1.114   .     S
C926   H1168   1.113   .     S
C926   H1170   1.109   .     S
C927   O966    1.411   .     S
C927   H961    1.114   .     S
C928   H944    1.107   .     S
C928   H943    1.115   .     S
C928   H1155   1.103   .     S
C928   O1177   1.414   .     S
C929   H946    1.110   .     S
C930   H950    1.106   .     S
C930   H949    1.112   .     S
C930   H1021   1.109   .     S
C930   O1039   1.399   .     S
C931   H954    1.113   .     S
C931   H953    1.104   .     S
C932   O978    1.384   .     S
C932   C294    1.395   1_556 S
C933   O966    1.384   .     S
C934   C1145   1.358   .     S
C934   O1177   1.399   .     S
C936   O976    1.288   .     A
C936   O974    1.286   .     A
C937   O975    1.287   .     A
C937   O977    1.288   .     A
C938   H941    1.084   .     S
H942   C1137   1.109   .     S
H947   C1139   1.113   .     S
H948   C1139   1.108   .     S
H955   C1001   1.108   .     S
H962   C1137   1.112   .     S
N963   Zn980   2.022   .     S
N963   N1034   1.281   .     S
N963   O1039   1.347   .     S
N964   Zn979   2.022   .     S
O965   Zn979   1.976   .     S
O968   C1145   1.390   .     S
O968   C1139   1.414   .     S
O970   C1001   1.399   .     S
O970   N1034   1.346   .     S
O971   Zn980   1.976   .     S
O972   Zn980   1.992   .     S
O973   Zn979   1.992   .     S
O974   Zn979   2.000   .     S
O975   Zn980   2.000   .     S
O976   Zn980   2.003   .     S
O977   Zn979   2.003   .     S
C981   C1004   1.430   .     S
C981   O1042   1.292   .     A
C981   O1035   1.284   .     A
C982   C984    1.388   .     A
C982   H1022   1.083   .     S
C982   C993    1.387   .     A
C983   C1007   1.417   .     S
C983   C1008   1.389   .     A
C983   C985    1.389   .     A
C984   C1006   1.416   .     S
C984   C986    1.389   .     A
C985   C987    1.385   .     A
C985   H1026   1.085   .     S
C986   H1027   1.085   .     S
C986   C988    1.385   .     A
C987   C994    1.402   .     A
C987   C989    1.415   .     A
C988   C990    1.415   .     A
C988   C995    1.401   .     A
C989   C991    1.417   .     A
C990   C993    1.417   .     A
C990   C359    1.391   1_556 S
C991   C1008   1.387   .     A
C991   C1003   1.408   .     A
C992   C1005   1.421   .     S
C992   O1041   1.280   .     A
C992   O1043   1.292   .     A
C993   C1002   1.408   .     A
C994   F1009   1.359   .     S
C995   F1010   1.360   .     S
C995   C373    1.395   1_556 S
C996   O1048   1.411   .     S
C996   H1029   1.114   .     S
C996   H1238   1.113   .     S
C996   H1240   1.109   .     S
C997   O1036   1.411   .     S
C997   H1031   1.114   .     S
C998   H1014   1.107   .     S
C998   H1013   1.115   .     S
C998   H1225   1.103   .     S
C998   O1247   1.414   .     S
C999   H1016   1.110   .     S
C1000  H1020   1.106   .     S
C1000  H1019   1.112   .     S
C1000  H881    1.109   1_655 S
C1000  O899    1.399   1_655 S
C1001  H1024   1.113   .     S
C1001  H1023   1.104   .     S
C1002  O1048   1.384   .     S
C1002  C364    1.395   1_556 S
C1003  O1036   1.384   .     S
C1004  C1215   1.358   .     S
C1004  O1247   1.399   .     S
C1006  O1046   1.288   .     A
C1006  O1044   1.286   .     A
C1007  O1045   1.287   .     A
C1007  O1047   1.288   .     A
C1008  H1011   1.084   .     S
H1012  C1207   1.109   .     S
H1017  C1209   1.113   .     S
H1018  C1209   1.108   .     S
H1025  C861    1.108   1_655 S
H1032  C1207   1.112   .     S
N1033  Zn1050  2.022   .     S
N1033  N894    1.281   1_655 S
N1033  O899    1.347   1_655 S
N1034  Zn1049  2.022   .     S
O1035  Zn1049  1.976   .     S
O1038  C1215   1.390   .     S
O1038  C1209   1.414   .     S
O1040  C861    1.399   1_655 S
O1040  N894    1.346   1_655 S
O1041  Zn1050  1.976   .     S
O1042  Zn1050  1.992   .     S
O1043  Zn1049  1.992   .     S
O1044  Zn1049  2.000   .     S
O1045  Zn1050  2.000   .     S
O1046  Zn1050  2.003   .     S
O1047  Zn1049  2.003   .     S
C1051  C1074   1.430   .     S
C1051  O1112   1.292   .     A
C1051  O1105   1.284   .     A
C1052  C1054   1.388   .     A
C1052  H1092   1.083   .     S
C1052  C1063   1.387   .     A
C1053  C1077   1.417   .     S
C1053  C1078   1.389   .     A
C1053  C1055   1.389   .     A
C1054  C1076   1.416   .     S
C1054  C1056   1.389   .     A
C1055  C1057   1.385   .     A
C1055  H1096   1.085   .     S
C1056  H1097   1.085   .     S
C1056  C1058   1.385   .     A
C1057  C1064   1.402   .     A
C1057  C1059   1.415   .     A
C1058  C1060   1.415   .     A
C1058  C1065   1.401   .     A
C1059  C1061   1.417   .     A
C1060  C1063   1.417   .     A
C1060  C429    1.391   1_556 S
C1061  C1078   1.387   .     A
C1061  C1073   1.408   .     A
C1062  C1075   1.421   .     S
C1062  O1111   1.280   .     A
C1062  O1113   1.292   .     A
C1063  C1072   1.408   .     A
C1064  F1079   1.359   .     S
C1065  F1080   1.360   .     S
C1065  C443    1.395   1_556 S
C1066  O1118   1.411   .     S
C1066  H1099   1.114   .     S
C1066  H678    1.113   1_565 S
C1066  H680    1.109   1_565 S
C1067  O1106   1.411   .     S
C1067  H1101   1.114   .     S
C1068  H1084   1.107   .     S
C1068  H1083   1.115   .     S
C1068  H665    1.103   1_565 S
C1068  O687    1.414   1_565 S
C1069  H1086   1.110   .     S
C1070  H1090   1.106   .     S
C1070  H1089   1.112   .     S
C1070  H1161   1.109   .     S
C1070  O1179   1.399   .     S
C1071  H1094   1.113   .     S
C1071  H1093   1.104   .     S
C1071  H1235   1.108   1_455 S
C1071  O1250   1.399   1_455 S
C1072  O1118   1.384   .     S
C1072  C434    1.395   1_556 S
C1073  O1106   1.384   .     S
C1074  C655    1.358   1_565 S
C1074  O687    1.399   1_565 S
C1076  O1116   1.288   .     A
C1076  O1114   1.286   .     A
C1077  O1115   1.287   .     A
C1077  O1117   1.288   .     A
C1078  H1081   1.084   .     S
H1082  C647    1.109   1_565 S
H1087  C649    1.113   1_565 S
H1088  C649    1.108   1_565 S
H1091  C1210   1.109   1_455 S
H1095  C1141   1.108   .     S
H1102  C647    1.112   1_565 S
N1103  Zn1120  2.022   .     S
N1103  N1174   1.281   .     S
N1103  O1179   1.347   .     S
N1104  Zn1119  2.022   .     S
N1104  N1243   1.281   1_455 S
N1104  O1250   1.346   1_455 S
O1105  Zn1119  1.976   .     S
O1108  C655    1.390   1_565 S
O1108  C649    1.414   1_565 S
O1109  N1243   1.347   1_455 S
O1109  C1210   1.399   1_455 S
O1110  C1141   1.399   .     S
O1110  N1174   1.346   .     S
O1111  Zn1120  1.976   .     S
O1112  Zn1120  1.992   .     S
O1113  Zn1119  1.992   .     S
O1114  Zn1119  2.000   .     S
O1115  Zn1120  2.000   .     S
O1116  Zn1120  2.003   .     S
O1117  Zn1119  2.003   .     S
C1121  C1144   1.430   .     S
C1121  O1182   1.292   .     A
C1121  O1175   1.284   .     A
C1122  C1124   1.388   .     A
C1122  H1162   1.083   .     S
C1122  C1133   1.387   .     A
C1123  C1147   1.417   .     S
C1123  C1148   1.389   .     A
C1123  C1125   1.389   .     A
C1124  C1146   1.416   .     S
C1124  C1126   1.389   .     A
C1125  C1127   1.385   .     A
C1125  H1166   1.085   .     S
C1126  H1167   1.085   .     S
C1126  C1128   1.385   .     A
C1127  C1134   1.402   .     A
C1127  C1129   1.415   .     A
C1128  C1130   1.415   .     A
C1128  C1135   1.401   .     A
C1129  C1131   1.417   .     A
C1130  C1133   1.417   .     A
C1130  C499    1.391   1_556 S
C1131  C1148   1.387   .     A
C1131  C1143   1.408   .     A
C1132  C1145   1.421   .     S
C1132  O1181   1.280   .     A
C1132  O1183   1.292   .     A
C1133  C1142   1.408   .     A
C1134  F1149   1.359   .     S
C1135  F1150   1.360   .     S
C1135  C513    1.395   1_556 S
C1136  O1188   1.411   .     S
C1136  H1169   1.114   .     S
C1136  H748    1.113   1_565 S
C1136  H750    1.109   1_565 S
C1137  O1176   1.411   .     S
C1137  H1171   1.114   .     S
C1138  H1154   1.107   .     S
C1138  H1153   1.115   .     S
C1138  H735    1.103   1_565 S
C1138  O757    1.414   1_565 S
C1139  H1156   1.110   .     S
C1140  H1160   1.106   .     S
C1140  H1159   1.112   .     S
C1140  H1231   1.109   .     S
C1140  O1249   1.399   .     S
C1141  H1164   1.113   .     S
C1141  H1163   1.104   .     S
C1142  O1188   1.384   .     S
C1142  C504    1.395   1_556 S
C1143  O1176   1.384   .     S
C1144  C725    1.358   1_565 S
C1144  O757    1.399   1_565 S
C1146  O1186   1.288   .     A
C1146  O1184   1.286   .     A
C1147  O1185   1.287   .     A
C1147  O1187   1.288   .     A
C1148  H1151   1.084   .     S
H1152  C717    1.109   1_565 S
H1157  C719    1.113   1_565 S
H1158  C719    1.108   1_565 S
H1165  C1211   1.108   .     S
H1172  C717    1.112   1_565 S
N1173  Zn1190  2.022   .     S
N1173  N1244   1.281   .     S
N1173  O1249   1.347   .     S
N1174  Zn1189  2.022   .     S
O1175  Zn1189  1.976   .     S
O1178  C725    1.390   1_565 S
O1178  C719    1.414   1_565 S
O1180  C1211   1.399   .     S
O1180  N1244   1.346   .     S
O1181  Zn1190  1.976   .     S
O1182  Zn1190  1.992   .     S
O1183  Zn1189  1.992   .     S
O1184  Zn1189  2.000   .     S
O1185  Zn1190  2.000   .     S
O1186  Zn1190  2.003   .     S
O1187  Zn1189  2.003   .     S
C1191  C1214   1.430   .     S
C1191  O1252   1.292   .     A
C1191  O1245   1.284   .     A
C1192  C1194   1.388   .     A
C1192  H1232   1.083   .     S
C1192  C1203   1.387   .     A
C1193  C1217   1.417   .     S
C1193  C1218   1.389   .     A
C1193  C1195   1.389   .     A
C1194  C1216   1.416   .     S
C1194  C1196   1.389   .     A
C1195  C1197   1.385   .     A
C1195  H1236   1.085   .     S
C1196  H1237   1.085   .     S
C1196  C1198   1.385   .     A
C1197  C1204   1.402   .     A
C1197  C1199   1.415   .     A
C1198  C1200   1.415   .     A
C1198  C1205   1.401   .     A
C1199  C1201   1.417   .     A
C1200  C1203   1.417   .     A
C1200  C569    1.391   1_556 S
C1201  C1218   1.387   .     A
C1201  C1213   1.408   .     A
C1202  C1215   1.421   .     S
C1202  O1251   1.280   .     A
C1202  O1253   1.292   .     A
C1203  C1212   1.408   .     A
C1204  F1219   1.359   .     S
C1205  F1220   1.360   .     S
C1205  C583    1.395   1_556 S
C1206  O1258   1.411   .     S
C1206  H1239   1.114   .     S
C1206  H818    1.113   1_565 S
C1206  H820    1.109   1_565 S
C1207  O1246   1.411   .     S
C1207  H1241   1.114   .     S
C1208  H1224   1.107   .     S
C1208  H1223   1.115   .     S
C1208  H805    1.103   1_565 S
C1208  O827    1.414   1_565 S
C1209  H1226   1.110   .     S
C1210  H1230   1.106   .     S
C1210  H1229   1.112   .     S
C1210  H1091   1.109   1_655 S
C1210  O1109   1.399   1_655 S
C1211  H1234   1.113   .     S
C1211  H1233   1.104   .     S
C1212  O1258   1.384   .     S
C1212  C574    1.395   1_556 S
C1213  O1246   1.384   .     S
C1214  C795    1.358   1_565 S
C1214  O827    1.399   1_565 S
C1216  O1256   1.288   .     A
C1216  O1254   1.286   .     A
C1217  O1255   1.287   .     A
C1217  O1257   1.288   .     A
C1218  H1221   1.084   .     S
H1222  C787    1.109   1_565 S
H1227  C789    1.113   1_565 S
H1228  C789    1.108   1_565 S
H1235  C1071   1.108   1_655 S
H1242  C787    1.112   1_565 S
N1243  Zn1260  2.022   .     S
N1243  N1104   1.281   1_655 S
N1243  O1109   1.347   1_655 S
N1244  Zn1259  2.022   .     S
O1245  Zn1259  1.976   .     S
O1248  C795    1.390   1_565 S
O1248  C789    1.414   1_565 S
O1250  C1071   1.399   1_655 S
O1250  N1104   1.346   1_655 S
O1251  Zn1260  1.976   .     S
O1252  Zn1260  1.992   .     S
O1253  Zn1259  1.992   .     S
O1254  Zn1259  2.000   .     S
O1255  Zn1260  2.000   .     S
O1256  Zn1260  2.003   .     S
O1257  Zn1259  2.003   .     S
