data_str_m3_o1_o1_pcu_sym.85
_audit_creation_date              2020-01-03
_audit_creation_method            'Materials Studio'
_symmetry_space_group_name_H-M    'P1'
_symmetry_Int_Tables_number       1
_symmetry_cell_setting            triclinic
loop_
_symmetry_equiv_pos_as_xyz
  x,y,z
_cell_length_a                    30.9079
_cell_length_b                    30.0704
_cell_length_c                    29.4039
_cell_angle_alpha                 89.9999
_cell_angle_beta                  89.9999
_cell_angle_gamma                 90.0000
loop_
_atom_site_label
_atom_site_type_symbol
_atom_site_fract_x
_atom_site_fract_y
_atom_site_fract_z
_atom_site_U_iso_or_equiv
_atom_site_adp_type
_atom_site_occupancy
C1     C     0.06276   0.19285   0.16667   0.00000  Uiso   1.00
C2     C     0.43724   0.30715   0.16667   0.00000  Uiso   1.00
C3     C     0.43724   0.19285   0.16667   0.00000  Uiso   1.00
C4     C     0.06276   0.30715   0.16667   0.00000  Uiso   1.00
C5     C     0.31276   0.44285   0.16667   0.00000  Uiso   1.00
C6     C     0.18724   0.05715   0.16667   0.00000  Uiso   1.00
C7     C     0.18724   0.44285   0.16667   0.00000  Uiso   1.00
C8     C     0.31276   0.05715   0.16667   0.00000  Uiso   1.00
C9     C     0.00000   0.28925   0.02412   0.00000  Uiso   1.00
C10    C     0.00000   0.21075   0.30921   0.00000  Uiso   1.00
C11    C    -0.00000   0.21075   0.02412   0.00000  Uiso   1.00
C12    C     0.00000   0.28925   0.30921   0.00000  Uiso   1.00
C13    C     0.25000   0.03925   0.02412   0.00000  Uiso   1.00
C14    C     0.25000   0.46075   0.30921   0.00000  Uiso   1.00
C15    C     0.25000   0.46075   0.02412   0.00000  Uiso   1.00
C16    C     0.25000   0.03925   0.30921   0.00000  Uiso   1.00
C17    C     0.38662   0.14456   0.12496   0.00000  Uiso   1.00
C18    C     0.11338   0.35544   0.20838   0.00000  Uiso   1.00
C19    C     0.11338   0.35544   0.12496   0.00000  Uiso   1.00
C20    C     0.38662   0.14456   0.20838   0.00000  Uiso   1.00
C21    C     0.11338   0.14456   0.20838   0.00000  Uiso   1.00
C22    C     0.38662   0.35544   0.12496   0.00000  Uiso   1.00
C23    C     0.38662   0.35544   0.20838   0.00000  Uiso   1.00
C24    C     0.11338   0.14456   0.12496   0.00000  Uiso   1.00
C25    C     0.13662   0.39456   0.12496   0.00000  Uiso   1.00
C26    C     0.36338   0.10544   0.20838   0.00000  Uiso   1.00
C27    C     0.36338   0.10544   0.12496   0.00000  Uiso   1.00
C28    C     0.13662   0.39456   0.20838   0.00000  Uiso   1.00
C29    C     0.36338   0.39456   0.20838   0.00000  Uiso   1.00
C30    C     0.13662   0.10544   0.12496   0.00000  Uiso   1.00
C31    C     0.13662   0.10544   0.20838   0.00000  Uiso   1.00
C32    C     0.36338   0.39456   0.12496   0.00000  Uiso   1.00
C33    C     0.09849   0.33804   0.16667   0.00000  Uiso   1.00
C34    C     0.40151   0.16196   0.16667   0.00000  Uiso   1.00
C35    C     0.40151   0.33804   0.16667   0.00000  Uiso   1.00
C36    C     0.09849   0.16196   0.16667   0.00000  Uiso   1.00
C37    C     0.34849   0.08804   0.16667   0.00000  Uiso   1.00
C38    C     0.15151   0.41196   0.16667   0.00000  Uiso   1.00
C39    C     0.15151   0.08804   0.16667   0.00000  Uiso   1.00
C40    C     0.34849   0.41196   0.16667   0.00000  Uiso   1.00
N41    N     0.00000   0.25000   0.28573   0.00000  Uiso   1.00
N42    N     0.00000   0.25000   0.04760   0.00000  Uiso   1.00
N43    N     0.25000  -0.00000   0.28573   0.00000  Uiso   1.00
N44    N     0.25000  -0.00000   0.04760   0.00000  Uiso   1.00
O45    O     0.04580   0.20419   0.20487   0.00000  Uiso   1.00
O46    O     0.45419   0.29581   0.12846   0.00000  Uiso   1.00
O47    O     0.45419   0.29581   0.20487   0.00000  Uiso   1.00
O48    O     0.04580   0.20419   0.12846   0.00000  Uiso   1.00
O49    O     0.45419   0.20419   0.12846   0.00000  Uiso   1.00
O50    O     0.04580   0.29581   0.20487   0.00000  Uiso   1.00
O51    O     0.04580   0.29581   0.12846   0.00000  Uiso   1.00
O52    O     0.45419   0.20419   0.20487   0.00000  Uiso   1.00
O53    O     0.29580   0.45419   0.20487   0.00000  Uiso   1.00
O54    O     0.20419   0.04581   0.12846   0.00000  Uiso   1.00
O55    O     0.20419   0.04581   0.20487   0.00000  Uiso   1.00
O56    O     0.29580   0.45419   0.12846   0.00000  Uiso   1.00
O57    O     0.20419   0.45419   0.12846   0.00000  Uiso   1.00
O58    O     0.29580   0.04581   0.20487   0.00000  Uiso   1.00
O59    O     0.29580   0.04581   0.12846   0.00000  Uiso   1.00
O60    O     0.20419   0.45419   0.20487   0.00000  Uiso   1.00
Zn61   Zn    0.00000   0.25000   0.21771   0.00000  Uiso   1.00
Zn62   Zn    0.00000   0.25000   0.11563   0.00000  Uiso   1.00
Zn63   Zn    0.25000  -0.00000   0.21771   0.00000  Uiso   1.00
Zn64   Zn    0.25000  -0.00000   0.11563   0.00000  Uiso   1.00
C65    C    -0.00000   0.33077   0.04875   0.00000  Uiso   1.00
N66    N     0.00000   0.36423   0.06820   0.00000  Uiso   1.00
C67    C    -0.00000   0.16923   0.28459   0.00000  Uiso   1.00
N68    N    -0.00000   0.13577   0.26513   0.00000  Uiso   1.00
C69    C    -0.00000   0.16923   0.04875   0.00000  Uiso   1.00
N70    N    -0.00000   0.13577   0.06821   0.00000  Uiso   1.00
C71    C     0.00000   0.33077   0.28459   0.00000  Uiso   1.00
N72    N     0.00000   0.36423   0.26513   0.00000  Uiso   1.00
C73    C     0.25000   0.08077   0.04875   0.00000  Uiso   1.00
N74    N     0.25000   0.11423   0.06820   0.00000  Uiso   1.00
C75    C     0.25000   0.41923   0.28459   0.00000  Uiso   1.00
N76    N     0.25000   0.38577   0.26513   0.00000  Uiso   1.00
C77    C     0.25000   0.41923   0.04875   0.00000  Uiso   1.00
N78    N     0.25000   0.38577   0.06821   0.00000  Uiso   1.00
C79    C     0.25000   0.08077   0.28459   0.00000  Uiso   1.00
N80    N     0.25000   0.11423   0.26513   0.00000  Uiso   1.00
Cl81   Cl    0.39224   0.17293   0.07220   0.00000  Uiso   1.00
Cl82   Cl    0.10775   0.32707   0.26114   0.00000  Uiso   1.00
Cl83   Cl    0.10775   0.32707   0.07220   0.00000  Uiso   1.00
Cl84   Cl    0.39225   0.17293   0.26114   0.00000  Uiso   1.00
Cl85   Cl    0.10775   0.17293   0.26114   0.00000  Uiso   1.00
Cl86   Cl    0.39224   0.32707   0.07220   0.00000  Uiso   1.00
Cl87   Cl    0.39225   0.32707   0.26114   0.00000  Uiso   1.00
Cl88   Cl    0.10775   0.17293   0.07220   0.00000  Uiso   1.00
Cl89   Cl    0.14224   0.42293   0.07220   0.00000  Uiso   1.00
Cl90   Cl    0.35775   0.07707   0.26114   0.00000  Uiso   1.00
Cl91   Cl    0.35775   0.07707   0.07220   0.00000  Uiso   1.00
Cl92   Cl    0.14225   0.42293   0.26114   0.00000  Uiso   1.00
Cl93   Cl    0.35775   0.42293   0.26114   0.00000  Uiso   1.00
Cl94   Cl    0.14224   0.07707   0.07220   0.00000  Uiso   1.00
Cl95   Cl    0.14225   0.07707   0.26114   0.00000  Uiso   1.00
Cl96   Cl    0.35775   0.42293   0.07220   0.00000  Uiso   1.00
C97    C     0.56276   0.19285   0.16667   0.00000  Uiso   1.00
C98    C     0.93724   0.30715   0.16667   0.00000  Uiso   1.00
C99    C     0.93724   0.19285   0.16667   0.00000  Uiso   1.00
C100   C     0.56276   0.30715   0.16667   0.00000  Uiso   1.00
C101   C     0.81276   0.44285   0.16667   0.00000  Uiso   1.00
C102   C     0.68724   0.05715   0.16667   0.00000  Uiso   1.00
C103   C     0.68724   0.44285   0.16667   0.00000  Uiso   1.00
C104   C     0.81276   0.05715   0.16667   0.00000  Uiso   1.00
C105   C     0.50000   0.28925   0.02412   0.00000  Uiso   1.00
C106   C     0.50000   0.21075   0.30921   0.00000  Uiso   1.00
C107   C     0.50000   0.21075   0.02412   0.00000  Uiso   1.00
C108   C     0.50000   0.28925   0.30921   0.00000  Uiso   1.00
C109   C     0.75000   0.03925   0.02412   0.00000  Uiso   1.00
C110   C     0.75000   0.46075   0.30921   0.00000  Uiso   1.00
C111   C     0.75000   0.46075   0.02412   0.00000  Uiso   1.00
C112   C     0.75000   0.03925   0.30921   0.00000  Uiso   1.00
C113   C     0.88662   0.14456   0.12496   0.00000  Uiso   1.00
C114   C     0.61338   0.35544   0.20838   0.00000  Uiso   1.00
C115   C     0.61338   0.35544   0.12496   0.00000  Uiso   1.00
C116   C     0.88662   0.14456   0.20838   0.00000  Uiso   1.00
C117   C     0.61338   0.14456   0.20838   0.00000  Uiso   1.00
C118   C     0.88662   0.35544   0.12496   0.00000  Uiso   1.00
C119   C     0.88662   0.35544   0.20838   0.00000  Uiso   1.00
C120   C     0.61338   0.14456   0.12496   0.00000  Uiso   1.00
C121   C     0.63662   0.39456   0.12496   0.00000  Uiso   1.00
C122   C     0.86338   0.10544   0.20838   0.00000  Uiso   1.00
C123   C     0.86338   0.10544   0.12496   0.00000  Uiso   1.00
C124   C     0.63662   0.39456   0.20838   0.00000  Uiso   1.00
C125   C     0.86338   0.39456   0.20838   0.00000  Uiso   1.00
C126   C     0.63662   0.10544   0.12496   0.00000  Uiso   1.00
C127   C     0.63662   0.10544   0.20838   0.00000  Uiso   1.00
C128   C     0.86338   0.39456   0.12496   0.00000  Uiso   1.00
C129   C     0.59849   0.33804   0.16667   0.00000  Uiso   1.00
C130   C     0.90151   0.16196   0.16667   0.00000  Uiso   1.00
C131   C     0.90151   0.33804   0.16667   0.00000  Uiso   1.00
C132   C     0.59849   0.16196   0.16667   0.00000  Uiso   1.00
C133   C     0.84849   0.08804   0.16667   0.00000  Uiso   1.00
C134   C     0.65151   0.41196   0.16667   0.00000  Uiso   1.00
C135   C     0.65151   0.08804   0.16667   0.00000  Uiso   1.00
C136   C     0.84849   0.41196   0.16667   0.00000  Uiso   1.00
N137   N     0.50000   0.25000   0.28573   0.00000  Uiso   1.00
N138   N     0.50000   0.25000   0.04760   0.00000  Uiso   1.00
N139   N     0.75000  -0.00000   0.28573   0.00000  Uiso   1.00
N140   N     0.75000  -0.00000   0.04760   0.00000  Uiso   1.00
O141   O     0.54580   0.20419   0.20487   0.00000  Uiso   1.00
O142   O     0.95419   0.29581   0.12846   0.00000  Uiso   1.00
O143   O     0.95419   0.29581   0.20487   0.00000  Uiso   1.00
O144   O     0.54580   0.20419   0.12846   0.00000  Uiso   1.00
O145   O     0.95419   0.20419   0.12846   0.00000  Uiso   1.00
O146   O     0.54580   0.29581   0.20487   0.00000  Uiso   1.00
O147   O     0.54580   0.29581   0.12846   0.00000  Uiso   1.00
O148   O     0.95419   0.20419   0.20487   0.00000  Uiso   1.00
O149   O     0.79580   0.45419   0.20487   0.00000  Uiso   1.00
O150   O     0.70419   0.04581   0.12846   0.00000  Uiso   1.00
O151   O     0.70419   0.04581   0.20487   0.00000  Uiso   1.00
O152   O     0.79580   0.45419   0.12846   0.00000  Uiso   1.00
O153   O     0.70419   0.45419   0.12846   0.00000  Uiso   1.00
O154   O     0.79580   0.04581   0.20487   0.00000  Uiso   1.00
O155   O     0.79580   0.04581   0.12846   0.00000  Uiso   1.00
O156   O     0.70419   0.45419   0.20487   0.00000  Uiso   1.00
Zn157  Zn    0.50000   0.25000   0.21771   0.00000  Uiso   1.00
Zn158  Zn    0.50000   0.25000   0.11563   0.00000  Uiso   1.00
Zn159  Zn    0.75000  -0.00000   0.21771   0.00000  Uiso   1.00
Zn160  Zn    0.75000  -0.00000   0.11563   0.00000  Uiso   1.00
C161   C     0.50000   0.33077   0.04875   0.00000  Uiso   1.00
N162   N     0.50000   0.36423   0.06820   0.00000  Uiso   1.00
C163   C     0.50000   0.16923   0.28459   0.00000  Uiso   1.00
N164   N     0.50000   0.13577   0.26513   0.00000  Uiso   1.00
C165   C     0.50000   0.16923   0.04875   0.00000  Uiso   1.00
N166   N     0.50000   0.13577   0.06821   0.00000  Uiso   1.00
C167   C     0.50000   0.33077   0.28459   0.00000  Uiso   1.00
N168   N     0.50000   0.36423   0.26513   0.00000  Uiso   1.00
C169   C     0.75000   0.08077   0.04875   0.00000  Uiso   1.00
N170   N     0.75000   0.11423   0.06820   0.00000  Uiso   1.00
C171   C     0.75000   0.41923   0.28459   0.00000  Uiso   1.00
N172   N     0.75000   0.38577   0.26513   0.00000  Uiso   1.00
C173   C     0.75000   0.41923   0.04875   0.00000  Uiso   1.00
N174   N     0.75000   0.38577   0.06821   0.00000  Uiso   1.00
C175   C     0.75000   0.08077   0.28459   0.00000  Uiso   1.00
N176   N     0.75000   0.11423   0.26513   0.00000  Uiso   1.00
Cl177  Cl    0.89224   0.17293   0.07220   0.00000  Uiso   1.00
Cl178  Cl    0.60775   0.32707   0.26114   0.00000  Uiso   1.00
Cl179  Cl    0.60775   0.32707   0.07220   0.00000  Uiso   1.00
Cl180  Cl    0.89225   0.17293   0.26114   0.00000  Uiso   1.00
Cl181  Cl    0.60775   0.17293   0.26114   0.00000  Uiso   1.00
Cl182  Cl    0.89224   0.32707   0.07220   0.00000  Uiso   1.00
Cl183  Cl    0.89225   0.32707   0.26114   0.00000  Uiso   1.00
Cl184  Cl    0.60775   0.17293   0.07220   0.00000  Uiso   1.00
Cl185  Cl    0.64224   0.42293   0.07220   0.00000  Uiso   1.00
Cl186  Cl    0.85775   0.07707   0.26114   0.00000  Uiso   1.00
Cl187  Cl    0.85775   0.07707   0.07220   0.00000  Uiso   1.00
Cl188  Cl    0.64225   0.42293   0.26114   0.00000  Uiso   1.00
Cl189  Cl    0.85775   0.42293   0.26114   0.00000  Uiso   1.00
Cl190  Cl    0.64224   0.07707   0.07220   0.00000  Uiso   1.00
Cl191  Cl    0.64225   0.07707   0.26114   0.00000  Uiso   1.00
Cl192  Cl    0.85775   0.42293   0.07220   0.00000  Uiso   1.00
C193   C     0.06276   0.69285   0.16667   0.00000  Uiso   1.00
C194   C     0.43724   0.80715   0.16667   0.00000  Uiso   1.00
C195   C     0.43724   0.69285   0.16667   0.00000  Uiso   1.00
C196   C     0.06276   0.80715   0.16667   0.00000  Uiso   1.00
C197   C     0.31276   0.94285   0.16667   0.00000  Uiso   1.00
C198   C     0.18724   0.55715   0.16667   0.00000  Uiso   1.00
C199   C     0.18724   0.94285   0.16667   0.00000  Uiso   1.00
C200   C     0.31276   0.55715   0.16667   0.00000  Uiso   1.00
C201   C     0.00000   0.78925   0.02412   0.00000  Uiso   1.00
C202   C     0.00000   0.71075   0.30921   0.00000  Uiso   1.00
C203   C    -0.00000   0.71075   0.02412   0.00000  Uiso   1.00
C204   C     0.00000   0.78925   0.30921   0.00000  Uiso   1.00
C205   C     0.25000   0.53925   0.02412   0.00000  Uiso   1.00
C206   C     0.25000   0.96075   0.30921   0.00000  Uiso   1.00
C207   C     0.25000   0.96075   0.02412   0.00000  Uiso   1.00
C208   C     0.25000   0.53925   0.30921   0.00000  Uiso   1.00
C209   C     0.38662   0.64456   0.12496   0.00000  Uiso   1.00
C210   C     0.11338   0.85544   0.20838   0.00000  Uiso   1.00
C211   C     0.11338   0.85544   0.12496   0.00000  Uiso   1.00
C212   C     0.38662   0.64456   0.20838   0.00000  Uiso   1.00
C213   C     0.11338   0.64456   0.20838   0.00000  Uiso   1.00
C214   C     0.38662   0.85544   0.12496   0.00000  Uiso   1.00
C215   C     0.38662   0.85544   0.20838   0.00000  Uiso   1.00
C216   C     0.11338   0.64456   0.12496   0.00000  Uiso   1.00
C217   C     0.13662   0.89456   0.12496   0.00000  Uiso   1.00
C218   C     0.36338   0.60544   0.20838   0.00000  Uiso   1.00
C219   C     0.36338   0.60544   0.12496   0.00000  Uiso   1.00
C220   C     0.13662   0.89456   0.20838   0.00000  Uiso   1.00
C221   C     0.36338   0.89456   0.20838   0.00000  Uiso   1.00
C222   C     0.13662   0.60544   0.12496   0.00000  Uiso   1.00
C223   C     0.13662   0.60544   0.20838   0.00000  Uiso   1.00
C224   C     0.36338   0.89456   0.12496   0.00000  Uiso   1.00
C225   C     0.09849   0.83804   0.16667   0.00000  Uiso   1.00
C226   C     0.40151   0.66196   0.16667   0.00000  Uiso   1.00
C227   C     0.40151   0.83804   0.16667   0.00000  Uiso   1.00
C228   C     0.09849   0.66196   0.16667   0.00000  Uiso   1.00
C229   C     0.34849   0.58804   0.16667   0.00000  Uiso   1.00
C230   C     0.15151   0.91196   0.16667   0.00000  Uiso   1.00
C231   C     0.15151   0.58804   0.16667   0.00000  Uiso   1.00
C232   C     0.34849   0.91196   0.16667   0.00000  Uiso   1.00
N233   N     0.00000   0.75000   0.28573   0.00000  Uiso   1.00
N234   N     0.00000   0.75000   0.04760   0.00000  Uiso   1.00
N235   N     0.25000   0.50000   0.28573   0.00000  Uiso   1.00
N236   N     0.25000   0.50000   0.04760   0.00000  Uiso   1.00
O237   O     0.04580   0.70419   0.20487   0.00000  Uiso   1.00
O238   O     0.45419   0.79581   0.12846   0.00000  Uiso   1.00
O239   O     0.45419   0.79581   0.20487   0.00000  Uiso   1.00
O240   O     0.04580   0.70419   0.12846   0.00000  Uiso   1.00
O241   O     0.45419   0.70419   0.12846   0.00000  Uiso   1.00
O242   O     0.04580   0.79581   0.20487   0.00000  Uiso   1.00
O243   O     0.04580   0.79581   0.12846   0.00000  Uiso   1.00
O244   O     0.45419   0.70419   0.20487   0.00000  Uiso   1.00
O245   O     0.29580   0.95419   0.20487   0.00000  Uiso   1.00
O246   O     0.20419   0.54581   0.12846   0.00000  Uiso   1.00
O247   O     0.20419   0.54581   0.20487   0.00000  Uiso   1.00
O248   O     0.29580   0.95419   0.12846   0.00000  Uiso   1.00
O249   O     0.20419   0.95419   0.12846   0.00000  Uiso   1.00
O250   O     0.29580   0.54581   0.20487   0.00000  Uiso   1.00
O251   O     0.29580   0.54581   0.12846   0.00000  Uiso   1.00
O252   O     0.20419   0.95419   0.20487   0.00000  Uiso   1.00
Zn253  Zn    0.00000   0.75000   0.21771   0.00000  Uiso   1.00
Zn254  Zn    0.00000   0.75000   0.11563   0.00000  Uiso   1.00
Zn255  Zn    0.25000   0.50000   0.21771   0.00000  Uiso   1.00
Zn256  Zn    0.25000   0.50000   0.11563   0.00000  Uiso   1.00
C257   C    -0.00000   0.83077   0.04875   0.00000  Uiso   1.00
N258   N     0.00000   0.86423   0.06820   0.00000  Uiso   1.00
C259   C    -0.00000   0.66923   0.28459   0.00000  Uiso   1.00
N260   N    -0.00000   0.63577   0.26513   0.00000  Uiso   1.00
C261   C    -0.00000   0.66923   0.04875   0.00000  Uiso   1.00
N262   N    -0.00000   0.63577   0.06821   0.00000  Uiso   1.00
C263   C     0.00000   0.83077   0.28459   0.00000  Uiso   1.00
N264   N     0.00000   0.86423   0.26513   0.00000  Uiso   1.00
C265   C     0.25000   0.58077   0.04875   0.00000  Uiso   1.00
N266   N     0.25000   0.61423   0.06820   0.00000  Uiso   1.00
C267   C     0.25000   0.91923   0.28459   0.00000  Uiso   1.00
N268   N     0.25000   0.88577   0.26513   0.00000  Uiso   1.00
C269   C     0.25000   0.91923   0.04875   0.00000  Uiso   1.00
N270   N     0.25000   0.88577   0.06821   0.00000  Uiso   1.00
C271   C     0.25000   0.58077   0.28459   0.00000  Uiso   1.00
N272   N     0.25000   0.61423   0.26513   0.00000  Uiso   1.00
Cl273  Cl    0.39224   0.67293   0.07220   0.00000  Uiso   1.00
Cl274  Cl    0.10775   0.82707   0.26114   0.00000  Uiso   1.00
Cl275  Cl    0.10775   0.82707   0.07220   0.00000  Uiso   1.00
Cl276  Cl    0.39225   0.67293   0.26114   0.00000  Uiso   1.00
Cl277  Cl    0.10775   0.67293   0.26114   0.00000  Uiso   1.00
Cl278  Cl    0.39224   0.82707   0.07220   0.00000  Uiso   1.00
Cl279  Cl    0.39225   0.82707   0.26114   0.00000  Uiso   1.00
Cl280  Cl    0.10775   0.67293   0.07220   0.00000  Uiso   1.00
Cl281  Cl    0.14224   0.92293   0.07220   0.00000  Uiso   1.00
Cl282  Cl    0.35775   0.57707   0.26114   0.00000  Uiso   1.00
Cl283  Cl    0.35775   0.57707   0.07220   0.00000  Uiso   1.00
Cl284  Cl    0.14225   0.92293   0.26114   0.00000  Uiso   1.00
Cl285  Cl    0.35775   0.92293   0.26114   0.00000  Uiso   1.00
Cl286  Cl    0.14224   0.57707   0.07220   0.00000  Uiso   1.00
Cl287  Cl    0.14225   0.57707   0.26114   0.00000  Uiso   1.00
Cl288  Cl    0.35775   0.92293   0.07220   0.00000  Uiso   1.00
C289   C     0.56276   0.69285   0.16667   0.00000  Uiso   1.00
C290   C     0.93724   0.80715   0.16667   0.00000  Uiso   1.00
C291   C     0.93724   0.69285   0.16667   0.00000  Uiso   1.00
C292   C     0.56276   0.80715   0.16667   0.00000  Uiso   1.00
C293   C     0.81276   0.94285   0.16667   0.00000  Uiso   1.00
C294   C     0.68724   0.55715   0.16667   0.00000  Uiso   1.00
C295   C     0.68724   0.94285   0.16667   0.00000  Uiso   1.00
C296   C     0.81276   0.55715   0.16667   0.00000  Uiso   1.00
C297   C     0.50000   0.78925   0.02412   0.00000  Uiso   1.00
C298   C     0.50000   0.71075   0.30921   0.00000  Uiso   1.00
C299   C     0.50000   0.71075   0.02412   0.00000  Uiso   1.00
C300   C     0.50000   0.78925   0.30921   0.00000  Uiso   1.00
C301   C     0.75000   0.53925   0.02412   0.00000  Uiso   1.00
C302   C     0.75000   0.96075   0.30921   0.00000  Uiso   1.00
C303   C     0.75000   0.96075   0.02412   0.00000  Uiso   1.00
C304   C     0.75000   0.53925   0.30921   0.00000  Uiso   1.00
C305   C     0.88662   0.64456   0.12496   0.00000  Uiso   1.00
C306   C     0.61338   0.85544   0.20838   0.00000  Uiso   1.00
C307   C     0.61338   0.85544   0.12496   0.00000  Uiso   1.00
C308   C     0.88662   0.64456   0.20838   0.00000  Uiso   1.00
C309   C     0.61338   0.64456   0.20838   0.00000  Uiso   1.00
C310   C     0.88662   0.85544   0.12496   0.00000  Uiso   1.00
C311   C     0.88662   0.85544   0.20838   0.00000  Uiso   1.00
C312   C     0.61338   0.64456   0.12496   0.00000  Uiso   1.00
C313   C     0.63662   0.89456   0.12496   0.00000  Uiso   1.00
C314   C     0.86338   0.60544   0.20838   0.00000  Uiso   1.00
C315   C     0.86338   0.60544   0.12496   0.00000  Uiso   1.00
C316   C     0.63662   0.89456   0.20838   0.00000  Uiso   1.00
C317   C     0.86338   0.89456   0.20838   0.00000  Uiso   1.00
C318   C     0.63662   0.60544   0.12496   0.00000  Uiso   1.00
C319   C     0.63662   0.60544   0.20838   0.00000  Uiso   1.00
C320   C     0.86338   0.89456   0.12496   0.00000  Uiso   1.00
C321   C     0.59849   0.83804   0.16667   0.00000  Uiso   1.00
C322   C     0.90151   0.66196   0.16667   0.00000  Uiso   1.00
C323   C     0.90151   0.83804   0.16667   0.00000  Uiso   1.00
C324   C     0.59849   0.66196   0.16667   0.00000  Uiso   1.00
C325   C     0.84849   0.58804   0.16667   0.00000  Uiso   1.00
C326   C     0.65151   0.91196   0.16667   0.00000  Uiso   1.00
C327   C     0.65151   0.58804   0.16667   0.00000  Uiso   1.00
C328   C     0.84849   0.91196   0.16667   0.00000  Uiso   1.00
N329   N     0.50000   0.75000   0.28573   0.00000  Uiso   1.00
N330   N     0.50000   0.75000   0.04760   0.00000  Uiso   1.00
N331   N     0.75000   0.50000   0.28573   0.00000  Uiso   1.00
N332   N     0.75000   0.50000   0.04760   0.00000  Uiso   1.00
O333   O     0.54580   0.70419   0.20487   0.00000  Uiso   1.00
O334   O     0.95419   0.79581   0.12846   0.00000  Uiso   1.00
O335   O     0.95419   0.79581   0.20487   0.00000  Uiso   1.00
O336   O     0.54580   0.70419   0.12846   0.00000  Uiso   1.00
O337   O     0.95419   0.70419   0.12846   0.00000  Uiso   1.00
O338   O     0.54580   0.79581   0.20487   0.00000  Uiso   1.00
O339   O     0.54580   0.79581   0.12846   0.00000  Uiso   1.00
O340   O     0.95419   0.70419   0.20487   0.00000  Uiso   1.00
O341   O     0.79580   0.95419   0.20487   0.00000  Uiso   1.00
O342   O     0.70419   0.54581   0.12846   0.00000  Uiso   1.00
O343   O     0.70419   0.54581   0.20487   0.00000  Uiso   1.00
O344   O     0.79580   0.95419   0.12846   0.00000  Uiso   1.00
O345   O     0.70419   0.95419   0.12846   0.00000  Uiso   1.00
O346   O     0.79580   0.54581   0.20487   0.00000  Uiso   1.00
O347   O     0.79580   0.54581   0.12846   0.00000  Uiso   1.00
O348   O     0.70419   0.95419   0.20487   0.00000  Uiso   1.00
Zn349  Zn    0.50000   0.75000   0.21771   0.00000  Uiso   1.00
Zn350  Zn    0.50000   0.75000   0.11563   0.00000  Uiso   1.00
Zn351  Zn    0.75000   0.50000   0.21771   0.00000  Uiso   1.00
Zn352  Zn    0.75000   0.50000   0.11563   0.00000  Uiso   1.00
C353   C     0.50000   0.83077   0.04875   0.00000  Uiso   1.00
N354   N     0.50000   0.86423   0.06820   0.00000  Uiso   1.00
C355   C     0.50000   0.66923   0.28459   0.00000  Uiso   1.00
N356   N     0.50000   0.63577   0.26513   0.00000  Uiso   1.00
C357   C     0.50000   0.66923   0.04875   0.00000  Uiso   1.00
N358   N     0.50000   0.63577   0.06821   0.00000  Uiso   1.00
C359   C     0.50000   0.83077   0.28459   0.00000  Uiso   1.00
N360   N     0.50000   0.86423   0.26513   0.00000  Uiso   1.00
C361   C     0.75000   0.58077   0.04875   0.00000  Uiso   1.00
N362   N     0.75000   0.61423   0.06820   0.00000  Uiso   1.00
C363   C     0.75000   0.91923   0.28459   0.00000  Uiso   1.00
N364   N     0.75000   0.88577   0.26513   0.00000  Uiso   1.00
C365   C     0.75000   0.91923   0.04875   0.00000  Uiso   1.00
N366   N     0.75000   0.88577   0.06821   0.00000  Uiso   1.00
C367   C     0.75000   0.58077   0.28459   0.00000  Uiso   1.00
N368   N     0.75000   0.61423   0.26513   0.00000  Uiso   1.00
Cl369  Cl    0.89224   0.67293   0.07220   0.00000  Uiso   1.00
Cl370  Cl    0.60775   0.82707   0.26114   0.00000  Uiso   1.00
Cl371  Cl    0.60775   0.82707   0.07220   0.00000  Uiso   1.00
Cl372  Cl    0.89225   0.67293   0.26114   0.00000  Uiso   1.00
Cl373  Cl    0.60775   0.67293   0.26114   0.00000  Uiso   1.00
Cl374  Cl    0.89224   0.82707   0.07220   0.00000  Uiso   1.00
Cl375  Cl    0.89225   0.82707   0.26114   0.00000  Uiso   1.00
Cl376  Cl    0.60775   0.67293   0.07220   0.00000  Uiso   1.00
Cl377  Cl    0.64224   0.92293   0.07220   0.00000  Uiso   1.00
Cl378  Cl    0.85775   0.57707   0.26114   0.00000  Uiso   1.00
Cl379  Cl    0.85775   0.57707   0.07220   0.00000  Uiso   1.00
Cl380  Cl    0.64225   0.92293   0.26114   0.00000  Uiso   1.00
Cl381  Cl    0.85775   0.92293   0.26114   0.00000  Uiso   1.00
Cl382  Cl    0.64224   0.57707   0.07220   0.00000  Uiso   1.00
Cl383  Cl    0.64225   0.57707   0.26114   0.00000  Uiso   1.00
Cl384  Cl    0.85775   0.92293   0.07220   0.00000  Uiso   1.00
C385   C     0.06276   0.19285   0.50000   0.00000  Uiso   1.00
C386   C     0.43724   0.30715   0.50000   0.00000  Uiso   1.00
C387   C     0.43724   0.19285   0.50000   0.00000  Uiso   1.00
C388   C     0.06276   0.30715   0.50000   0.00000  Uiso   1.00
C389   C     0.31276   0.44285   0.50000   0.00000  Uiso   1.00
C390   C     0.18724   0.05715   0.50000   0.00000  Uiso   1.00
C391   C     0.18724   0.44285   0.50000   0.00000  Uiso   1.00
C392   C     0.31276   0.05715   0.50000   0.00000  Uiso   1.00
C393   C     0.00000   0.28925   0.35745   0.00000  Uiso   1.00
C394   C     0.00000   0.21075   0.64255   0.00000  Uiso   1.00
C395   C    -0.00000   0.21075   0.35745   0.00000  Uiso   1.00
C396   C     0.00000   0.28925   0.64255   0.00000  Uiso   1.00
C397   C     0.25000   0.03925   0.35745   0.00000  Uiso   1.00
C398   C     0.25000   0.46075   0.64255   0.00000  Uiso   1.00
C399   C     0.25000   0.46075   0.35745   0.00000  Uiso   1.00
C400   C     0.25000   0.03925   0.64255   0.00000  Uiso   1.00
C401   C     0.38662   0.14456   0.45829   0.00000  Uiso   1.00
C402   C     0.11338   0.35544   0.54171   0.00000  Uiso   1.00
C403   C     0.11338   0.35544   0.45829   0.00000  Uiso   1.00
C404   C     0.38662   0.14456   0.54171   0.00000  Uiso   1.00
C405   C     0.11338   0.14456   0.54171   0.00000  Uiso   1.00
C406   C     0.38662   0.35544   0.45829   0.00000  Uiso   1.00
C407   C     0.38662   0.35544   0.54171   0.00000  Uiso   1.00
C408   C     0.11338   0.14456   0.45829   0.00000  Uiso   1.00
C409   C     0.13662   0.39456   0.45829   0.00000  Uiso   1.00
C410   C     0.36338   0.10544   0.54171   0.00000  Uiso   1.00
C411   C     0.36338   0.10544   0.45829   0.00000  Uiso   1.00
C412   C     0.13662   0.39456   0.54171   0.00000  Uiso   1.00
C413   C     0.36338   0.39456   0.54171   0.00000  Uiso   1.00
C414   C     0.13662   0.10544   0.45829   0.00000  Uiso   1.00
C415   C     0.13662   0.10544   0.54171   0.00000  Uiso   1.00
C416   C     0.36338   0.39456   0.45829   0.00000  Uiso   1.00
C417   C     0.09849   0.33804   0.50000   0.00000  Uiso   1.00
C418   C     0.40151   0.16196   0.50000   0.00000  Uiso   1.00
C419   C     0.40151   0.33804   0.50000   0.00000  Uiso   1.00
C420   C     0.09849   0.16196   0.50000   0.00000  Uiso   1.00
C421   C     0.34849   0.08804   0.50000   0.00000  Uiso   1.00
C422   C     0.15151   0.41196   0.50000   0.00000  Uiso   1.00
C423   C     0.15151   0.08804   0.50000   0.00000  Uiso   1.00
C424   C     0.34849   0.41196   0.50000   0.00000  Uiso   1.00
N425   N     0.00000   0.25000   0.61907   0.00000  Uiso   1.00
N426   N     0.00000   0.25000   0.38093   0.00000  Uiso   1.00
N427   N     0.25000  -0.00000   0.61907   0.00000  Uiso   1.00
N428   N     0.25000  -0.00000   0.38093   0.00000  Uiso   1.00
O429   O     0.04580   0.20419   0.53821   0.00000  Uiso   1.00
O430   O     0.45419   0.29581   0.46179   0.00000  Uiso   1.00
O431   O     0.45419   0.29581   0.53821   0.00000  Uiso   1.00
O432   O     0.04580   0.20419   0.46179   0.00000  Uiso   1.00
O433   O     0.45419   0.20419   0.46179   0.00000  Uiso   1.00
O434   O     0.04580   0.29581   0.53821   0.00000  Uiso   1.00
O435   O     0.04580   0.29581   0.46179   0.00000  Uiso   1.00
O436   O     0.45419   0.20419   0.53821   0.00000  Uiso   1.00
O437   O     0.29580   0.45419   0.53821   0.00000  Uiso   1.00
O438   O     0.20419   0.04581   0.46179   0.00000  Uiso   1.00
O439   O     0.20419   0.04581   0.53821   0.00000  Uiso   1.00
O440   O     0.29580   0.45419   0.46179   0.00000  Uiso   1.00
O441   O     0.20419   0.45419   0.46179   0.00000  Uiso   1.00
O442   O     0.29580   0.04581   0.53821   0.00000  Uiso   1.00
O443   O     0.29580   0.04581   0.46179   0.00000  Uiso   1.00
O444   O     0.20419   0.45419   0.53821   0.00000  Uiso   1.00
Zn445  Zn    0.00000   0.25000   0.55104   0.00000  Uiso   1.00
Zn446  Zn    0.00000   0.25000   0.44896   0.00000  Uiso   1.00
Zn447  Zn    0.25000  -0.00000   0.55104   0.00000  Uiso   1.00
Zn448  Zn    0.25000  -0.00000   0.44896   0.00000  Uiso   1.00
C449   C    -0.00000   0.33077   0.38208   0.00000  Uiso   1.00
N450   N     0.00000   0.36423   0.40154   0.00000  Uiso   1.00
C451   C    -0.00000   0.16923   0.61792   0.00000  Uiso   1.00
N452   N    -0.00000   0.13577   0.59846   0.00000  Uiso   1.00
C453   C    -0.00000   0.16923   0.38208   0.00000  Uiso   1.00
N454   N    -0.00000   0.13577   0.40154   0.00000  Uiso   1.00
C455   C     0.00000   0.33077   0.61792   0.00000  Uiso   1.00
N456   N     0.00000   0.36423   0.59846   0.00000  Uiso   1.00
C457   C     0.25000   0.08077   0.38208   0.00000  Uiso   1.00
N458   N     0.25000   0.11423   0.40154   0.00000  Uiso   1.00
C459   C     0.25000   0.41923   0.61792   0.00000  Uiso   1.00
N460   N     0.25000   0.38577   0.59846   0.00000  Uiso   1.00
C461   C     0.25000   0.41923   0.38208   0.00000  Uiso   1.00
N462   N     0.25000   0.38577   0.40154   0.00000  Uiso   1.00
C463   C     0.25000   0.08077   0.61792   0.00000  Uiso   1.00
N464   N     0.25000   0.11423   0.59846   0.00000  Uiso   1.00
Cl465  Cl    0.39224   0.17293   0.40553   0.00000  Uiso   1.00
Cl466  Cl    0.10775   0.32707   0.59447   0.00000  Uiso   1.00
Cl467  Cl    0.10775   0.32707   0.40553   0.00000  Uiso   1.00
Cl468  Cl    0.39225   0.17293   0.59447   0.00000  Uiso   1.00
Cl469  Cl    0.10775   0.17293   0.59447   0.00000  Uiso   1.00
Cl470  Cl    0.39224   0.32707   0.40553   0.00000  Uiso   1.00
Cl471  Cl    0.39225   0.32707   0.59447   0.00000  Uiso   1.00
Cl472  Cl    0.10775   0.17293   0.40553   0.00000  Uiso   1.00
Cl473  Cl    0.14224   0.42293   0.40553   0.00000  Uiso   1.00
Cl474  Cl    0.35775   0.07707   0.59447   0.00000  Uiso   1.00
Cl475  Cl    0.35775   0.07707   0.40553   0.00000  Uiso   1.00
Cl476  Cl    0.14225   0.42293   0.59447   0.00000  Uiso   1.00
Cl477  Cl    0.35775   0.42293   0.59447   0.00000  Uiso   1.00
Cl478  Cl    0.14224   0.07707   0.40553   0.00000  Uiso   1.00
Cl479  Cl    0.14225   0.07707   0.59447   0.00000  Uiso   1.00
Cl480  Cl    0.35775   0.42293   0.40553   0.00000  Uiso   1.00
C481   C     0.56276   0.19285   0.50000   0.00000  Uiso   1.00
C482   C     0.93724   0.30715   0.50000   0.00000  Uiso   1.00
C483   C     0.93724   0.19285   0.50000   0.00000  Uiso   1.00
C484   C     0.56276   0.30715   0.50000   0.00000  Uiso   1.00
C485   C     0.81276   0.44285   0.50000   0.00000  Uiso   1.00
C486   C     0.68724   0.05715   0.50000   0.00000  Uiso   1.00
C487   C     0.68724   0.44285   0.50000   0.00000  Uiso   1.00
C488   C     0.81276   0.05715   0.50000   0.00000  Uiso   1.00
C489   C     0.50000   0.28925   0.35745   0.00000  Uiso   1.00
C490   C     0.50000   0.21075   0.64255   0.00000  Uiso   1.00
C491   C     0.50000   0.21075   0.35745   0.00000  Uiso   1.00
C492   C     0.50000   0.28925   0.64255   0.00000  Uiso   1.00
C493   C     0.75000   0.03925   0.35745   0.00000  Uiso   1.00
C494   C     0.75000   0.46075   0.64255   0.00000  Uiso   1.00
C495   C     0.75000   0.46075   0.35745   0.00000  Uiso   1.00
C496   C     0.75000   0.03925   0.64255   0.00000  Uiso   1.00
C497   C     0.88662   0.14456   0.45829   0.00000  Uiso   1.00
C498   C     0.61338   0.35544   0.54171   0.00000  Uiso   1.00
C499   C     0.61338   0.35544   0.45829   0.00000  Uiso   1.00
C500   C     0.88662   0.14456   0.54171   0.00000  Uiso   1.00
C501   C     0.61338   0.14456   0.54171   0.00000  Uiso   1.00
C502   C     0.88662   0.35544   0.45829   0.00000  Uiso   1.00
C503   C     0.88662   0.35544   0.54171   0.00000  Uiso   1.00
C504   C     0.61338   0.14456   0.45829   0.00000  Uiso   1.00
C505   C     0.63662   0.39456   0.45829   0.00000  Uiso   1.00
C506   C     0.86338   0.10544   0.54171   0.00000  Uiso   1.00
C507   C     0.86338   0.10544   0.45829   0.00000  Uiso   1.00
C508   C     0.63662   0.39456   0.54171   0.00000  Uiso   1.00
C509   C     0.86338   0.39456   0.54171   0.00000  Uiso   1.00
C510   C     0.63662   0.10544   0.45829   0.00000  Uiso   1.00
C511   C     0.63662   0.10544   0.54171   0.00000  Uiso   1.00
C512   C     0.86338   0.39456   0.45829   0.00000  Uiso   1.00
C513   C     0.59849   0.33804   0.50000   0.00000  Uiso   1.00
C514   C     0.90151   0.16196   0.50000   0.00000  Uiso   1.00
C515   C     0.90151   0.33804   0.50000   0.00000  Uiso   1.00
C516   C     0.59849   0.16196   0.50000   0.00000  Uiso   1.00
C517   C     0.84849   0.08804   0.50000   0.00000  Uiso   1.00
C518   C     0.65151   0.41196   0.50000   0.00000  Uiso   1.00
C519   C     0.65151   0.08804   0.50000   0.00000  Uiso   1.00
C520   C     0.84849   0.41196   0.50000   0.00000  Uiso   1.00
N521   N     0.50000   0.25000   0.61907   0.00000  Uiso   1.00
N522   N     0.50000   0.25000   0.38093   0.00000  Uiso   1.00
N523   N     0.75000  -0.00000   0.61907   0.00000  Uiso   1.00
N524   N     0.75000  -0.00000   0.38093   0.00000  Uiso   1.00
O525   O     0.54580   0.20419   0.53821   0.00000  Uiso   1.00
O526   O     0.95419   0.29581   0.46179   0.00000  Uiso   1.00
O527   O     0.95419   0.29581   0.53821   0.00000  Uiso   1.00
O528   O     0.54580   0.20419   0.46179   0.00000  Uiso   1.00
O529   O     0.95419   0.20419   0.46179   0.00000  Uiso   1.00
O530   O     0.54580   0.29581   0.53821   0.00000  Uiso   1.00
O531   O     0.54580   0.29581   0.46179   0.00000  Uiso   1.00
O532   O     0.95419   0.20419   0.53821   0.00000  Uiso   1.00
O533   O     0.79580   0.45419   0.53821   0.00000  Uiso   1.00
O534   O     0.70419   0.04581   0.46179   0.00000  Uiso   1.00
O535   O     0.70419   0.04581   0.53821   0.00000  Uiso   1.00
O536   O     0.79580   0.45419   0.46179   0.00000  Uiso   1.00
O537   O     0.70419   0.45419   0.46179   0.00000  Uiso   1.00
O538   O     0.79580   0.04581   0.53821   0.00000  Uiso   1.00
O539   O     0.79580   0.04581   0.46179   0.00000  Uiso   1.00
O540   O     0.70419   0.45419   0.53821   0.00000  Uiso   1.00
Zn541  Zn    0.50000   0.25000   0.55104   0.00000  Uiso   1.00
Zn542  Zn    0.50000   0.25000   0.44896   0.00000  Uiso   1.00
Zn543  Zn    0.75000  -0.00000   0.55104   0.00000  Uiso   1.00
Zn544  Zn    0.75000  -0.00000   0.44896   0.00000  Uiso   1.00
C545   C     0.50000   0.33077   0.38208   0.00000  Uiso   1.00
N546   N     0.50000   0.36423   0.40154   0.00000  Uiso   1.00
C547   C     0.50000   0.16923   0.61792   0.00000  Uiso   1.00
N548   N     0.50000   0.13577   0.59846   0.00000  Uiso   1.00
C549   C     0.50000   0.16923   0.38208   0.00000  Uiso   1.00
N550   N     0.50000   0.13577   0.40154   0.00000  Uiso   1.00
C551   C     0.50000   0.33077   0.61792   0.00000  Uiso   1.00
N552   N     0.50000   0.36423   0.59846   0.00000  Uiso   1.00
C553   C     0.75000   0.08077   0.38208   0.00000  Uiso   1.00
N554   N     0.75000   0.11423   0.40154   0.00000  Uiso   1.00
C555   C     0.75000   0.41923   0.61792   0.00000  Uiso   1.00
N556   N     0.75000   0.38577   0.59846   0.00000  Uiso   1.00
C557   C     0.75000   0.41923   0.38208   0.00000  Uiso   1.00
N558   N     0.75000   0.38577   0.40154   0.00000  Uiso   1.00
C559   C     0.75000   0.08077   0.61792   0.00000  Uiso   1.00
N560   N     0.75000   0.11423   0.59846   0.00000  Uiso   1.00
Cl561  Cl    0.89224   0.17293   0.40553   0.00000  Uiso   1.00
Cl562  Cl    0.60775   0.32707   0.59447   0.00000  Uiso   1.00
Cl563  Cl    0.60775   0.32707   0.40553   0.00000  Uiso   1.00
Cl564  Cl    0.89225   0.17293   0.59447   0.00000  Uiso   1.00
Cl565  Cl    0.60775   0.17293   0.59447   0.00000  Uiso   1.00
Cl566  Cl    0.89224   0.32707   0.40553   0.00000  Uiso   1.00
Cl567  Cl    0.89225   0.32707   0.59447   0.00000  Uiso   1.00
Cl568  Cl    0.60775   0.17293   0.40553   0.00000  Uiso   1.00
Cl569  Cl    0.64224   0.42293   0.40553   0.00000  Uiso   1.00
Cl570  Cl    0.85775   0.07707   0.59447   0.00000  Uiso   1.00
Cl571  Cl    0.85775   0.07707   0.40553   0.00000  Uiso   1.00
Cl572  Cl    0.64225   0.42293   0.59447   0.00000  Uiso   1.00
Cl573  Cl    0.85775   0.42293   0.59447   0.00000  Uiso   1.00
Cl574  Cl    0.64224   0.07707   0.40553   0.00000  Uiso   1.00
Cl575  Cl    0.64225   0.07707   0.59447   0.00000  Uiso   1.00
Cl576  Cl    0.85775   0.42293   0.40553   0.00000  Uiso   1.00
C577   C     0.06276   0.69285   0.50000   0.00000  Uiso   1.00
C578   C     0.43724   0.80715   0.50000   0.00000  Uiso   1.00
C579   C     0.43724   0.69285   0.50000   0.00000  Uiso   1.00
C580   C     0.06276   0.80715   0.50000   0.00000  Uiso   1.00
C581   C     0.31276   0.94285   0.50000   0.00000  Uiso   1.00
C582   C     0.18724   0.55715   0.50000   0.00000  Uiso   1.00
C583   C     0.18724   0.94285   0.50000   0.00000  Uiso   1.00
C584   C     0.31276   0.55715   0.50000   0.00000  Uiso   1.00
C585   C     0.00000   0.78925   0.35745   0.00000  Uiso   1.00
C586   C     0.00000   0.71075   0.64255   0.00000  Uiso   1.00
C587   C    -0.00000   0.71075   0.35745   0.00000  Uiso   1.00
C588   C     0.00000   0.78925   0.64255   0.00000  Uiso   1.00
C589   C     0.25000   0.53925   0.35745   0.00000  Uiso   1.00
C590   C     0.25000   0.96075   0.64255   0.00000  Uiso   1.00
C591   C     0.25000   0.96075   0.35745   0.00000  Uiso   1.00
C592   C     0.25000   0.53925   0.64255   0.00000  Uiso   1.00
C593   C     0.38662   0.64456   0.45829   0.00000  Uiso   1.00
C594   C     0.11338   0.85544   0.54171   0.00000  Uiso   1.00
C595   C     0.11338   0.85544   0.45829   0.00000  Uiso   1.00
C596   C     0.38662   0.64456   0.54171   0.00000  Uiso   1.00
C597   C     0.11338   0.64456   0.54171   0.00000  Uiso   1.00
C598   C     0.38662   0.85544   0.45829   0.00000  Uiso   1.00
C599   C     0.38662   0.85544   0.54171   0.00000  Uiso   1.00
C600   C     0.11338   0.64456   0.45829   0.00000  Uiso   1.00
C601   C     0.13662   0.89456   0.45829   0.00000  Uiso   1.00
C602   C     0.36338   0.60544   0.54171   0.00000  Uiso   1.00
C603   C     0.36338   0.60544   0.45829   0.00000  Uiso   1.00
C604   C     0.13662   0.89456   0.54171   0.00000  Uiso   1.00
C605   C     0.36338   0.89456   0.54171   0.00000  Uiso   1.00
C606   C     0.13662   0.60544   0.45829   0.00000  Uiso   1.00
C607   C     0.13662   0.60544   0.54171   0.00000  Uiso   1.00
C608   C     0.36338   0.89456   0.45829   0.00000  Uiso   1.00
C609   C     0.09849   0.83804   0.50000   0.00000  Uiso   1.00
C610   C     0.40151   0.66196   0.50000   0.00000  Uiso   1.00
C611   C     0.40151   0.83804   0.50000   0.00000  Uiso   1.00
C612   C     0.09849   0.66196   0.50000   0.00000  Uiso   1.00
C613   C     0.34849   0.58804   0.50000   0.00000  Uiso   1.00
C614   C     0.15151   0.91196   0.50000   0.00000  Uiso   1.00
C615   C     0.15151   0.58804   0.50000   0.00000  Uiso   1.00
C616   C     0.34849   0.91196   0.50000   0.00000  Uiso   1.00
N617   N     0.00000   0.75000   0.61907   0.00000  Uiso   1.00
N618   N     0.00000   0.75000   0.38093   0.00000  Uiso   1.00
N619   N     0.25000   0.50000   0.61907   0.00000  Uiso   1.00
N620   N     0.25000   0.50000   0.38093   0.00000  Uiso   1.00
O621   O     0.04580   0.70419   0.53821   0.00000  Uiso   1.00
O622   O     0.45419   0.79581   0.46179   0.00000  Uiso   1.00
O623   O     0.45419   0.79581   0.53821   0.00000  Uiso   1.00
O624   O     0.04580   0.70419   0.46179   0.00000  Uiso   1.00
O625   O     0.45419   0.70419   0.46179   0.00000  Uiso   1.00
O626   O     0.04580   0.79581   0.53821   0.00000  Uiso   1.00
O627   O     0.04580   0.79581   0.46179   0.00000  Uiso   1.00
O628   O     0.45419   0.70419   0.53821   0.00000  Uiso   1.00
O629   O     0.29580   0.95419   0.53821   0.00000  Uiso   1.00
O630   O     0.20419   0.54581   0.46179   0.00000  Uiso   1.00
O631   O     0.20419   0.54581   0.53821   0.00000  Uiso   1.00
O632   O     0.29580   0.95419   0.46179   0.00000  Uiso   1.00
O633   O     0.20419   0.95419   0.46179   0.00000  Uiso   1.00
O634   O     0.29580   0.54581   0.53821   0.00000  Uiso   1.00
O635   O     0.29580   0.54581   0.46179   0.00000  Uiso   1.00
O636   O     0.20419   0.95419   0.53821   0.00000  Uiso   1.00
Zn637  Zn    0.00000   0.75000   0.55104   0.00000  Uiso   1.00
Zn638  Zn    0.00000   0.75000   0.44896   0.00000  Uiso   1.00
Zn639  Zn    0.25000   0.50000   0.55104   0.00000  Uiso   1.00
Zn640  Zn    0.25000   0.50000   0.44896   0.00000  Uiso   1.00
C641   C    -0.00000   0.83077   0.38208   0.00000  Uiso   1.00
N642   N     0.00000   0.86423   0.40154   0.00000  Uiso   1.00
C643   C    -0.00000   0.66923   0.61792   0.00000  Uiso   1.00
N644   N    -0.00000   0.63577   0.59846   0.00000  Uiso   1.00
C645   C    -0.00000   0.66923   0.38208   0.00000  Uiso   1.00
N646   N    -0.00000   0.63577   0.40154   0.00000  Uiso   1.00
C647   C     0.00000   0.83077   0.61792   0.00000  Uiso   1.00
N648   N     0.00000   0.86423   0.59846   0.00000  Uiso   1.00
C649   C     0.25000   0.58077   0.38208   0.00000  Uiso   1.00
N650   N     0.25000   0.61423   0.40154   0.00000  Uiso   1.00
C651   C     0.25000   0.91923   0.61792   0.00000  Uiso   1.00
N652   N     0.25000   0.88577   0.59846   0.00000  Uiso   1.00
C653   C     0.25000   0.91923   0.38208   0.00000  Uiso   1.00
N654   N     0.25000   0.88577   0.40154   0.00000  Uiso   1.00
C655   C     0.25000   0.58077   0.61792   0.00000  Uiso   1.00
N656   N     0.25000   0.61423   0.59846   0.00000  Uiso   1.00
Cl657  Cl    0.39224   0.67293   0.40553   0.00000  Uiso   1.00
Cl658  Cl    0.10775   0.82707   0.59447   0.00000  Uiso   1.00
Cl659  Cl    0.10775   0.82707   0.40553   0.00000  Uiso   1.00
Cl660  Cl    0.39225   0.67293   0.59447   0.00000  Uiso   1.00
Cl661  Cl    0.10775   0.67293   0.59447   0.00000  Uiso   1.00
Cl662  Cl    0.39224   0.82707   0.40553   0.00000  Uiso   1.00
Cl663  Cl    0.39225   0.82707   0.59447   0.00000  Uiso   1.00
Cl664  Cl    0.10775   0.67293   0.40553   0.00000  Uiso   1.00
Cl665  Cl    0.14224   0.92293   0.40553   0.00000  Uiso   1.00
Cl666  Cl    0.35775   0.57707   0.59447   0.00000  Uiso   1.00
Cl667  Cl    0.35775   0.57707   0.40553   0.00000  Uiso   1.00
Cl668  Cl    0.14225   0.92293   0.59447   0.00000  Uiso   1.00
Cl669  Cl    0.35775   0.92293   0.59447   0.00000  Uiso   1.00
Cl670  Cl    0.14224   0.57707   0.40553   0.00000  Uiso   1.00
Cl671  Cl    0.14225   0.57707   0.59447   0.00000  Uiso   1.00
Cl672  Cl    0.35775   0.92293   0.40553   0.00000  Uiso   1.00
C673   C     0.56276   0.69285   0.50000   0.00000  Uiso   1.00
C674   C     0.93724   0.80715   0.50000   0.00000  Uiso   1.00
C675   C     0.93724   0.69285   0.50000   0.00000  Uiso   1.00
C676   C     0.56276   0.80715   0.50000   0.00000  Uiso   1.00
C677   C     0.81276   0.94285   0.50000   0.00000  Uiso   1.00
C678   C     0.68724   0.55715   0.50000   0.00000  Uiso   1.00
C679   C     0.68724   0.94285   0.50000   0.00000  Uiso   1.00
C680   C     0.81276   0.55715   0.50000   0.00000  Uiso   1.00
C681   C     0.50000   0.78925   0.35745   0.00000  Uiso   1.00
C682   C     0.50000   0.71075   0.64255   0.00000  Uiso   1.00
C683   C     0.50000   0.71075   0.35745   0.00000  Uiso   1.00
C684   C     0.50000   0.78925   0.64255   0.00000  Uiso   1.00
C685   C     0.75000   0.53925   0.35745   0.00000  Uiso   1.00
C686   C     0.75000   0.96075   0.64255   0.00000  Uiso   1.00
C687   C     0.75000   0.96075   0.35745   0.00000  Uiso   1.00
C688   C     0.75000   0.53925   0.64255   0.00000  Uiso   1.00
C689   C     0.88662   0.64456   0.45829   0.00000  Uiso   1.00
C690   C     0.61338   0.85544   0.54171   0.00000  Uiso   1.00
C691   C     0.61338   0.85544   0.45829   0.00000  Uiso   1.00
C692   C     0.88662   0.64456   0.54171   0.00000  Uiso   1.00
C693   C     0.61338   0.64456   0.54171   0.00000  Uiso   1.00
C694   C     0.88662   0.85544   0.45829   0.00000  Uiso   1.00
C695   C     0.88662   0.85544   0.54171   0.00000  Uiso   1.00
C696   C     0.61338   0.64456   0.45829   0.00000  Uiso   1.00
C697   C     0.63662   0.89456   0.45829   0.00000  Uiso   1.00
C698   C     0.86338   0.60544   0.54171   0.00000  Uiso   1.00
C699   C     0.86338   0.60544   0.45829   0.00000  Uiso   1.00
C700   C     0.63662   0.89456   0.54171   0.00000  Uiso   1.00
C701   C     0.86338   0.89456   0.54171   0.00000  Uiso   1.00
C702   C     0.63662   0.60544   0.45829   0.00000  Uiso   1.00
C703   C     0.63662   0.60544   0.54171   0.00000  Uiso   1.00
C704   C     0.86338   0.89456   0.45829   0.00000  Uiso   1.00
C705   C     0.59849   0.83804   0.50000   0.00000  Uiso   1.00
C706   C     0.90151   0.66196   0.50000   0.00000  Uiso   1.00
C707   C     0.90151   0.83804   0.50000   0.00000  Uiso   1.00
C708   C     0.59849   0.66196   0.50000   0.00000  Uiso   1.00
C709   C     0.84849   0.58804   0.50000   0.00000  Uiso   1.00
C710   C     0.65151   0.91196   0.50000   0.00000  Uiso   1.00
C711   C     0.65151   0.58804   0.50000   0.00000  Uiso   1.00
C712   C     0.84849   0.91196   0.50000   0.00000  Uiso   1.00
N713   N     0.50000   0.75000   0.61907   0.00000  Uiso   1.00
N714   N     0.50000   0.75000   0.38093   0.00000  Uiso   1.00
N715   N     0.75000   0.50000   0.61907   0.00000  Uiso   1.00
N716   N     0.75000   0.50000   0.38093   0.00000  Uiso   1.00
O717   O     0.54580   0.70419   0.53821   0.00000  Uiso   1.00
O718   O     0.95419   0.79581   0.46179   0.00000  Uiso   1.00
O719   O     0.95419   0.79581   0.53821   0.00000  Uiso   1.00
O720   O     0.54580   0.70419   0.46179   0.00000  Uiso   1.00
O721   O     0.95419   0.70419   0.46179   0.00000  Uiso   1.00
O722   O     0.54580   0.79581   0.53821   0.00000  Uiso   1.00
O723   O     0.54580   0.79581   0.46179   0.00000  Uiso   1.00
O724   O     0.95419   0.70419   0.53821   0.00000  Uiso   1.00
O725   O     0.79580   0.95419   0.53821   0.00000  Uiso   1.00
O726   O     0.70419   0.54581   0.46179   0.00000  Uiso   1.00
O727   O     0.70419   0.54581   0.53821   0.00000  Uiso   1.00
O728   O     0.79580   0.95419   0.46179   0.00000  Uiso   1.00
O729   O     0.70419   0.95419   0.46179   0.00000  Uiso   1.00
O730   O     0.79580   0.54581   0.53821   0.00000  Uiso   1.00
O731   O     0.79580   0.54581   0.46179   0.00000  Uiso   1.00
O732   O     0.70419   0.95419   0.53821   0.00000  Uiso   1.00
Zn733  Zn    0.50000   0.75000   0.55104   0.00000  Uiso   1.00
Zn734  Zn    0.50000   0.75000   0.44896   0.00000  Uiso   1.00
Zn735  Zn    0.75000   0.50000   0.55104   0.00000  Uiso   1.00
Zn736  Zn    0.75000   0.50000   0.44896   0.00000  Uiso   1.00
C737   C     0.50000   0.83077   0.38208   0.00000  Uiso   1.00
N738   N     0.50000   0.86423   0.40154   0.00000  Uiso   1.00
C739   C     0.50000   0.66923   0.61792   0.00000  Uiso   1.00
N740   N     0.50000   0.63577   0.59846   0.00000  Uiso   1.00
C741   C     0.50000   0.66923   0.38208   0.00000  Uiso   1.00
N742   N     0.50000   0.63577   0.40154   0.00000  Uiso   1.00
C743   C     0.50000   0.83077   0.61792   0.00000  Uiso   1.00
N744   N     0.50000   0.86423   0.59846   0.00000  Uiso   1.00
C745   C     0.75000   0.58077   0.38208   0.00000  Uiso   1.00
N746   N     0.75000   0.61423   0.40154   0.00000  Uiso   1.00
C747   C     0.75000   0.91923   0.61792   0.00000  Uiso   1.00
N748   N     0.75000   0.88577   0.59846   0.00000  Uiso   1.00
C749   C     0.75000   0.91923   0.38208   0.00000  Uiso   1.00
N750   N     0.75000   0.88577   0.40154   0.00000  Uiso   1.00
C751   C     0.75000   0.58077   0.61792   0.00000  Uiso   1.00
N752   N     0.75000   0.61423   0.59846   0.00000  Uiso   1.00
Cl753  Cl    0.89224   0.67293   0.40553   0.00000  Uiso   1.00
Cl754  Cl    0.60775   0.82707   0.59447   0.00000  Uiso   1.00
Cl755  Cl    0.60775   0.82707   0.40553   0.00000  Uiso   1.00
Cl756  Cl    0.89225   0.67293   0.59447   0.00000  Uiso   1.00
Cl757  Cl    0.60775   0.67293   0.59447   0.00000  Uiso   1.00
Cl758  Cl    0.89224   0.82707   0.40553   0.00000  Uiso   1.00
Cl759  Cl    0.89225   0.82707   0.59447   0.00000  Uiso   1.00
Cl760  Cl    0.60775   0.67293   0.40553   0.00000  Uiso   1.00
Cl761  Cl    0.64224   0.92293   0.40553   0.00000  Uiso   1.00
Cl762  Cl    0.85775   0.57707   0.59447   0.00000  Uiso   1.00
Cl763  Cl    0.85775   0.57707   0.40553   0.00000  Uiso   1.00
Cl764  Cl    0.64225   0.92293   0.59447   0.00000  Uiso   1.00
Cl765  Cl    0.85775   0.92293   0.59447   0.00000  Uiso   1.00
Cl766  Cl    0.64224   0.57707   0.40553   0.00000  Uiso   1.00
Cl767  Cl    0.64225   0.57707   0.59447   0.00000  Uiso   1.00
Cl768  Cl    0.85775   0.92293   0.40553   0.00000  Uiso   1.00
C769   C     0.06276   0.19285   0.83333   0.00000  Uiso   1.00
C770   C     0.43724   0.30715   0.83333   0.00000  Uiso   1.00
C771   C     0.43724   0.19285   0.83333   0.00000  Uiso   1.00
C772   C     0.06276   0.30715   0.83333   0.00000  Uiso   1.00
C773   C     0.31276   0.44285   0.83333   0.00000  Uiso   1.00
C774   C     0.18724   0.05715   0.83333   0.00000  Uiso   1.00
C775   C     0.18724   0.44285   0.83333   0.00000  Uiso   1.00
C776   C     0.31276   0.05715   0.83333   0.00000  Uiso   1.00
C777   C     0.00000   0.28925   0.69079   0.00000  Uiso   1.00
C778   C     0.00000   0.21075   0.97588   0.00000  Uiso   1.00
C779   C    -0.00000   0.21075   0.69079   0.00000  Uiso   1.00
C780   C     0.00000   0.28925   0.97588   0.00000  Uiso   1.00
C781   C     0.25000   0.03925   0.69079   0.00000  Uiso   1.00
C782   C     0.25000   0.46075   0.97588   0.00000  Uiso   1.00
C783   C     0.25000   0.46075   0.69079   0.00000  Uiso   1.00
C784   C     0.25000   0.03925   0.97588   0.00000  Uiso   1.00
C785   C     0.38662   0.14456   0.79162   0.00000  Uiso   1.00
C786   C     0.11338   0.35544   0.87504   0.00000  Uiso   1.00
C787   C     0.11338   0.35544   0.79162   0.00000  Uiso   1.00
C788   C     0.38662   0.14456   0.87504   0.00000  Uiso   1.00
C789   C     0.11338   0.14456   0.87504   0.00000  Uiso   1.00
C790   C     0.38662   0.35544   0.79162   0.00000  Uiso   1.00
C791   C     0.38662   0.35544   0.87504   0.00000  Uiso   1.00
C792   C     0.11338   0.14456   0.79162   0.00000  Uiso   1.00
C793   C     0.13662   0.39456   0.79162   0.00000  Uiso   1.00
C794   C     0.36338   0.10544   0.87504   0.00000  Uiso   1.00
C795   C     0.36338   0.10544   0.79162   0.00000  Uiso   1.00
C796   C     0.13662   0.39456   0.87504   0.00000  Uiso   1.00
C797   C     0.36338   0.39456   0.87504   0.00000  Uiso   1.00
C798   C     0.13662   0.10544   0.79162   0.00000  Uiso   1.00
C799   C     0.13662   0.10544   0.87504   0.00000  Uiso   1.00
C800   C     0.36338   0.39456   0.79162   0.00000  Uiso   1.00
C801   C     0.09849   0.33804   0.83333   0.00000  Uiso   1.00
C802   C     0.40151   0.16196   0.83333   0.00000  Uiso   1.00
C803   C     0.40151   0.33804   0.83333   0.00000  Uiso   1.00
C804   C     0.09849   0.16196   0.83333   0.00000  Uiso   1.00
C805   C     0.34849   0.08804   0.83333   0.00000  Uiso   1.00
C806   C     0.15151   0.41196   0.83333   0.00000  Uiso   1.00
C807   C     0.15151   0.08804   0.83333   0.00000  Uiso   1.00
C808   C     0.34849   0.41196   0.83333   0.00000  Uiso   1.00
N809   N     0.00000   0.25000   0.95240   0.00000  Uiso   1.00
N810   N     0.00000   0.25000   0.71427   0.00000  Uiso   1.00
N811   N     0.25000  -0.00000   0.95240   0.00000  Uiso   1.00
N812   N     0.25000  -0.00000   0.71427   0.00000  Uiso   1.00
O813   O     0.04580   0.20419   0.87154   0.00000  Uiso   1.00
O814   O     0.45419   0.29581   0.79513   0.00000  Uiso   1.00
O815   O     0.45419   0.29581   0.87154   0.00000  Uiso   1.00
O816   O     0.04580   0.20419   0.79513   0.00000  Uiso   1.00
O817   O     0.45419   0.20419   0.79513   0.00000  Uiso   1.00
O818   O     0.04580   0.29581   0.87154   0.00000  Uiso   1.00
O819   O     0.04580   0.29581   0.79513   0.00000  Uiso   1.00
O820   O     0.45419   0.20419   0.87154   0.00000  Uiso   1.00
O821   O     0.29580   0.45419   0.87154   0.00000  Uiso   1.00
O822   O     0.20419   0.04581   0.79513   0.00000  Uiso   1.00
O823   O     0.20419   0.04581   0.87154   0.00000  Uiso   1.00
O824   O     0.29580   0.45419   0.79513   0.00000  Uiso   1.00
O825   O     0.20419   0.45419   0.79513   0.00000  Uiso   1.00
O826   O     0.29580   0.04581   0.87154   0.00000  Uiso   1.00
O827   O     0.29580   0.04581   0.79513   0.00000  Uiso   1.00
O828   O     0.20419   0.45419   0.87154   0.00000  Uiso   1.00
Zn829  Zn    0.00000   0.25000   0.88437   0.00000  Uiso   1.00
Zn830  Zn    0.00000   0.25000   0.78229   0.00000  Uiso   1.00
Zn831  Zn    0.25000  -0.00000   0.88437   0.00000  Uiso   1.00
Zn832  Zn    0.25000  -0.00000   0.78229   0.00000  Uiso   1.00
C833   C    -0.00000   0.33077   0.71541   0.00000  Uiso   1.00
N834   N     0.00000   0.36423   0.73487   0.00000  Uiso   1.00
C835   C    -0.00000   0.16923   0.95125   0.00000  Uiso   1.00
N836   N    -0.00000   0.13577   0.93180   0.00000  Uiso   1.00
C837   C    -0.00000   0.16923   0.71541   0.00000  Uiso   1.00
N838   N    -0.00000   0.13577   0.73487   0.00000  Uiso   1.00
C839   C     0.00000   0.33077   0.95125   0.00000  Uiso   1.00
N840   N     0.00000   0.36423   0.93180   0.00000  Uiso   1.00
C841   C     0.25000   0.08077   0.71541   0.00000  Uiso   1.00
N842   N     0.25000   0.11423   0.73487   0.00000  Uiso   1.00
C843   C     0.25000   0.41923   0.95125   0.00000  Uiso   1.00
N844   N     0.25000   0.38577   0.93180   0.00000  Uiso   1.00
C845   C     0.25000   0.41923   0.71541   0.00000  Uiso   1.00
N846   N     0.25000   0.38577   0.73487   0.00000  Uiso   1.00
C847   C     0.25000   0.08077   0.95125   0.00000  Uiso   1.00
N848   N     0.25000   0.11423   0.93180   0.00000  Uiso   1.00
Cl849  Cl    0.39224   0.17293   0.73886   0.00000  Uiso   1.00
Cl850  Cl    0.10775   0.32707   0.92780   0.00000  Uiso   1.00
Cl851  Cl    0.10775   0.32707   0.73886   0.00000  Uiso   1.00
Cl852  Cl    0.39225   0.17293   0.92781   0.00000  Uiso   1.00
Cl853  Cl    0.10775   0.17293   0.92780   0.00000  Uiso   1.00
Cl854  Cl    0.39224   0.32707   0.73886   0.00000  Uiso   1.00
Cl855  Cl    0.39225   0.32707   0.92780   0.00000  Uiso   1.00
Cl856  Cl    0.10775   0.17293   0.73886   0.00000  Uiso   1.00
Cl857  Cl    0.14224   0.42293   0.73886   0.00000  Uiso   1.00
Cl858  Cl    0.35775   0.07707   0.92780   0.00000  Uiso   1.00
Cl859  Cl    0.35775   0.07707   0.73886   0.00000  Uiso   1.00
Cl860  Cl    0.14225   0.42293   0.92781   0.00000  Uiso   1.00
Cl861  Cl    0.35775   0.42293   0.92780   0.00000  Uiso   1.00
Cl862  Cl    0.14224   0.07707   0.73886   0.00000  Uiso   1.00
Cl863  Cl    0.14225   0.07707   0.92780   0.00000  Uiso   1.00
Cl864  Cl    0.35775   0.42293   0.73886   0.00000  Uiso   1.00
C865   C     0.56276   0.19285   0.83333   0.00000  Uiso   1.00
C866   C     0.93724   0.30715   0.83333   0.00000  Uiso   1.00
C867   C     0.93724   0.19285   0.83333   0.00000  Uiso   1.00
C868   C     0.56276   0.30715   0.83333   0.00000  Uiso   1.00
C869   C     0.81276   0.44285   0.83333   0.00000  Uiso   1.00
C870   C     0.68724   0.05715   0.83333   0.00000  Uiso   1.00
C871   C     0.68724   0.44285   0.83333   0.00000  Uiso   1.00
C872   C     0.81276   0.05715   0.83333   0.00000  Uiso   1.00
C873   C     0.50000   0.28925   0.69079   0.00000  Uiso   1.00
C874   C     0.50000   0.21075   0.97588   0.00000  Uiso   1.00
C875   C     0.50000   0.21075   0.69079   0.00000  Uiso   1.00
C876   C     0.50000   0.28925   0.97588   0.00000  Uiso   1.00
C877   C     0.75000   0.03925   0.69079   0.00000  Uiso   1.00
C878   C     0.75000   0.46075   0.97588   0.00000  Uiso   1.00
C879   C     0.75000   0.46075   0.69079   0.00000  Uiso   1.00
C880   C     0.75000   0.03925   0.97588   0.00000  Uiso   1.00
C881   C     0.88662   0.14456   0.79162   0.00000  Uiso   1.00
C882   C     0.61338   0.35544   0.87504   0.00000  Uiso   1.00
C883   C     0.61338   0.35544   0.79162   0.00000  Uiso   1.00
C884   C     0.88662   0.14456   0.87504   0.00000  Uiso   1.00
C885   C     0.61338   0.14456   0.87504   0.00000  Uiso   1.00
C886   C     0.88662   0.35544   0.79162   0.00000  Uiso   1.00
C887   C     0.88662   0.35544   0.87504   0.00000  Uiso   1.00
C888   C     0.61338   0.14456   0.79162   0.00000  Uiso   1.00
C889   C     0.63662   0.39456   0.79162   0.00000  Uiso   1.00
C890   C     0.86338   0.10544   0.87504   0.00000  Uiso   1.00
C891   C     0.86338   0.10544   0.79162   0.00000  Uiso   1.00
C892   C     0.63662   0.39456   0.87504   0.00000  Uiso   1.00
C893   C     0.86338   0.39456   0.87504   0.00000  Uiso   1.00
C894   C     0.63662   0.10544   0.79162   0.00000  Uiso   1.00
C895   C     0.63662   0.10544   0.87504   0.00000  Uiso   1.00
C896   C     0.86338   0.39456   0.79162   0.00000  Uiso   1.00
C897   C     0.59849   0.33804   0.83333   0.00000  Uiso   1.00
C898   C     0.90151   0.16196   0.83333   0.00000  Uiso   1.00
C899   C     0.90151   0.33804   0.83333   0.00000  Uiso   1.00
C900   C     0.59849   0.16196   0.83333   0.00000  Uiso   1.00
C901   C     0.84849   0.08804   0.83333   0.00000  Uiso   1.00
C902   C     0.65151   0.41196   0.83333   0.00000  Uiso   1.00
C903   C     0.65151   0.08804   0.83333   0.00000  Uiso   1.00
C904   C     0.84849   0.41196   0.83333   0.00000  Uiso   1.00
N905   N     0.50000   0.25000   0.95240   0.00000  Uiso   1.00
N906   N     0.50000   0.25000   0.71427   0.00000  Uiso   1.00
N907   N     0.75000  -0.00000   0.95240   0.00000  Uiso   1.00
N908   N     0.75000  -0.00000   0.71427   0.00000  Uiso   1.00
O909   O     0.54580   0.20419   0.87154   0.00000  Uiso   1.00
O910   O     0.95419   0.29581   0.79513   0.00000  Uiso   1.00
O911   O     0.95419   0.29581   0.87154   0.00000  Uiso   1.00
O912   O     0.54580   0.20419   0.79513   0.00000  Uiso   1.00
O913   O     0.95419   0.20419   0.79513   0.00000  Uiso   1.00
O914   O     0.54580   0.29581   0.87154   0.00000  Uiso   1.00
O915   O     0.54580   0.29581   0.79513   0.00000  Uiso   1.00
O916   O     0.95419   0.20419   0.87154   0.00000  Uiso   1.00
O917   O     0.79580   0.45419   0.87154   0.00000  Uiso   1.00
O918   O     0.70419   0.04581   0.79513   0.00000  Uiso   1.00
O919   O     0.70419   0.04581   0.87154   0.00000  Uiso   1.00
O920   O     0.79580   0.45419   0.79513   0.00000  Uiso   1.00
O921   O     0.70419   0.45419   0.79513   0.00000  Uiso   1.00
O922   O     0.79580   0.04581   0.87154   0.00000  Uiso   1.00
O923   O     0.79580   0.04581   0.79513   0.00000  Uiso   1.00
O924   O     0.70419   0.45419   0.87154   0.00000  Uiso   1.00
Zn925  Zn    0.50000   0.25000   0.88437   0.00000  Uiso   1.00
Zn926  Zn    0.50000   0.25000   0.78229   0.00000  Uiso   1.00
Zn927  Zn    0.75000  -0.00000   0.88437   0.00000  Uiso   1.00
Zn928  Zn    0.75000  -0.00000   0.78229   0.00000  Uiso   1.00
C929   C     0.50000   0.33077   0.71541   0.00000  Uiso   1.00
N930   N     0.50000   0.36423   0.73487   0.00000  Uiso   1.00
C931   C     0.50000   0.16923   0.95125   0.00000  Uiso   1.00
N932   N     0.50000   0.13577   0.93180   0.00000  Uiso   1.00
C933   C     0.50000   0.16923   0.71541   0.00000  Uiso   1.00
N934   N     0.50000   0.13577   0.73487   0.00000  Uiso   1.00
C935   C     0.50000   0.33077   0.95125   0.00000  Uiso   1.00
N936   N     0.50000   0.36423   0.93180   0.00000  Uiso   1.00
C937   C     0.75000   0.08077   0.71541   0.00000  Uiso   1.00
N938   N     0.75000   0.11423   0.73487   0.00000  Uiso   1.00
C939   C     0.75000   0.41923   0.95125   0.00000  Uiso   1.00
N940   N     0.75000   0.38577   0.93180   0.00000  Uiso   1.00
C941   C     0.75000   0.41923   0.71541   0.00000  Uiso   1.00
N942   N     0.75000   0.38577   0.73487   0.00000  Uiso   1.00
C943   C     0.75000   0.08077   0.95125   0.00000  Uiso   1.00
N944   N     0.75000   0.11423   0.93180   0.00000  Uiso   1.00
Cl945  Cl    0.89224   0.17293   0.73886   0.00000  Uiso   1.00
Cl946  Cl    0.60775   0.32707   0.92780   0.00000  Uiso   1.00
Cl947  Cl    0.60775   0.32707   0.73886   0.00000  Uiso   1.00
Cl948  Cl    0.89225   0.17293   0.92781   0.00000  Uiso   1.00
Cl949  Cl    0.60775   0.17293   0.92780   0.00000  Uiso   1.00
Cl950  Cl    0.89224   0.32707   0.73886   0.00000  Uiso   1.00
Cl951  Cl    0.89225   0.32707   0.92780   0.00000  Uiso   1.00
Cl952  Cl    0.60775   0.17293   0.73886   0.00000  Uiso   1.00
Cl953  Cl    0.64224   0.42293   0.73886   0.00000  Uiso   1.00
Cl954  Cl    0.85775   0.07707   0.92780   0.00000  Uiso   1.00
Cl955  Cl    0.85775   0.07707   0.73886   0.00000  Uiso   1.00
Cl956  Cl    0.64225   0.42293   0.92781   0.00000  Uiso   1.00
Cl957  Cl    0.85775   0.42293   0.92780   0.00000  Uiso   1.00
Cl958  Cl    0.64224   0.07707   0.73886   0.00000  Uiso   1.00
Cl959  Cl    0.64225   0.07707   0.92780   0.00000  Uiso   1.00
Cl960  Cl    0.85775   0.42293   0.73886   0.00000  Uiso   1.00
C961   C     0.06276   0.69285   0.83333   0.00000  Uiso   1.00
C962   C     0.43724   0.80715   0.83333   0.00000  Uiso   1.00
C963   C     0.43724   0.69285   0.83333   0.00000  Uiso   1.00
C964   C     0.06276   0.80715   0.83333   0.00000  Uiso   1.00
C965   C     0.31276   0.94285   0.83333   0.00000  Uiso   1.00
C966   C     0.18724   0.55715   0.83333   0.00000  Uiso   1.00
C967   C     0.18724   0.94285   0.83333   0.00000  Uiso   1.00
C968   C     0.31276   0.55715   0.83333   0.00000  Uiso   1.00
C969   C     0.00000   0.78925   0.69079   0.00000  Uiso   1.00
C970   C     0.00000   0.71075   0.97588   0.00000  Uiso   1.00
C971   C    -0.00000   0.71075   0.69079   0.00000  Uiso   1.00
C972   C     0.00000   0.78925   0.97588   0.00000  Uiso   1.00
C973   C     0.25000   0.53925   0.69079   0.00000  Uiso   1.00
C974   C     0.25000   0.96075   0.97588   0.00000  Uiso   1.00
C975   C     0.25000   0.96075   0.69079   0.00000  Uiso   1.00
C976   C     0.25000   0.53925   0.97588   0.00000  Uiso   1.00
C977   C     0.38662   0.64456   0.79162   0.00000  Uiso   1.00
C978   C     0.11338   0.85544   0.87504   0.00000  Uiso   1.00
C979   C     0.11338   0.85544   0.79162   0.00000  Uiso   1.00
C980   C     0.38662   0.64456   0.87504   0.00000  Uiso   1.00
C981   C     0.11338   0.64456   0.87504   0.00000  Uiso   1.00
C982   C     0.38662   0.85544   0.79162   0.00000  Uiso   1.00
C983   C     0.38662   0.85544   0.87504   0.00000  Uiso   1.00
C984   C     0.11338   0.64456   0.79162   0.00000  Uiso   1.00
C985   C     0.13662   0.89456   0.79162   0.00000  Uiso   1.00
C986   C     0.36338   0.60544   0.87504   0.00000  Uiso   1.00
C987   C     0.36338   0.60544   0.79162   0.00000  Uiso   1.00
C988   C     0.13662   0.89456   0.87504   0.00000  Uiso   1.00
C989   C     0.36338   0.89456   0.87504   0.00000  Uiso   1.00
C990   C     0.13662   0.60544   0.79162   0.00000  Uiso   1.00
C991   C     0.13662   0.60544   0.87504   0.00000  Uiso   1.00
C992   C     0.36338   0.89456   0.79162   0.00000  Uiso   1.00
C993   C     0.09849   0.83804   0.83333   0.00000  Uiso   1.00
C994   C     0.40151   0.66196   0.83333   0.00000  Uiso   1.00
C995   C     0.40151   0.83804   0.83333   0.00000  Uiso   1.00
C996   C     0.09849   0.66196   0.83333   0.00000  Uiso   1.00
C997   C     0.34849   0.58804   0.83333   0.00000  Uiso   1.00
C998   C     0.15151   0.91196   0.83333   0.00000  Uiso   1.00
C999   C     0.15151   0.58804   0.83333   0.00000  Uiso   1.00
C1000  C     0.34849   0.91196   0.83333   0.00000  Uiso   1.00
N1001  N     0.00000   0.75000   0.95240   0.00000  Uiso   1.00
N1002  N     0.00000   0.75000   0.71427   0.00000  Uiso   1.00
N1003  N     0.25000   0.50000   0.95240   0.00000  Uiso   1.00
N1004  N     0.25000   0.50000   0.71427   0.00000  Uiso   1.00
O1005  O     0.04580   0.70419   0.87154   0.00000  Uiso   1.00
O1006  O     0.45419   0.79581   0.79513   0.00000  Uiso   1.00
O1007  O     0.45419   0.79581   0.87154   0.00000  Uiso   1.00
O1008  O     0.04580   0.70419   0.79513   0.00000  Uiso   1.00
O1009  O     0.45419   0.70419   0.79513   0.00000  Uiso   1.00
O1010  O     0.04580   0.79581   0.87154   0.00000  Uiso   1.00
O1011  O     0.04580   0.79581   0.79513   0.00000  Uiso   1.00
O1012  O     0.45419   0.70419   0.87154   0.00000  Uiso   1.00
O1013  O     0.29580   0.95419   0.87154   0.00000  Uiso   1.00
O1014  O     0.20419   0.54581   0.79513   0.00000  Uiso   1.00
O1015  O     0.20419   0.54581   0.87154   0.00000  Uiso   1.00
O1016  O     0.29580   0.95419   0.79513   0.00000  Uiso   1.00
O1017  O     0.20419   0.95419   0.79513   0.00000  Uiso   1.00
O1018  O     0.29580   0.54581   0.87154   0.00000  Uiso   1.00
O1019  O     0.29580   0.54581   0.79513   0.00000  Uiso   1.00
O1020  O     0.20419   0.95419   0.87154   0.00000  Uiso   1.00
Zn1021 Zn    0.00000   0.75000   0.88437   0.00000  Uiso   1.00
Zn1022 Zn    0.00000   0.75000   0.78229   0.00000  Uiso   1.00
Zn1023 Zn    0.25000   0.50000   0.88437   0.00000  Uiso   1.00
Zn1024 Zn    0.25000   0.50000   0.78229   0.00000  Uiso   1.00
C1025  C    -0.00000   0.83077   0.71541   0.00000  Uiso   1.00
N1026  N     0.00000   0.86423   0.73487   0.00000  Uiso   1.00
C1027  C    -0.00000   0.66923   0.95125   0.00000  Uiso   1.00
N1028  N    -0.00000   0.63577   0.93180   0.00000  Uiso   1.00
C1029  C    -0.00000   0.66923   0.71541   0.00000  Uiso   1.00
N1030  N    -0.00000   0.63577   0.73487   0.00000  Uiso   1.00
C1031  C     0.00000   0.83077   0.95125   0.00000  Uiso   1.00
N1032  N     0.00000   0.86423   0.93180   0.00000  Uiso   1.00
C1033  C     0.25000   0.58077   0.71541   0.00000  Uiso   1.00
N1034  N     0.25000   0.61423   0.73487   0.00000  Uiso   1.00
C1035  C     0.25000   0.91923   0.95125   0.00000  Uiso   1.00
N1036  N     0.25000   0.88577   0.93180   0.00000  Uiso   1.00
C1037  C     0.25000   0.91923   0.71541   0.00000  Uiso   1.00
N1038  N     0.25000   0.88577   0.73487   0.00000  Uiso   1.00
C1039  C     0.25000   0.58077   0.95125   0.00000  Uiso   1.00
N1040  N     0.25000   0.61423   0.93180   0.00000  Uiso   1.00
Cl1041 Cl    0.39224   0.67293   0.73886   0.00000  Uiso   1.00
Cl1042 Cl    0.10775   0.82707   0.92780   0.00000  Uiso   1.00
Cl1043 Cl    0.10775   0.82707   0.73886   0.00000  Uiso   1.00
Cl1044 Cl    0.39225   0.67293   0.92781   0.00000  Uiso   1.00
Cl1045 Cl    0.10775   0.67293   0.92780   0.00000  Uiso   1.00
Cl1046 Cl    0.39224   0.82707   0.73886   0.00000  Uiso   1.00
Cl1047 Cl    0.39225   0.82707   0.92780   0.00000  Uiso   1.00
Cl1048 Cl    0.10775   0.67293   0.73886   0.00000  Uiso   1.00
Cl1049 Cl    0.14224   0.92293   0.73886   0.00000  Uiso   1.00
Cl1050 Cl    0.35775   0.57707   0.92780   0.00000  Uiso   1.00
Cl1051 Cl    0.35775   0.57707   0.73886   0.00000  Uiso   1.00
Cl1052 Cl    0.14225   0.92293   0.92781   0.00000  Uiso   1.00
Cl1053 Cl    0.35775   0.92293   0.92780   0.00000  Uiso   1.00
Cl1054 Cl    0.14224   0.57707   0.73886   0.00000  Uiso   1.00
Cl1055 Cl    0.14225   0.57707   0.92780   0.00000  Uiso   1.00
Cl1056 Cl    0.35775   0.92293   0.73886   0.00000  Uiso   1.00
C1057  C     0.56276   0.69285   0.83333   0.00000  Uiso   1.00
C1058  C     0.93724   0.80715   0.83333   0.00000  Uiso   1.00
C1059  C     0.93724   0.69285   0.83333   0.00000  Uiso   1.00
C1060  C     0.56276   0.80715   0.83333   0.00000  Uiso   1.00
C1061  C     0.81276   0.94285   0.83333   0.00000  Uiso   1.00
C1062  C     0.68724   0.55715   0.83333   0.00000  Uiso   1.00
C1063  C     0.68724   0.94285   0.83333   0.00000  Uiso   1.00
C1064  C     0.81276   0.55715   0.83333   0.00000  Uiso   1.00
C1065  C     0.50000   0.78925   0.69079   0.00000  Uiso   1.00
C1066  C     0.50000   0.71075   0.97588   0.00000  Uiso   1.00
C1067  C     0.50000   0.71075   0.69079   0.00000  Uiso   1.00
C1068  C     0.50000   0.78925   0.97588   0.00000  Uiso   1.00
C1069  C     0.75000   0.53925   0.69079   0.00000  Uiso   1.00
C1070  C     0.75000   0.96075   0.97588   0.00000  Uiso   1.00
C1071  C     0.75000   0.96075   0.69079   0.00000  Uiso   1.00
C1072  C     0.75000   0.53925   0.97588   0.00000  Uiso   1.00
C1073  C     0.88662   0.64456   0.79162   0.00000  Uiso   1.00
C1074  C     0.61338   0.85544   0.87504   0.00000  Uiso   1.00
C1075  C     0.61338   0.85544   0.79162   0.00000  Uiso   1.00
C1076  C     0.88662   0.64456   0.87504   0.00000  Uiso   1.00
C1077  C     0.61338   0.64456   0.87504   0.00000  Uiso   1.00
C1078  C     0.88662   0.85544   0.79162   0.00000  Uiso   1.00
C1079  C     0.88662   0.85544   0.87504   0.00000  Uiso   1.00
C1080  C     0.61338   0.64456   0.79162   0.00000  Uiso   1.00
C1081  C     0.63662   0.89456   0.79162   0.00000  Uiso   1.00
C1082  C     0.86338   0.60544   0.87504   0.00000  Uiso   1.00
C1083  C     0.86338   0.60544   0.79162   0.00000  Uiso   1.00
C1084  C     0.63662   0.89456   0.87504   0.00000  Uiso   1.00
C1085  C     0.86338   0.89456   0.87504   0.00000  Uiso   1.00
C1086  C     0.63662   0.60544   0.79162   0.00000  Uiso   1.00
C1087  C     0.63662   0.60544   0.87504   0.00000  Uiso   1.00
C1088  C     0.86338   0.89456   0.79162   0.00000  Uiso   1.00
C1089  C     0.59849   0.83804   0.83333   0.00000  Uiso   1.00
C1090  C     0.90151   0.66196   0.83333   0.00000  Uiso   1.00
C1091  C     0.90151   0.83804   0.83333   0.00000  Uiso   1.00
C1092  C     0.59849   0.66196   0.83333   0.00000  Uiso   1.00
C1093  C     0.84849   0.58804   0.83333   0.00000  Uiso   1.00
C1094  C     0.65151   0.91196   0.83333   0.00000  Uiso   1.00
C1095  C     0.65151   0.58804   0.83333   0.00000  Uiso   1.00
C1096  C     0.84849   0.91196   0.83333   0.00000  Uiso   1.00
N1097  N     0.50000   0.75000   0.95240   0.00000  Uiso   1.00
N1098  N     0.50000   0.75000   0.71427   0.00000  Uiso   1.00
N1099  N     0.75000   0.50000   0.95240   0.00000  Uiso   1.00
N1100  N     0.75000   0.50000   0.71427   0.00000  Uiso   1.00
O1101  O     0.54580   0.70419   0.87154   0.00000  Uiso   1.00
O1102  O     0.95419   0.79581   0.79513   0.00000  Uiso   1.00
O1103  O     0.95419   0.79581   0.87154   0.00000  Uiso   1.00
O1104  O     0.54580   0.70419   0.79513   0.00000  Uiso   1.00
O1105  O     0.95419   0.70419   0.79513   0.00000  Uiso   1.00
O1106  O     0.54580   0.79581   0.87154   0.00000  Uiso   1.00
O1107  O     0.54580   0.79581   0.79513   0.00000  Uiso   1.00
O1108  O     0.95419   0.70419   0.87154   0.00000  Uiso   1.00
O1109  O     0.79580   0.95419   0.87154   0.00000  Uiso   1.00
O1110  O     0.70419   0.54581   0.79513   0.00000  Uiso   1.00
O1111  O     0.70419   0.54581   0.87154   0.00000  Uiso   1.00
O1112  O     0.79580   0.95419   0.79513   0.00000  Uiso   1.00
O1113  O     0.70419   0.95419   0.79513   0.00000  Uiso   1.00
O1114  O     0.79580   0.54581   0.87154   0.00000  Uiso   1.00
O1115  O     0.79580   0.54581   0.79513   0.00000  Uiso   1.00
O1116  O     0.70419   0.95419   0.87154   0.00000  Uiso   1.00
Zn1117 Zn    0.50000   0.75000   0.88437   0.00000  Uiso   1.00
Zn1118 Zn    0.50000   0.75000   0.78229   0.00000  Uiso   1.00
Zn1119 Zn    0.75000   0.50000   0.88437   0.00000  Uiso   1.00
Zn1120 Zn    0.75000   0.50000   0.78229   0.00000  Uiso   1.00
C1121  C     0.50000   0.83077   0.71541   0.00000  Uiso   1.00
N1122  N     0.50000   0.86423   0.73487   0.00000  Uiso   1.00
C1123  C     0.50000   0.66923   0.95125   0.00000  Uiso   1.00
N1124  N     0.50000   0.63577   0.93180   0.00000  Uiso   1.00
C1125  C     0.50000   0.66923   0.71541   0.00000  Uiso   1.00
N1126  N     0.50000   0.63577   0.73487   0.00000  Uiso   1.00
C1127  C     0.50000   0.83077   0.95125   0.00000  Uiso   1.00
N1128  N     0.50000   0.86423   0.93180   0.00000  Uiso   1.00
C1129  C     0.75000   0.58077   0.71541   0.00000  Uiso   1.00
N1130  N     0.75000   0.61423   0.73487   0.00000  Uiso   1.00
C1131  C     0.75000   0.91923   0.95125   0.00000  Uiso   1.00
N1132  N     0.75000   0.88577   0.93180   0.00000  Uiso   1.00
C1133  C     0.75000   0.91923   0.71541   0.00000  Uiso   1.00
N1134  N     0.75000   0.88577   0.73487   0.00000  Uiso   1.00
C1135  C     0.75000   0.58077   0.95125   0.00000  Uiso   1.00
N1136  N     0.75000   0.61423   0.93180   0.00000  Uiso   1.00
Cl1137 Cl    0.89224   0.67293   0.73886   0.00000  Uiso   1.00
Cl1138 Cl    0.60775   0.82707   0.92780   0.00000  Uiso   1.00
Cl1139 Cl    0.60775   0.82707   0.73886   0.00000  Uiso   1.00
Cl1140 Cl    0.89225   0.67293   0.92781   0.00000  Uiso   1.00
Cl1141 Cl    0.60775   0.67293   0.92780   0.00000  Uiso   1.00
Cl1142 Cl    0.89224   0.82707   0.73886   0.00000  Uiso   1.00
Cl1143 Cl    0.89225   0.82707   0.92780   0.00000  Uiso   1.00
Cl1144 Cl    0.60775   0.67293   0.73886   0.00000  Uiso   1.00
Cl1145 Cl    0.64224   0.92293   0.73886   0.00000  Uiso   1.00
Cl1146 Cl    0.85775   0.57707   0.92780   0.00000  Uiso   1.00
Cl1147 Cl    0.85775   0.57707   0.73886   0.00000  Uiso   1.00
Cl1148 Cl    0.64225   0.92293   0.92781   0.00000  Uiso   1.00
Cl1149 Cl    0.85775   0.92293   0.92780   0.00000  Uiso   1.00
Cl1150 Cl    0.64224   0.57707   0.73886   0.00000  Uiso   1.00
Cl1151 Cl    0.64225   0.57707   0.92780   0.00000  Uiso   1.00
Cl1152 Cl    0.85775   0.92293   0.73886   0.00000  Uiso   1.00
loop_
_geom_bond_atom_site_label_1
_geom_bond_atom_site_label_2
_geom_bond_distance
_geom_bond_site_symmetry_2
_ccdc_geom_bond_type
C1     O48     1.286   .     A
C1     O45     1.286   .     A
C1     C36     1.443   .     S
C2     C35     1.443   .     S
C2     O46     1.286   .     A
C2     O47     1.286   .     A
C3     O49     1.286   .     A
C3     C34     1.443   .     S
C3     O52     1.286   .     A
C4     O51     1.286   .     A
C4     O50     1.286   .     A
C4     C33     1.443   .     S
C5     O56     1.286   .     A
C5     O53     1.286   .     A
C5     C40     1.443   .     S
C6     O55     1.286   .     A
C6     O54     1.286   .     A
C6     C39     1.443   .     S
C7     O60     1.286   .     A
C7     C38     1.443   .     S
C7     O57     1.286   .     A
C8     O59     1.286   .     A
C8     O58     1.286   .     A
C8     C37     1.443   .     S
C9     N42     1.367   .     A
C9     C780    1.419   1_554 S
C9     C65     1.443   .     S
C10    N41     1.367   .     A
C10    C395    1.419   .     S
C10    C67     1.443   .     S
C11    C69     1.443   .     S
C11    C778    1.419   1_554 S
C11    N42     1.367   .     S
C12    N41     1.367   .     A
C12    C71     1.443   .     S
C12    C393    1.419   .     S
C13    C73     1.443   .     S
C13    N44     1.367   .     A
C13    C784    1.419   1_554 S
C14    C75     1.443   .     S
C14    C399    1.419   .     S
C14    N235    1.367   .     S
C15    C77     1.443   .     S
C15    C782    1.419   1_554 S
C15    N236    1.367   .     S
C16    N43     1.367   .     A
C16    C79     1.443   .     S
C16    C397    1.419   .     S
C17    C27     1.378   .     A
C17    Cl81    1.779   .     S
C17    C34     1.411   .     A
C18    C28     1.378   .     A
C18    Cl82    1.779   .     S
C18    C33     1.411   .     A
C19    Cl83    1.779   .     S
C19    C33     1.411   .     A
C19    C25     1.378   .     A
C20    C34     1.411   .     A
C20    Cl84    1.779   .     S
C20    C26     1.378   .     A
C21    C36     1.411   .     A
C21    C31     1.378   .     A
C21    Cl85    1.779   .     S
C22    C35     1.411   .     A
C22    C32     1.378   .     A
C22    Cl86    1.779   .     S
C23    C29     1.378   .     A
C23    Cl87    1.779   .     S
C23    C35     1.411   .     A
C24    C36     1.411   .     A
C24    Cl88    1.779   .     S
C24    C30     1.378   .     A
C25    C38     1.411   .     A
C25    Cl89    1.779   .     S
C26    C37     1.411   .     A
C26    Cl90    1.779   .     S
C27    Cl91    1.779   .     S
C27    C37     1.411   .     A
C28    C38     1.411   .     A
C28    Cl92    1.779   .     S
C29    Cl93    1.779   .     S
C29    C40     1.411   .     A
C30    Cl94    1.779   .     S
C30    C39     1.411   .     A
C31    Cl95    1.779   .     S
C31    C39     1.411   .     A
C32    Cl96    1.779   .     S
C32    C40     1.411   .     A
N41    Zn61    2.000   .     S
N42    Zn62    2.000   .     S
N43    Zn63    2.000   .     S
N43    C206    1.367   1_545 S
N44    Zn64    2.000   .     S
N44    C207    1.367   1_545 S
O45    Zn61    2.011   .     S
O46    Zn158   2.011   .     S
O47    Zn157   2.011   .     S
O48    Zn62    2.011   .     S
O49    Zn158   2.011   .     S
O50    Zn61    2.011   .     S
O51    Zn62    2.011   .     S
O52    Zn157   2.011   .     S
O53    Zn255   2.011   .     S
O54    Zn64    2.011   .     S
O55    Zn63    2.011   .     S
O56    Zn256   2.011   .     S
O57    Zn256   2.011   .     S
O58    Zn63    2.011   .     S
O59    Zn64    2.011   .     S
O60    Zn255   2.011   .     S
Zn61   O148    2.011   1_455 S
Zn61   O143    2.011   1_455 S
Zn62   O145    2.011   1_455 S
Zn62   O142    2.011   1_455 S
Zn63   O252    2.011   1_545 S
Zn63   O245    2.011   1_545 S
Zn64   O249    2.011   1_545 S
Zn64   O248    2.011   1_545 S
C65    N66     1.158   .     S
C67    N68     1.158   .     T
C69    N70     1.158   .     T
C71    N72     1.158   .     T
C73    N74     1.158   .     T
C75    N76     1.158   .     T
C77    N78     1.158   .     T
C79    N80     1.158   .     T
C97    O144    1.286   .     A
C97    O141    1.286   .     A
C97    C132    1.443   .     S
C98    C131    1.443   .     S
C98    O142    1.286   .     A
C98    O143    1.286   .     A
C99    O145    1.286   .     A
C99    C130    1.443   .     S
C99    O148    1.286   .     A
C100   O147    1.286   .     A
C100   O146    1.286   .     A
C100   C129    1.443   .     S
C101   O152    1.286   .     A
C101   O149    1.286   .     A
C101   C136    1.443   .     S
C102   O151    1.286   .     A
C102   O150    1.286   .     A
C102   C135    1.443   .     S
C103   O156    1.286   .     A
C103   C134    1.443   .     S
C103   O153    1.286   .     A
C104   O155    1.286   .     A
C104   O154    1.286   .     A
C104   C133    1.443   .     S
C105   N138    1.367   .     A
C105   C876    1.419   1_554 S
C105   C161    1.443   .     S
C106   N137    1.367   .     A
C106   C491    1.419   .     S
C106   C163    1.443   .     S
C107   C165    1.443   .     S
C107   C874    1.419   1_554 S
C107   N138    1.367   .     S
C108   N137    1.367   .     A
C108   C167    1.443   .     S
C108   C489    1.419   .     S
C109   C169    1.443   .     S
C109   N140    1.367   .     A
C109   C880    1.419   1_554 S
C110   C171    1.443   .     S
C110   C495    1.419   .     S
C110   N331    1.367   .     S
C111   C173    1.443   .     S
C111   C878    1.419   1_554 S
C111   N332    1.367   .     S
C112   N139    1.367   .     A
C112   C175    1.443   .     S
C112   C493    1.419   .     S
C113   C123    1.378   .     A
C113   Cl177   1.779   .     S
C113   C130    1.411   .     A
C114   C124    1.378   .     A
C114   Cl178   1.779   .     S
C114   C129    1.411   .     A
C115   Cl179   1.779   .     S
C115   C129    1.411   .     A
C115   C121    1.378   .     A
C116   C130    1.411   .     A
C116   Cl180   1.779   .     S
C116   C122    1.378   .     A
C117   C132    1.411   .     A
C117   C127    1.378   .     A
C117   Cl181   1.779   .     S
C118   C131    1.411   .     A
C118   C128    1.378   .     A
C118   Cl182   1.779   .     S
C119   C125    1.378   .     A
C119   Cl183   1.779   .     S
C119   C131    1.411   .     A
C120   C132    1.411   .     A
C120   Cl184   1.779   .     S
C120   C126    1.378   .     A
C121   C134    1.411   .     A
C121   Cl185   1.779   .     S
C122   C133    1.411   .     A
C122   Cl186   1.779   .     S
C123   Cl187   1.779   .     S
C123   C133    1.411   .     A
C124   C134    1.411   .     A
C124   Cl188   1.779   .     S
C125   Cl189   1.779   .     S
C125   C136    1.411   .     A
C126   Cl190   1.779   .     S
C126   C135    1.411   .     A
C127   Cl191   1.779   .     S
C127   C135    1.411   .     A
C128   Cl192   1.779   .     S
C128   C136    1.411   .     A
N137   Zn157   2.000   .     S
N138   Zn158   2.000   .     S
N139   Zn159   2.000   .     S
N139   C302    1.367   1_545 S
N140   Zn160   2.000   .     S
N140   C303    1.367   1_545 S
O141   Zn157   2.011   .     S
O142   Zn62    2.011   1_655 S
O143   Zn61    2.011   1_655 S
O144   Zn158   2.011   .     S
O145   Zn62    2.011   1_655 S
O146   Zn157   2.011   .     S
O147   Zn158   2.011   .     S
O148   Zn61    2.011   1_655 S
O149   Zn351   2.011   .     S
O150   Zn160   2.011   .     S
O151   Zn159   2.011   .     S
O152   Zn352   2.011   .     S
O153   Zn352   2.011   .     S
O154   Zn159   2.011   .     S
O155   Zn160   2.011   .     S
O156   Zn351   2.011   .     S
Zn159  O348    2.011   1_545 S
Zn159  O341    2.011   1_545 S
Zn160  O345    2.011   1_545 S
Zn160  O344    2.011   1_545 S
C161   N162    1.158   .     S
C163   N164    1.158   .     T
C165   N166    1.158   .     T
C167   N168    1.158   .     T
C169   N170    1.158   .     T
C171   N172    1.158   .     T
C173   N174    1.158   .     T
C175   N176    1.158   .     T
C193   O240    1.286   .     A
C193   O237    1.286   .     A
C193   C228    1.443   .     S
C194   C227    1.443   .     S
C194   O238    1.286   .     A
C194   O239    1.286   .     A
C195   O241    1.286   .     A
C195   C226    1.443   .     S
C195   O244    1.286   .     A
C196   O243    1.286   .     A
C196   O242    1.286   .     A
C196   C225    1.443   .     S
C197   O248    1.286   .     A
C197   O245    1.286   .     A
C197   C232    1.443   .     S
C198   O247    1.286   .     A
C198   O246    1.286   .     A
C198   C231    1.443   .     S
C199   O252    1.286   .     A
C199   C230    1.443   .     S
C199   O249    1.286   .     A
C200   O251    1.286   .     A
C200   O250    1.286   .     A
C200   C229    1.443   .     S
C201   N234    1.367   .     A
C201   C972    1.419   1_554 S
C201   C257    1.443   .     S
C202   N233    1.367   .     A
C202   C587    1.419   .     S
C202   C259    1.443   .     S
C203   C261    1.443   .     S
C203   C970    1.419   1_554 S
C203   N234    1.367   .     S
C204   N233    1.367   .     A
C204   C263    1.443   .     S
C204   C585    1.419   .     S
C205   C265    1.443   .     S
C205   N236    1.367   .     A
C205   C976    1.419   1_554 S
C206   C267    1.443   .     S
C206   C591    1.419   .     S
C206   N43     1.367   1_565 S
C207   C269    1.443   .     S
C207   C974    1.419   1_554 S
C207   N44     1.367   1_565 S
C208   N235    1.367   .     A
C208   C271    1.443   .     S
C208   C589    1.419   .     S
C209   C219    1.378   .     A
C209   Cl273   1.779   .     S
C209   C226    1.411   .     A
C210   C220    1.378   .     A
C210   Cl274   1.779   .     S
C210   C225    1.411   .     A
C211   Cl275   1.779   .     S
C211   C225    1.411   .     A
C211   C217    1.378   .     A
C212   C226    1.411   .     A
C212   Cl276   1.779   .     S
C212   C218    1.378   .     A
C213   C228    1.411   .     A
C213   C223    1.378   .     A
C213   Cl277   1.779   .     S
C214   C227    1.411   .     A
C214   C224    1.378   .     A
C214   Cl278   1.779   .     S
C215   C221    1.378   .     A
C215   Cl279   1.779   .     S
C215   C227    1.411   .     A
C216   C228    1.411   .     A
C216   Cl280   1.779   .     S
C216   C222    1.378   .     A
C217   C230    1.411   .     A
C217   Cl281   1.779   .     S
C218   C229    1.411   .     A
C218   Cl282   1.779   .     S
C219   Cl283   1.779   .     S
C219   C229    1.411   .     A
C220   C230    1.411   .     A
C220   Cl284   1.779   .     S
C221   Cl285   1.779   .     S
C221   C232    1.411   .     A
C222   Cl286   1.779   .     S
C222   C231    1.411   .     A
C223   Cl287   1.779   .     S
C223   C231    1.411   .     A
C224   Cl288   1.779   .     S
C224   C232    1.411   .     A
N233   Zn253   2.000   .     S
N234   Zn254   2.000   .     S
N235   Zn255   2.000   .     S
N236   Zn256   2.000   .     S
O237   Zn253   2.011   .     S
O238   Zn350   2.011   .     S
O239   Zn349   2.011   .     S
O240   Zn254   2.011   .     S
O241   Zn350   2.011   .     S
O242   Zn253   2.011   .     S
O243   Zn254   2.011   .     S
O244   Zn349   2.011   .     S
O245   Zn63    2.011   1_565 S
O246   Zn256   2.011   .     S
O247   Zn255   2.011   .     S
O248   Zn64    2.011   1_565 S
O249   Zn64    2.011   1_565 S
O250   Zn255   2.011   .     S
O251   Zn256   2.011   .     S
O252   Zn63    2.011   1_565 S
Zn253  O340    2.011   1_455 S
Zn253  O335    2.011   1_455 S
Zn254  O337    2.011   1_455 S
Zn254  O334    2.011   1_455 S
C257   N258    1.158   .     S
C259   N260    1.158   .     T
C261   N262    1.158   .     T
C263   N264    1.158   .     T
C265   N266    1.158   .     T
C267   N268    1.158   .     T
C269   N270    1.158   .     T
C271   N272    1.158   .     T
C289   O336    1.286   .     A
C289   O333    1.286   .     A
C289   C324    1.443   .     S
C290   C323    1.443   .     S
C290   O334    1.286   .     A
C290   O335    1.286   .     A
C291   O337    1.286   .     A
C291   C322    1.443   .     S
C291   O340    1.286   .     A
C292   O339    1.286   .     A
C292   O338    1.286   .     A
C292   C321    1.443   .     S
C293   O344    1.286   .     A
C293   O341    1.286   .     A
C293   C328    1.443   .     S
C294   O343    1.286   .     A
C294   O342    1.286   .     A
C294   C327    1.443   .     S
C295   O348    1.286   .     A
C295   C326    1.443   .     S
C295   O345    1.286   .     A
C296   O347    1.286   .     A
C296   O346    1.286   .     A
C296   C325    1.443   .     S
C297   N330    1.367   .     A
C297   C1068   1.419   1_554 S
C297   C353    1.443   .     S
C298   N329    1.367   .     A
C298   C683    1.419   .     S
C298   C355    1.443   .     S
C299   C357    1.443   .     S
C299   C1066   1.419   1_554 S
C299   N330    1.367   .     S
C300   N329    1.367   .     A
C300   C359    1.443   .     S
C300   C681    1.419   .     S
C301   C361    1.443   .     S
C301   N332    1.367   .     A
C301   C1072   1.419   1_554 S
C302   C363    1.443   .     S
C302   C687    1.419   .     S
C302   N139    1.367   1_565 S
C303   C365    1.443   .     S
C303   C1070   1.419   1_554 S
C303   N140    1.367   1_565 S
C304   N331    1.367   .     A
C304   C367    1.443   .     S
C304   C685    1.419   .     S
C305   C315    1.378   .     A
C305   Cl369   1.779   .     S
C305   C322    1.411   .     A
C306   C316    1.378   .     A
C306   Cl370   1.779   .     S
C306   C321    1.411   .     A
C307   Cl371   1.779   .     S
C307   C321    1.411   .     A
C307   C313    1.378   .     A
C308   C322    1.411   .     A
C308   Cl372   1.779   .     S
C308   C314    1.378   .     A
C309   C324    1.411   .     A
C309   C319    1.378   .     A
C309   Cl373   1.779   .     S
C310   C323    1.411   .     A
C310   C320    1.378   .     A
C310   Cl374   1.779   .     S
C311   C317    1.378   .     A
C311   Cl375   1.779   .     S
C311   C323    1.411   .     A
C312   C324    1.411   .     A
C312   Cl376   1.779   .     S
C312   C318    1.378   .     A
C313   C326    1.411   .     A
C313   Cl377   1.779   .     S
C314   C325    1.411   .     A
C314   Cl378   1.779   .     S
C315   Cl379   1.779   .     S
C315   C325    1.411   .     A
C316   C326    1.411   .     A
C316   Cl380   1.779   .     S
C317   Cl381   1.779   .     S
C317   C328    1.411   .     A
C318   Cl382   1.779   .     S
C318   C327    1.411   .     A
C319   Cl383   1.779   .     S
C319   C327    1.411   .     A
C320   Cl384   1.779   .     S
C320   C328    1.411   .     A
N329   Zn349   2.000   .     S
N330   Zn350   2.000   .     S
N331   Zn351   2.000   .     S
N332   Zn352   2.000   .     S
O333   Zn349   2.011   .     S
O334   Zn254   2.011   1_655 S
O335   Zn253   2.011   1_655 S
O336   Zn350   2.011   .     S
O337   Zn254   2.011   1_655 S
O338   Zn349   2.011   .     S
O339   Zn350   2.011   .     S
O340   Zn253   2.011   1_655 S
O341   Zn159   2.011   1_565 S
O342   Zn352   2.011   .     S
O343   Zn351   2.011   .     S
O344   Zn160   2.011   1_565 S
O345   Zn160   2.011   1_565 S
O346   Zn351   2.011   .     S
O347   Zn352   2.011   .     S
O348   Zn159   2.011   1_565 S
C353   N354    1.158   .     S
C355   N356    1.158   .     T
C357   N358    1.158   .     T
C359   N360    1.158   .     T
C361   N362    1.158   .     T
C363   N364    1.158   .     T
C365   N366    1.158   .     T
C367   N368    1.158   .     T
C385   O432    1.286   .     A
C385   O429    1.286   .     A
C385   C420    1.443   .     S
C386   C419    1.443   .     S
C386   O430    1.286   .     A
C386   O431    1.286   .     A
C387   O433    1.286   .     A
C387   C418    1.443   .     S
C387   O436    1.286   .     A
C388   O435    1.286   .     A
C388   O434    1.286   .     A
C388   C417    1.443   .     S
C389   O440    1.286   .     A
C389   O437    1.286   .     A
C389   C424    1.443   .     S
C390   O439    1.286   .     A
C390   O438    1.286   .     A
C390   C423    1.443   .     S
C391   O444    1.286   .     A
C391   C422    1.443   .     S
C391   O441    1.286   .     A
C392   O443    1.286   .     A
C392   O442    1.286   .     A
C392   C421    1.443   .     S
C393   N426    1.367   .     A
C393   C449    1.443   .     S
C394   N425    1.367   .     A
C394   C779    1.419   .     S
C394   C451    1.443   .     S
C395   C453    1.443   .     S
C395   N426    1.367   .     S
C396   N425    1.367   .     A
C396   C455    1.443   .     S
C396   C777    1.419   .     S
C397   C457    1.443   .     S
C397   N428    1.367   .     A
C398   C459    1.443   .     S
C398   C783    1.419   .     S
C398   N619    1.367   .     S
C399   C461    1.443   .     S
C399   N620    1.367   .     S
C400   N427    1.367   .     A
C400   C463    1.443   .     S
C400   C781    1.419   .     S
C401   C411    1.378   .     A
C401   Cl465   1.779   .     S
C401   C418    1.411   .     A
C402   C412    1.378   .     A
C402   Cl466   1.779   .     S
C402   C417    1.411   .     A
C403   Cl467   1.779   .     S
C403   C417    1.411   .     A
C403   C409    1.378   .     A
C404   C418    1.411   .     A
C404   Cl468   1.779   .     S
C404   C410    1.378   .     A
C405   C420    1.411   .     A
C405   C415    1.378   .     A
C405   Cl469   1.779   .     S
C406   C419    1.411   .     A
C406   C416    1.378   .     A
C406   Cl470   1.779   .     S
C407   C413    1.378   .     A
C407   Cl471   1.779   .     S
C407   C419    1.411   .     A
C408   C420    1.411   .     A
C408   Cl472   1.779   .     S
C408   C414    1.378   .     A
C409   C422    1.411   .     A
C409   Cl473   1.779   .     S
C410   C421    1.411   .     A
C410   Cl474   1.779   .     S
C411   Cl475   1.779   .     S
C411   C421    1.411   .     A
C412   C422    1.411   .     A
C412   Cl476   1.779   .     S
C413   Cl477   1.779   .     S
C413   C424    1.411   .     A
C414   Cl478   1.779   .     S
C414   C423    1.411   .     A
C415   Cl479   1.779   .     S
C415   C423    1.411   .     A
C416   Cl480   1.779   .     S
C416   C424    1.411   .     A
N425   Zn445   2.000   .     S
N426   Zn446   2.000   .     S
N427   Zn447   2.000   .     S
N427   C590    1.367   1_545 S
N428   Zn448   2.000   .     S
N428   C591    1.367   1_545 S
O429   Zn445   2.011   .     S
O430   Zn542   2.011   .     S
O431   Zn541   2.011   .     S
O432   Zn446   2.011   .     S
O433   Zn542   2.011   .     S
O434   Zn445   2.011   .     S
O435   Zn446   2.011   .     S
O436   Zn541   2.011   .     S
O437   Zn639   2.011   .     S
O438   Zn448   2.011   .     S
O439   Zn447   2.011   .     S
O440   Zn640   2.011   .     S
O441   Zn640   2.011   .     S
O442   Zn447   2.011   .     S
O443   Zn448   2.011   .     S
O444   Zn639   2.011   .     S
Zn445  O532    2.011   1_455 S
Zn445  O527    2.011   1_455 S
Zn446  O529    2.011   1_455 S
Zn446  O526    2.011   1_455 S
Zn447  O636    2.011   1_545 S
Zn447  O629    2.011   1_545 S
Zn448  O633    2.011   1_545 S
Zn448  O632    2.011   1_545 S
C449   N450    1.158   .     S
C451   N452    1.158   .     T
C453   N454    1.158   .     T
C455   N456    1.158   .     T
C457   N458    1.158   .     T
C459   N460    1.158   .     T
C461   N462    1.158   .     T
C463   N464    1.158   .     T
C481   O528    1.286   .     A
C481   O525    1.286   .     A
C481   C516    1.443   .     S
C482   C515    1.443   .     S
C482   O526    1.286   .     A
C482   O527    1.286   .     A
C483   O529    1.286   .     A
C483   C514    1.443   .     S
C483   O532    1.286   .     A
C484   O531    1.286   .     A
C484   O530    1.286   .     A
C484   C513    1.443   .     S
C485   O536    1.286   .     A
C485   O533    1.286   .     A
C485   C520    1.443   .     S
C486   O535    1.286   .     A
C486   O534    1.286   .     A
C486   C519    1.443   .     S
C487   O540    1.286   .     A
C487   C518    1.443   .     S
C487   O537    1.286   .     A
C488   O539    1.286   .     A
C488   O538    1.286   .     A
C488   C517    1.443   .     S
C489   N522    1.367   .     A
C489   C545    1.443   .     S
C490   N521    1.367   .     A
C490   C875    1.419   .     S
C490   C547    1.443   .     S
C491   C549    1.443   .     S
C491   N522    1.367   .     S
C492   N521    1.367   .     A
C492   C551    1.443   .     S
C492   C873    1.419   .     S
C493   C553    1.443   .     S
C493   N524    1.367   .     A
C494   C555    1.443   .     S
C494   C879    1.419   .     S
C494   N715    1.367   .     S
C495   C557    1.443   .     S
C495   N716    1.367   .     S
C496   N523    1.367   .     A
C496   C559    1.443   .     S
C496   C877    1.419   .     S
C497   C507    1.378   .     A
C497   Cl561   1.779   .     S
C497   C514    1.411   .     A
C498   C508    1.378   .     A
C498   Cl562   1.779   .     S
C498   C513    1.411   .     A
C499   Cl563   1.779   .     S
C499   C513    1.411   .     A
C499   C505    1.378   .     A
C500   C514    1.411   .     A
C500   Cl564   1.779   .     S
C500   C506    1.378   .     A
C501   C516    1.411   .     A
C501   C511    1.378   .     A
C501   Cl565   1.779   .     S
C502   C515    1.411   .     A
C502   C512    1.378   .     A
C502   Cl566   1.779   .     S
C503   C509    1.378   .     A
C503   Cl567   1.779   .     S
C503   C515    1.411   .     A
C504   C516    1.411   .     A
C504   Cl568   1.779   .     S
C504   C510    1.378   .     A
C505   C518    1.411   .     A
C505   Cl569   1.779   .     S
C506   C517    1.411   .     A
C506   Cl570   1.779   .     S
C507   Cl571   1.779   .     S
C507   C517    1.411   .     A
C508   C518    1.411   .     A
C508   Cl572   1.779   .     S
C509   Cl573   1.779   .     S
C509   C520    1.411   .     A
C510   Cl574   1.779   .     S
C510   C519    1.411   .     A
C511   Cl575   1.779   .     S
C511   C519    1.411   .     A
C512   Cl576   1.779   .     S
C512   C520    1.411   .     A
N521   Zn541   2.000   .     S
N522   Zn542   2.000   .     S
N523   Zn543   2.000   .     S
N523   C686    1.367   1_545 S
N524   Zn544   2.000   .     S
N524   C687    1.367   1_545 S
O525   Zn541   2.011   .     S
O526   Zn446   2.011   1_655 S
O527   Zn445   2.011   1_655 S
O528   Zn542   2.011   .     S
O529   Zn446   2.011   1_655 S
O530   Zn541   2.011   .     S
O531   Zn542   2.011   .     S
O532   Zn445   2.011   1_655 S
O533   Zn735   2.011   .     S
O534   Zn544   2.011   .     S
O535   Zn543   2.011   .     S
O536   Zn736   2.011   .     S
O537   Zn736   2.011   .     S
O538   Zn543   2.011   .     S
O539   Zn544   2.011   .     S
O540   Zn735   2.011   .     S
Zn543  O732    2.011   1_545 S
Zn543  O725    2.011   1_545 S
Zn544  O729    2.011   1_545 S
Zn544  O728    2.011   1_545 S
C545   N546    1.158   .     S
C547   N548    1.158   .     T
C549   N550    1.158   .     T
C551   N552    1.158   .     T
C553   N554    1.158   .     T
C555   N556    1.158   .     T
C557   N558    1.158   .     T
C559   N560    1.158   .     T
C577   O624    1.286   .     A
C577   O621    1.286   .     A
C577   C612    1.443   .     S
C578   C611    1.443   .     S
C578   O622    1.286   .     A
C578   O623    1.286   .     A
C579   O625    1.286   .     A
C579   C610    1.443   .     S
C579   O628    1.286   .     A
C580   O627    1.286   .     A
C580   O626    1.286   .     A
C580   C609    1.443   .     S
C581   O632    1.286   .     A
C581   O629    1.286   .     A
C581   C616    1.443   .     S
C582   O631    1.286   .     A
C582   O630    1.286   .     A
C582   C615    1.443   .     S
C583   O636    1.286   .     A
C583   C614    1.443   .     S
C583   O633    1.286   .     A
C584   O635    1.286   .     A
C584   O634    1.286   .     A
C584   C613    1.443   .     S
C585   N618    1.367   .     A
C585   C641    1.443   .     S
C586   N617    1.367   .     A
C586   C971    1.419   .     S
C586   C643    1.443   .     S
C587   C645    1.443   .     S
C587   N618    1.367   .     S
C588   N617    1.367   .     A
C588   C647    1.443   .     S
C588   C969    1.419   .     S
C589   C649    1.443   .     S
C589   N620    1.367   .     A
C590   C651    1.443   .     S
C590   C975    1.419   .     S
C590   N427    1.367   1_565 S
C591   C653    1.443   .     S
C591   N428    1.367   1_565 S
C592   N619    1.367   .     A
C592   C655    1.443   .     S
C592   C973    1.419   .     S
C593   C603    1.378   .     A
C593   Cl657   1.779   .     S
C593   C610    1.411   .     A
C594   C604    1.378   .     A
C594   Cl658   1.779   .     S
C594   C609    1.411   .     A
C595   Cl659   1.779   .     S
C595   C609    1.411   .     A
C595   C601    1.378   .     A
C596   C610    1.411   .     A
C596   Cl660   1.779   .     S
C596   C602    1.378   .     A
C597   C612    1.411   .     A
C597   C607    1.378   .     A
C597   Cl661   1.779   .     S
C598   C611    1.411   .     A
C598   C608    1.378   .     A
C598   Cl662   1.779   .     S
C599   C605    1.378   .     A
C599   Cl663   1.779   .     S
C599   C611    1.411   .     A
C600   C612    1.411   .     A
C600   Cl664   1.779   .     S
C600   C606    1.378   .     A
C601   C614    1.411   .     A
C601   Cl665   1.779   .     S
C602   C613    1.411   .     A
C602   Cl666   1.779   .     S
C603   Cl667   1.779   .     S
C603   C613    1.411   .     A
C604   C614    1.411   .     A
C604   Cl668   1.779   .     S
C605   Cl669   1.779   .     S
C605   C616    1.411   .     A
C606   Cl670   1.779   .     S
C606   C615    1.411   .     A
C607   Cl671   1.779   .     S
C607   C615    1.411   .     A
C608   Cl672   1.779   .     S
C608   C616    1.411   .     A
N617   Zn637   2.000   .     S
N618   Zn638   2.000   .     S
N619   Zn639   2.000   .     S
N620   Zn640   2.000   .     S
O621   Zn637   2.011   .     S
O622   Zn734   2.011   .     S
O623   Zn733   2.011   .     S
O624   Zn638   2.011   .     S
O625   Zn734   2.011   .     S
O626   Zn637   2.011   .     S
O627   Zn638   2.011   .     S
O628   Zn733   2.011   .     S
O629   Zn447   2.011   1_565 S
O630   Zn640   2.011   .     S
O631   Zn639   2.011   .     S
O632   Zn448   2.011   1_565 S
O633   Zn448   2.011   1_565 S
O634   Zn639   2.011   .     S
O635   Zn640   2.011   .     S
O636   Zn447   2.011   1_565 S
Zn637  O724    2.011   1_455 S
Zn637  O719    2.011   1_455 S
Zn638  O721    2.011   1_455 S
Zn638  O718    2.011   1_455 S
C641   N642    1.158   .     S
C643   N644    1.158   .     T
C645   N646    1.158   .     T
C647   N648    1.158   .     T
C649   N650    1.158   .     T
C651   N652    1.158   .     T
C653   N654    1.158   .     T
C655   N656    1.158   .     T
C673   O720    1.286   .     A
C673   O717    1.286   .     A
C673   C708    1.443   .     S
C674   C707    1.443   .     S
C674   O718    1.286   .     A
C674   O719    1.286   .     A
C675   O721    1.286   .     A
C675   C706    1.443   .     S
C675   O724    1.286   .     A
C676   O723    1.286   .     A
C676   O722    1.286   .     A
C676   C705    1.443   .     S
C677   O728    1.286   .     A
C677   O725    1.286   .     A
C677   C712    1.443   .     S
C678   O727    1.286   .     A
C678   O726    1.286   .     A
C678   C711    1.443   .     S
C679   O732    1.286   .     A
C679   C710    1.443   .     S
C679   O729    1.286   .     A
C680   O731    1.286   .     A
C680   O730    1.286   .     A
C680   C709    1.443   .     S
C681   N714    1.367   .     A
C681   C737    1.443   .     S
C682   N713    1.367   .     A
C682   C1067   1.419   .     S
C682   C739    1.443   .     S
C683   C741    1.443   .     S
C683   N714    1.367   .     S
C684   N713    1.367   .     A
C684   C743    1.443   .     S
C684   C1065   1.419   .     S
C685   C745    1.443   .     S
C685   N716    1.367   .     A
C686   C747    1.443   .     S
C686   C1071   1.419   .     S
C686   N523    1.367   1_565 S
C687   C749    1.443   .     S
C687   N524    1.367   1_565 S
C688   N715    1.367   .     A
C688   C751    1.443   .     S
C688   C1069   1.419   .     S
C689   C699    1.378   .     A
C689   Cl753   1.779   .     S
C689   C706    1.411   .     A
C690   C700    1.378   .     A
C690   Cl754   1.779   .     S
C690   C705    1.411   .     A
C691   Cl755   1.779   .     S
C691   C705    1.411   .     A
C691   C697    1.378   .     A
C692   C706    1.411   .     A
C692   Cl756   1.779   .     S
C692   C698    1.378   .     A
C693   C708    1.411   .     A
C693   C703    1.378   .     A
C693   Cl757   1.779   .     S
C694   C707    1.411   .     A
C694   C704    1.378   .     A
C694   Cl758   1.779   .     S
C695   C701    1.378   .     A
C695   Cl759   1.779   .     S
C695   C707    1.411   .     A
C696   C708    1.411   .     A
C696   Cl760   1.779   .     S
C696   C702    1.378   .     A
C697   C710    1.411   .     A
C697   Cl761   1.779   .     S
C698   C709    1.411   .     A
C698   Cl762   1.779   .     S
C699   Cl763   1.779   .     S
C699   C709    1.411   .     A
C700   C710    1.411   .     A
C700   Cl764   1.779   .     S
C701   Cl765   1.779   .     S
C701   C712    1.411   .     A
C702   Cl766   1.779   .     S
C702   C711    1.411   .     A
C703   Cl767   1.779   .     S
C703   C711    1.411   .     A
C704   Cl768   1.779   .     S
C704   C712    1.411   .     A
N713   Zn733   2.000   .     S
N714   Zn734   2.000   .     S
N715   Zn735   2.000   .     S
N716   Zn736   2.000   .     S
O717   Zn733   2.011   .     S
O718   Zn638   2.011   1_655 S
O719   Zn637   2.011   1_655 S
O720   Zn734   2.011   .     S
O721   Zn638   2.011   1_655 S
O722   Zn733   2.011   .     S
O723   Zn734   2.011   .     S
O724   Zn637   2.011   1_655 S
O725   Zn543   2.011   1_565 S
O726   Zn736   2.011   .     S
O727   Zn735   2.011   .     S
O728   Zn544   2.011   1_565 S
O729   Zn544   2.011   1_565 S
O730   Zn735   2.011   .     S
O731   Zn736   2.011   .     S
O732   Zn543   2.011   1_565 S
C737   N738    1.158   .     S
C739   N740    1.158   .     T
C741   N742    1.158   .     T
C743   N744    1.158   .     T
C745   N746    1.158   .     T
C747   N748    1.158   .     T
C749   N750    1.158   .     T
C751   N752    1.158   .     T
C769   O816    1.286   .     A
C769   O813    1.286   .     A
C769   C804    1.443   .     S
C770   C803    1.443   .     S
C770   O814    1.286   .     A
C770   O815    1.286   .     A
C771   O817    1.286   .     A
C771   C802    1.443   .     S
C771   O820    1.286   .     A
C772   O819    1.286   .     A
C772   O818    1.286   .     A
C772   C801    1.443   .     S
C773   O824    1.286   .     A
C773   O821    1.286   .     A
C773   C808    1.443   .     S
C774   O823    1.286   .     A
C774   O822    1.286   .     A
C774   C807    1.443   .     S
C775   O828    1.286   .     A
C775   C806    1.443   .     S
C775   O825    1.286   .     A
C776   O827    1.286   .     A
C776   O826    1.286   .     A
C776   C805    1.443   .     S
C777   N810    1.367   .     A
C777   C833    1.443   .     S
C778   N809    1.367   .     A
C778   C11     1.419   1_556 S
C778   C835    1.443   .     S
C779   C837    1.443   .     S
C779   N810    1.367   .     S
C780   N809    1.367   .     A
C780   C839    1.443   .     S
C780   C9      1.419   1_556 S
C781   C841    1.443   .     S
C781   N812    1.367   .     A
C782   C843    1.443   .     S
C782   C15     1.419   1_556 S
C782   N1003   1.367   .     S
C783   C845    1.443   .     S
C783   N1004   1.367   .     S
C784   N811    1.367   .     A
C784   C847    1.443   .     S
C784   C13     1.419   1_556 S
C785   C795    1.378   .     A
C785   Cl849   1.779   .     S
C785   C802    1.411   .     A
C786   C796    1.378   .     A
C786   Cl850   1.779   .     S
C786   C801    1.411   .     A
C787   Cl851   1.779   .     S
C787   C801    1.411   .     A
C787   C793    1.378   .     A
C788   C802    1.411   .     A
C788   Cl852   1.779   .     S
C788   C794    1.378   .     A
C789   C804    1.411   .     A
C789   C799    1.378   .     A
C789   Cl853   1.779   .     S
C790   C803    1.411   .     A
C790   C800    1.378   .     A
C790   Cl854   1.779   .     S
C791   C797    1.378   .     A
C791   Cl855   1.779   .     S
C791   C803    1.411   .     A
C792   C804    1.411   .     A
C792   Cl856   1.779   .     S
C792   C798    1.378   .     A
C793   C806    1.411   .     A
C793   Cl857   1.779   .     S
C794   C805    1.411   .     A
C794   Cl858   1.779   .     S
C795   Cl859   1.779   .     S
C795   C805    1.411   .     A
C796   C806    1.411   .     A
C796   Cl860   1.779   .     S
C797   Cl861   1.779   .     S
C797   C808    1.411   .     A
C798   Cl862   1.779   .     S
C798   C807    1.411   .     A
C799   Cl863   1.779   .     S
C799   C807    1.411   .     A
C800   Cl864   1.779   .     S
C800   C808    1.411   .     A
N809   Zn829   2.000   .     S
N810   Zn830   2.000   .     S
N811   Zn831   2.000   .     S
N811   C974    1.367   1_545 S
N812   Zn832   2.000   .     S
N812   C975    1.367   1_545 S
O813   Zn829   2.011   .     S
O814   Zn926   2.011   .     S
O815   Zn925   2.011   .     S
O816   Zn830   2.011   .     S
O817   Zn926   2.011   .     S
O818   Zn829   2.011   .     S
O819   Zn830   2.011   .     S
O820   Zn925   2.011   .     S
O821   Zn1023  2.011   .     S
O822   Zn832   2.011   .     S
O823   Zn831   2.011   .     S
O824   Zn1024  2.011   .     S
O825   Zn1024  2.011   .     S
O826   Zn831   2.011   .     S
O827   Zn832   2.011   .     S
O828   Zn1023  2.011   .     S
Zn829  O916    2.011   1_455 S
Zn829  O911    2.011   1_455 S
Zn830  O913    2.011   1_455 S
Zn830  O910    2.011   1_455 S
Zn831  O1020   2.011   1_545 S
Zn831  O1013   2.011   1_545 S
Zn832  O1017   2.011   1_545 S
Zn832  O1016   2.011   1_545 S
C833   N834    1.158   .     S
C835   N836    1.158   .     T
C837   N838    1.158   .     T
C839   N840    1.158   .     T
C841   N842    1.158   .     T
C843   N844    1.158   .     T
C845   N846    1.158   .     T
C847   N848    1.158   .     T
C865   O912    1.286   .     A
C865   O909    1.286   .     A
C865   C900    1.443   .     S
C866   C899    1.443   .     S
C866   O910    1.286   .     A
C866   O911    1.286   .     A
C867   O913    1.286   .     A
C867   C898    1.443   .     S
C867   O916    1.286   .     A
C868   O915    1.286   .     A
C868   O914    1.286   .     A
C868   C897    1.443   .     S
C869   O920    1.286   .     A
C869   O917    1.286   .     A
C869   C904    1.443   .     S
C870   O919    1.286   .     A
C870   O918    1.286   .     A
C870   C903    1.443   .     S
C871   O924    1.286   .     A
C871   C902    1.443   .     S
C871   O921    1.286   .     A
C872   O923    1.286   .     A
C872   O922    1.286   .     A
C872   C901    1.443   .     S
C873   N906    1.367   .     A
C873   C929    1.443   .     S
C874   N905    1.367   .     A
C874   C107    1.419   1_556 S
C874   C931    1.443   .     S
C875   C933    1.443   .     S
C875   N906    1.367   .     S
C876   N905    1.367   .     A
C876   C935    1.443   .     S
C876   C105    1.419   1_556 S
C877   C937    1.443   .     S
C877   N908    1.367   .     A
C878   C939    1.443   .     S
C878   C111    1.419   1_556 S
C878   N1099   1.367   .     S
C879   C941    1.443   .     S
C879   N1100   1.367   .     S
C880   N907    1.367   .     A
C880   C943    1.443   .     S
C880   C109    1.419   1_556 S
C881   C891    1.378   .     A
C881   Cl945   1.779   .     S
C881   C898    1.411   .     A
C882   C892    1.378   .     A
C882   Cl946   1.779   .     S
C882   C897    1.411   .     A
C883   Cl947   1.779   .     S
C883   C897    1.411   .     A
C883   C889    1.378   .     A
C884   C898    1.411   .     A
C884   Cl948   1.779   .     S
C884   C890    1.378   .     A
C885   C900    1.411   .     A
C885   C895    1.378   .     A
C885   Cl949   1.779   .     S
C886   C899    1.411   .     A
C886   C896    1.378   .     A
C886   Cl950   1.779   .     S
C887   C893    1.378   .     A
C887   Cl951   1.779   .     S
C887   C899    1.411   .     A
C888   C900    1.411   .     A
C888   Cl952   1.779   .     S
C888   C894    1.378   .     A
C889   C902    1.411   .     A
C889   Cl953   1.779   .     S
C890   C901    1.411   .     A
C890   Cl954   1.779   .     S
C891   Cl955   1.779   .     S
C891   C901    1.411   .     A
C892   C902    1.411   .     A
C892   Cl956   1.779   .     S
C893   Cl957   1.779   .     S
C893   C904    1.411   .     A
C894   Cl958   1.779   .     S
C894   C903    1.411   .     A
C895   Cl959   1.779   .     S
C895   C903    1.411   .     A
C896   Cl960   1.779   .     S
C896   C904    1.411   .     A
N905   Zn925   2.000   .     S
N906   Zn926   2.000   .     S
N907   Zn927   2.000   .     S
N907   C1070   1.367   1_545 S
N908   Zn928   2.000   .     S
N908   C1071   1.367   1_545 S
O909   Zn925   2.011   .     S
O910   Zn830   2.011   1_655 S
O911   Zn829   2.011   1_655 S
O912   Zn926   2.011   .     S
O913   Zn830   2.011   1_655 S
O914   Zn925   2.011   .     S
O915   Zn926   2.011   .     S
O916   Zn829   2.011   1_655 S
O917   Zn1119  2.011   .     S
O918   Zn928   2.011   .     S
O919   Zn927   2.011   .     S
O920   Zn1120  2.011   .     S
O921   Zn1120  2.011   .     S
O922   Zn927   2.011   .     S
O923   Zn928   2.011   .     S
O924   Zn1119  2.011   .     S
Zn927  O1116   2.011   1_545 S
Zn927  O1109   2.011   1_545 S
Zn928  O1113   2.011   1_545 S
Zn928  O1112   2.011   1_545 S
C929   N930    1.158   .     S
C931   N932    1.158   .     T
C933   N934    1.158   .     T
C935   N936    1.158   .     T
C937   N938    1.158   .     T
C939   N940    1.158   .     T
C941   N942    1.158   .     T
C943   N944    1.158   .     T
C961   O1008   1.286   .     A
C961   O1005   1.286   .     A
C961   C996    1.443   .     S
C962   C995    1.443   .     S
C962   O1006   1.286   .     A
C962   O1007   1.286   .     A
C963   O1009   1.286   .     A
C963   C994    1.443   .     S
C963   O1012   1.286   .     A
C964   O1011   1.286   .     A
C964   O1010   1.286   .     A
C964   C993    1.443   .     S
C965   O1016   1.286   .     A
C965   O1013   1.286   .     A
C965   C1000   1.443   .     S
C966   O1015   1.286   .     A
C966   O1014   1.286   .     A
C966   C999    1.443   .     S
C967   O1020   1.286   .     A
C967   C998    1.443   .     S
C967   O1017   1.286   .     A
C968   O1019   1.286   .     A
C968   O1018   1.286   .     A
C968   C997    1.443   .     S
C969   N1002   1.367   .     A
C969   C1025   1.443   .     S
C970   N1001   1.367   .     A
C970   C203    1.419   1_556 S
C970   C1027   1.443   .     S
C971   C1029   1.443   .     S
C971   N1002   1.367   .     S
C972   N1001   1.367   .     A
C972   C1031   1.443   .     S
C972   C201    1.419   1_556 S
C973   C1033   1.443   .     S
C973   N1004   1.367   .     A
C974   C1035   1.443   .     S
C974   C207    1.419   1_556 S
C974   N811    1.367   1_565 S
C975   C1037   1.443   .     S
C975   N812    1.367   1_565 S
C976   N1003   1.367   .     A
C976   C1039   1.443   .     S
C976   C205    1.419   1_556 S
C977   C987    1.378   .     A
C977   Cl1041  1.779   .     S
C977   C994    1.411   .     A
C978   C988    1.378   .     A
C978   Cl1042  1.779   .     S
C978   C993    1.411   .     A
C979   Cl1043  1.779   .     S
C979   C993    1.411   .     A
C979   C985    1.378   .     A
C980   C994    1.411   .     A
C980   Cl1044  1.779   .     S
C980   C986    1.378   .     A
C981   C996    1.411   .     A
C981   C991    1.378   .     A
C981   Cl1045  1.779   .     S
C982   C995    1.411   .     A
C982   C992    1.378   .     A
C982   Cl1046  1.779   .     S
C983   C989    1.378   .     A
C983   Cl1047  1.779   .     S
C983   C995    1.411   .     A
C984   C996    1.411   .     A
C984   Cl1048  1.779   .     S
C984   C990    1.378   .     A
C985   C998    1.411   .     A
C985   Cl1049  1.779   .     S
C986   C997    1.411   .     A
C986   Cl1050  1.779   .     S
C987   Cl1051  1.779   .     S
C987   C997    1.411   .     A
C988   C998    1.411   .     A
C988   Cl1052  1.779   .     S
C989   Cl1053  1.779   .     S
C989   C1000   1.411   .     A
C990   Cl1054  1.779   .     S
C990   C999    1.411   .     A
C991   Cl1055  1.779   .     S
C991   C999    1.411   .     A
C992   Cl1056  1.779   .     S
C992   C1000   1.411   .     A
N1001  Zn1021  2.000   .     S
N1002  Zn1022  2.000   .     S
N1003  Zn1023  2.000   .     S
N1004  Zn1024  2.000   .     S
O1005  Zn1021  2.011   .     S
O1006  Zn1118  2.011   .     S
O1007  Zn1117  2.011   .     S
O1008  Zn1022  2.011   .     S
O1009  Zn1118  2.011   .     S
O1010  Zn1021  2.011   .     S
O1011  Zn1022  2.011   .     S
O1012  Zn1117  2.011   .     S
O1013  Zn831   2.011   1_565 S
O1014  Zn1024  2.011   .     S
O1015  Zn1023  2.011   .     S
O1016  Zn832   2.011   1_565 S
O1017  Zn832   2.011   1_565 S
O1018  Zn1023  2.011   .     S
O1019  Zn1024  2.011   .     S
O1020  Zn831   2.011   1_565 S
Zn1021 O1108   2.011   1_455 S
Zn1021 O1103   2.011   1_455 S
Zn1022 O1105   2.011   1_455 S
Zn1022 O1102   2.011   1_455 S
C1025  N1026   1.158   .     S
C1027  N1028   1.158   .     T
C1029  N1030   1.158   .     T
C1031  N1032   1.158   .     T
C1033  N1034   1.158   .     T
C1035  N1036   1.158   .     T
C1037  N1038   1.158   .     T
C1039  N1040   1.158   .     T
C1057  O1104   1.286   .     A
C1057  O1101   1.286   .     A
C1057  C1092   1.443   .     S
C1058  C1091   1.443   .     S
C1058  O1102   1.286   .     A
C1058  O1103   1.286   .     A
C1059  O1105   1.286   .     A
C1059  C1090   1.443   .     S
C1059  O1108   1.286   .     A
C1060  O1107   1.286   .     A
C1060  O1106   1.286   .     A
C1060  C1089   1.443   .     S
C1061  O1112   1.286   .     A
C1061  O1109   1.286   .     A
C1061  C1096   1.443   .     S
C1062  O1111   1.286   .     A
C1062  O1110   1.286   .     A
C1062  C1095   1.443   .     S
C1063  O1116   1.286   .     A
C1063  C1094   1.443   .     S
C1063  O1113   1.286   .     A
C1064  O1115   1.286   .     A
C1064  O1114   1.286   .     A
C1064  C1093   1.443   .     S
C1065  N1098   1.367   .     A
C1065  C1121   1.443   .     S
C1066  N1097   1.367   .     A
C1066  C299    1.419   1_556 S
C1066  C1123   1.443   .     S
C1067  C1125   1.443   .     S
C1067  N1098   1.367   .     S
C1068  N1097   1.367   .     A
C1068  C1127   1.443   .     S
C1068  C297    1.419   1_556 S
C1069  C1129   1.443   .     S
C1069  N1100   1.367   .     A
C1070  C1131   1.443   .     S
C1070  C303    1.419   1_556 S
C1070  N907    1.367   1_565 S
C1071  C1133   1.443   .     S
C1071  N908    1.367   1_565 S
C1072  N1099   1.367   .     A
C1072  C1135   1.443   .     S
C1072  C301    1.419   1_556 S
C1073  C1083   1.378   .     A
C1073  Cl1137  1.779   .     S
C1073  C1090   1.411   .     A
C1074  C1084   1.378   .     A
C1074  Cl1138  1.779   .     S
C1074  C1089   1.411   .     A
C1075  Cl1139  1.779   .     S
C1075  C1089   1.411   .     A
C1075  C1081   1.378   .     A
C1076  C1090   1.411   .     A
C1076  Cl1140  1.779   .     S
C1076  C1082   1.378   .     A
C1077  C1092   1.411   .     A
C1077  C1087   1.378   .     A
C1077  Cl1141  1.779   .     S
C1078  C1091   1.411   .     A
C1078  C1088   1.378   .     A
C1078  Cl1142  1.779   .     S
C1079  C1085   1.378   .     A
C1079  Cl1143  1.779   .     S
C1079  C1091   1.411   .     A
C1080  C1092   1.411   .     A
C1080  Cl1144  1.779   .     S
C1080  C1086   1.378   .     A
C1081  C1094   1.411   .     A
C1081  Cl1145  1.779   .     S
C1082  C1093   1.411   .     A
C1082  Cl1146  1.779   .     S
C1083  Cl1147  1.779   .     S
C1083  C1093   1.411   .     A
C1084  C1094   1.411   .     A
C1084  Cl1148  1.779   .     S
C1085  Cl1149  1.779   .     S
C1085  C1096   1.411   .     A
C1086  Cl1150  1.779   .     S
C1086  C1095   1.411   .     A
C1087  Cl1151  1.779   .     S
C1087  C1095   1.411   .     A
C1088  Cl1152  1.779   .     S
C1088  C1096   1.411   .     A
N1097  Zn1117  2.000   .     S
N1098  Zn1118  2.000   .     S
N1099  Zn1119  2.000   .     S
N1100  Zn1120  2.000   .     S
O1101  Zn1117  2.011   .     S
O1102  Zn1022  2.011   1_655 S
O1103  Zn1021  2.011   1_655 S
O1104  Zn1118  2.011   .     S
O1105  Zn1022  2.011   1_655 S
O1106  Zn1117  2.011   .     S
O1107  Zn1118  2.011   .     S
O1108  Zn1021  2.011   1_655 S
O1109  Zn927   2.011   1_565 S
O1110  Zn1120  2.011   .     S
O1111  Zn1119  2.011   .     S
O1112  Zn928   2.011   1_565 S
O1113  Zn928   2.011   1_565 S
O1114  Zn1119  2.011   .     S
O1115  Zn1120  2.011   .     S
O1116  Zn927   2.011   1_565 S
C1121  N1122   1.158   .     S
C1123  N1124   1.158   .     T
C1125  N1126   1.158   .     T
C1127  N1128   1.158   .     T
C1129  N1130   1.158   .     T
C1131  N1132   1.158   .     T
C1133  N1134   1.158   .     T
C1135  N1136   1.158   .     T
