data_str_m3_o1_o10_pcu_sym.6
_audit_creation_date              2020-01-03
_audit_creation_method            'Materials Studio'
_symmetry_space_group_name_H-M    'P1'
_symmetry_Int_Tables_number       1
_symmetry_cell_setting            triclinic
loop_
_symmetry_equiv_pos_as_xyz
  x,y,z
_cell_length_a                    25.6229
_cell_length_b                    32.3333
_cell_length_c                    29.9330
_cell_angle_alpha                 90.4081
_cell_angle_beta                  97.8657
_cell_angle_gamma                 92.9019
loop_
_atom_site_label
_atom_site_type_symbol
_atom_site_fract_x
_atom_site_fract_y
_atom_site_fract_z
_atom_site_U_iso_or_equiv
_atom_site_adp_type
_atom_site_occupancy
C1     C     0.17134   0.08701   0.16703   0.00000  Uiso   1.00
C2     C     0.17632   0.02131   0.20833   0.00000  Uiso   1.00
C3     C     0.15720   0.29081   0.16602   0.00000  Uiso   1.00
C4     C     0.17613   0.04252   0.16732   0.00000  Uiso   1.00
C5     C     0.20107   0.19260   0.02822   0.00000  Uiso   1.00
C6     C     0.13227   0.14073   0.30512   0.00000  Uiso   1.00
C7     C     0.20092   0.19262   0.31383   0.00000  Uiso   1.00
C8     C     0.13241   0.14071   0.01951   0.00000  Uiso   1.00
C9     C     0.18711   0.03881   0.08533   0.00000  Uiso   1.00
C10    C     0.14623   0.29452   0.24801   0.00000  Uiso   1.00
C11    C     0.13764   0.29236   0.08162   0.00000  Uiso   1.00
C12    C     0.16200   0.24632   0.16630   0.00000  Uiso   1.00
C13    C     0.19569   0.04097   0.25172   0.00000  Uiso   1.00
C14    C     0.06724   0.16412   0.15538   0.00000  Uiso   1.00
C15    C     0.26609   0.16921   0.17796   0.00000  Uiso   1.00
C16    C     0.01252   0.15550   0.15296   0.00000  Uiso   1.00
C17    C     0.32082   0.17784   0.18037   0.00000  Uiso   1.00
C18    C     0.17177   0.02042   0.12605   0.00000  Uiso   1.00
C19    C     0.16157   0.31292   0.20728   0.00000  Uiso   1.00
C20    C     0.15701   0.31203   0.12500   0.00000  Uiso   1.00
I21    I     0.31707   0.09489   0.12914   0.00000  Uiso   1.00
I22    I     0.01626   0.23845   0.20420   0.00000  Uiso   1.00
I23    I     0.25603   0.23365   0.06953   0.00000  Uiso   1.00
I24    I     0.07730   0.09969   0.26380   0.00000  Uiso   1.00
I25    I     0.25481   0.23424   0.28677   0.00000  Uiso   1.00
I26    I     0.07852   0.09909   0.04656   0.00000  Uiso   1.00
N27    N     0.16665   0.16666   0.28573   0.00000  Uiso   1.00
N28    N     0.16668   0.16668   0.04760   0.00000  Uiso   1.00
N29    N     0.19977   0.05316   0.05292   0.00000  Uiso   1.00
N30    N     0.13356   0.28018   0.28042   0.00000  Uiso   1.00
N31    N     0.12188   0.27679   0.04715   0.00000  Uiso   1.00
N32    N     0.21145   0.05654   0.28618   0.00000  Uiso   1.00
O33    O     0.16666   0.10558   0.20487   0.00000  Uiso   1.00
O34    O     0.16667   0.22775   0.12846   0.00000  Uiso   1.00
O35    O     0.16666   0.10559   0.12843   0.00000  Uiso   1.00
O36    O     0.16667   0.22774   0.20490   0.00000  Uiso   1.00
O37    O     0.09058   0.16666   0.19595   0.00000  Uiso   1.00
O38    O     0.24275   0.16667   0.13739   0.00000  Uiso   1.00
O39    O     0.09058   0.16667   0.11950   0.00000  Uiso   1.00
O40    O     0.24275   0.16666   0.21383   0.00000  Uiso   1.00
Zn41   Zn    0.16667   0.16666   0.21771   0.00000  Uiso   1.00
Zn42   Zn    0.16667   0.16667   0.11563   0.00000  Uiso   1.00
C43    C     0.50467   0.08701   0.16703   0.00000  Uiso   1.00
C44    C     0.50966   0.02131   0.20833   0.00000  Uiso   1.00
C45    C     0.49053   0.29081   0.16602   0.00000  Uiso   1.00
C46    C     0.50947   0.04252   0.16732   0.00000  Uiso   1.00
C47    C     0.53440   0.19260   0.02822   0.00000  Uiso   1.00
C48    C     0.46560   0.14073   0.30512   0.00000  Uiso   1.00
C49    C     0.53425   0.19262   0.31383   0.00000  Uiso   1.00
C50    C     0.46575   0.14071   0.01951   0.00000  Uiso   1.00
C51    C     0.52044   0.03881   0.08533   0.00000  Uiso   1.00
C52    C     0.47956   0.29452   0.24801   0.00000  Uiso   1.00
C53    C     0.47098   0.29236   0.08162   0.00000  Uiso   1.00
C54    C     0.49533   0.24632   0.16630   0.00000  Uiso   1.00
C55    C     0.52902   0.04097   0.25172   0.00000  Uiso   1.00
C56    C     0.40057   0.16412   0.15538   0.00000  Uiso   1.00
C57    C     0.59943   0.16921   0.17796   0.00000  Uiso   1.00
C58    C     0.34585   0.15550   0.15296   0.00000  Uiso   1.00
C59    C     0.65415   0.17784   0.18037   0.00000  Uiso   1.00
C60    C     0.50510   0.02042   0.12605   0.00000  Uiso   1.00
C61    C     0.49490   0.31292   0.20728   0.00000  Uiso   1.00
C62    C     0.49034   0.31203   0.12500   0.00000  Uiso   1.00
I63    I     0.65040   0.09489   0.12914   0.00000  Uiso   1.00
I64    I     0.34960   0.23845   0.20420   0.00000  Uiso   1.00
I65    I     0.58937   0.23365   0.06953   0.00000  Uiso   1.00
I66    I     0.41063   0.09969   0.26380   0.00000  Uiso   1.00
I67    I     0.58814   0.23424   0.28677   0.00000  Uiso   1.00
I68    I     0.41186   0.09909   0.04656   0.00000  Uiso   1.00
N69    N     0.49999   0.16666   0.28573   0.00000  Uiso   1.00
N70    N     0.50001   0.16668   0.04760   0.00000  Uiso   1.00
N71    N     0.53310   0.05316   0.05292   0.00000  Uiso   1.00
N72    N     0.46690   0.28018   0.28042   0.00000  Uiso   1.00
N73    N     0.45522   0.27679   0.04715   0.00000  Uiso   1.00
N74    N     0.54478   0.05654   0.28618   0.00000  Uiso   1.00
O75    O     0.50000   0.10558   0.20487   0.00000  Uiso   1.00
O76    O     0.50000   0.22775   0.12846   0.00000  Uiso   1.00
O77    O     0.50000   0.10559   0.12843   0.00000  Uiso   1.00
O78    O     0.50000   0.22774   0.20490   0.00000  Uiso   1.00
O79    O     0.42392   0.16666   0.19595   0.00000  Uiso   1.00
O80    O     0.57608   0.16667   0.13739   0.00000  Uiso   1.00
O81    O     0.42392   0.16667   0.11950   0.00000  Uiso   1.00
O82    O     0.57608   0.16666   0.21383   0.00000  Uiso   1.00
Zn83   Zn    0.50000   0.16666   0.21771   0.00000  Uiso   1.00
Zn84   Zn    0.50000   0.16667   0.11563   0.00000  Uiso   1.00
C85    C     0.83800   0.08701   0.16703   0.00000  Uiso   1.00
C86    C     0.84299   0.02131   0.20833   0.00000  Uiso   1.00
C87    C     0.82387   0.29081   0.16602   0.00000  Uiso   1.00
C88    C     0.84280   0.04252   0.16732   0.00000  Uiso   1.00
C89    C     0.86773   0.19260   0.02822   0.00000  Uiso   1.00
C90    C     0.79893   0.14073   0.30512   0.00000  Uiso   1.00
C91    C     0.86759   0.19262   0.31383   0.00000  Uiso   1.00
C92    C     0.79908   0.14071   0.01951   0.00000  Uiso   1.00
C93    C     0.85378   0.03881   0.08533   0.00000  Uiso   1.00
C94    C     0.81289   0.29452   0.24801   0.00000  Uiso   1.00
C95    C     0.80431   0.29236   0.08162   0.00000  Uiso   1.00
C96    C     0.82866   0.24632   0.16630   0.00000  Uiso   1.00
C97    C     0.86236   0.04097   0.25172   0.00000  Uiso   1.00
C98    C     0.73391   0.16412   0.15538   0.00000  Uiso   1.00
C99    C     0.93276   0.16921   0.17796   0.00000  Uiso   1.00
C100   C     0.67918   0.15550   0.15296   0.00000  Uiso   1.00
C101   C     0.98748   0.17784   0.18037   0.00000  Uiso   1.00
C102   C     0.83843   0.02042   0.12605   0.00000  Uiso   1.00
C103   C     0.82823   0.31292   0.20728   0.00000  Uiso   1.00
C104   C     0.82368   0.31203   0.12500   0.00000  Uiso   1.00
I105   I     0.98374   0.09489   0.12914   0.00000  Uiso   1.00
I106   I     0.68293   0.23845   0.20420   0.00000  Uiso   1.00
I107   I     0.92270   0.23365   0.06953   0.00000  Uiso   1.00
I108   I     0.74397   0.09969   0.26380   0.00000  Uiso   1.00
I109   I     0.92148   0.23424   0.28677   0.00000  Uiso   1.00
I110   I     0.74519   0.09909   0.04656   0.00000  Uiso   1.00
N111   N     0.83332   0.16666   0.28573   0.00000  Uiso   1.00
N112   N     0.83335   0.16668   0.04760   0.00000  Uiso   1.00
N113   N     0.86644   0.05316   0.05292   0.00000  Uiso   1.00
N114   N     0.80023   0.28018   0.28042   0.00000  Uiso   1.00
N115   N     0.78855   0.27679   0.04715   0.00000  Uiso   1.00
N116   N     0.87812   0.05654   0.28618   0.00000  Uiso   1.00
O117   O     0.83333   0.10558   0.20487   0.00000  Uiso   1.00
O118   O     0.83334   0.22775   0.12846   0.00000  Uiso   1.00
O119   O     0.83333   0.10559   0.12843   0.00000  Uiso   1.00
O120   O     0.83334   0.22774   0.20490   0.00000  Uiso   1.00
O121   O     0.75725   0.16666   0.19595   0.00000  Uiso   1.00
O122   O     0.90942   0.16667   0.13739   0.00000  Uiso   1.00
O123   O     0.75725   0.16667   0.11950   0.00000  Uiso   1.00
O124   O     0.90942   0.16666   0.21383   0.00000  Uiso   1.00
Zn125  Zn    0.83333   0.16666   0.21771   0.00000  Uiso   1.00
Zn126  Zn    0.83333   0.16667   0.11563   0.00000  Uiso   1.00
C127   C     0.17134   0.42034   0.16703   0.00000  Uiso   1.00
C128   C     0.17632   0.35464   0.20833   0.00000  Uiso   1.00
C129   C     0.15720   0.62415   0.16602   0.00000  Uiso   1.00
C130   C     0.17613   0.37585   0.16732   0.00000  Uiso   1.00
C131   C     0.20107   0.52594   0.02822   0.00000  Uiso   1.00
C132   C     0.13227   0.47406   0.30512   0.00000  Uiso   1.00
C133   C     0.20092   0.52595   0.31383   0.00000  Uiso   1.00
C134   C     0.13241   0.47405   0.01951   0.00000  Uiso   1.00
C135   C     0.18711   0.37215   0.08533   0.00000  Uiso   1.00
C136   C     0.14623   0.62785   0.24801   0.00000  Uiso   1.00
C137   C     0.13764   0.62570   0.08162   0.00000  Uiso   1.00
C138   C     0.16200   0.57966   0.16630   0.00000  Uiso   1.00
C139   C     0.19569   0.37430   0.25172   0.00000  Uiso   1.00
C140   C     0.06724   0.49746   0.15538   0.00000  Uiso   1.00
C141   C     0.26609   0.50254   0.17796   0.00000  Uiso   1.00
C142   C     0.01252   0.48883   0.15296   0.00000  Uiso   1.00
C143   C     0.32082   0.51117   0.18037   0.00000  Uiso   1.00
C144   C     0.17177   0.35375   0.12605   0.00000  Uiso   1.00
C145   C     0.16157   0.64625   0.20728   0.00000  Uiso   1.00
C146   C     0.15701   0.64536   0.12500   0.00000  Uiso   1.00
I147   I     0.31707   0.42822   0.12914   0.00000  Uiso   1.00
I148   I     0.01626   0.57178   0.20420   0.00000  Uiso   1.00
I149   I     0.25603   0.56698   0.06953   0.00000  Uiso   1.00
I150   I     0.07730   0.43302   0.26380   0.00000  Uiso   1.00
I151   I     0.25481   0.56758   0.28677   0.00000  Uiso   1.00
I152   I     0.07852   0.43243   0.04656   0.00000  Uiso   1.00
N153   N     0.16665   0.49999   0.28573   0.00000  Uiso   1.00
N154   N     0.16668   0.50001   0.04760   0.00000  Uiso   1.00
N155   N     0.19977   0.38649   0.05292   0.00000  Uiso   1.00
N156   N     0.13356   0.61351   0.28042   0.00000  Uiso   1.00
N157   N     0.12188   0.61013   0.04715   0.00000  Uiso   1.00
N158   N     0.21145   0.38987   0.28618   0.00000  Uiso   1.00
O159   O     0.16666   0.43892   0.20487   0.00000  Uiso   1.00
O160   O     0.16667   0.56108   0.12846   0.00000  Uiso   1.00
O161   O     0.16666   0.43893   0.12843   0.00000  Uiso   1.00
O162   O     0.16667   0.56107   0.20490   0.00000  Uiso   1.00
O163   O     0.09058   0.50000   0.19595   0.00000  Uiso   1.00
O164   O     0.24275   0.50000   0.13739   0.00000  Uiso   1.00
O165   O     0.09058   0.50000   0.11950   0.00000  Uiso   1.00
O166   O     0.24275   0.50000   0.21383   0.00000  Uiso   1.00
Zn167  Zn    0.16667   0.49999   0.21771   0.00000  Uiso   1.00
Zn168  Zn    0.16667   0.50001   0.11563   0.00000  Uiso   1.00
C169   C     0.50467   0.42034   0.16703   0.00000  Uiso   1.00
C170   C     0.50966   0.35464   0.20833   0.00000  Uiso   1.00
C171   C     0.49053   0.62415   0.16602   0.00000  Uiso   1.00
C172   C     0.50947   0.37585   0.16732   0.00000  Uiso   1.00
C173   C     0.53440   0.52594   0.02822   0.00000  Uiso   1.00
C174   C     0.46560   0.47406   0.30512   0.00000  Uiso   1.00
C175   C     0.53425   0.52595   0.31383   0.00000  Uiso   1.00
C176   C     0.46575   0.47405   0.01951   0.00000  Uiso   1.00
C177   C     0.52044   0.37215   0.08533   0.00000  Uiso   1.00
C178   C     0.47956   0.62785   0.24801   0.00000  Uiso   1.00
C179   C     0.47098   0.62570   0.08162   0.00000  Uiso   1.00
C180   C     0.49533   0.57966   0.16630   0.00000  Uiso   1.00
C181   C     0.52902   0.37430   0.25172   0.00000  Uiso   1.00
C182   C     0.40057   0.49746   0.15538   0.00000  Uiso   1.00
C183   C     0.59943   0.50254   0.17796   0.00000  Uiso   1.00
C184   C     0.34585   0.48883   0.15296   0.00000  Uiso   1.00
C185   C     0.65415   0.51117   0.18037   0.00000  Uiso   1.00
C186   C     0.50510   0.35375   0.12605   0.00000  Uiso   1.00
C187   C     0.49490   0.64625   0.20728   0.00000  Uiso   1.00
C188   C     0.49034   0.64536   0.12500   0.00000  Uiso   1.00
I189   I     0.65040   0.42822   0.12914   0.00000  Uiso   1.00
I190   I     0.34960   0.57178   0.20420   0.00000  Uiso   1.00
I191   I     0.58937   0.56698   0.06953   0.00000  Uiso   1.00
I192   I     0.41063   0.43302   0.26380   0.00000  Uiso   1.00
I193   I     0.58814   0.56758   0.28677   0.00000  Uiso   1.00
I194   I     0.41186   0.43243   0.04656   0.00000  Uiso   1.00
N195   N     0.49999   0.49999   0.28573   0.00000  Uiso   1.00
N196   N     0.50001   0.50001   0.04760   0.00000  Uiso   1.00
N197   N     0.53310   0.38649   0.05292   0.00000  Uiso   1.00
N198   N     0.46690   0.61351   0.28042   0.00000  Uiso   1.00
N199   N     0.45522   0.61013   0.04715   0.00000  Uiso   1.00
N200   N     0.54478   0.38987   0.28618   0.00000  Uiso   1.00
O201   O     0.50000   0.43892   0.20487   0.00000  Uiso   1.00
O202   O     0.50000   0.56108   0.12846   0.00000  Uiso   1.00
O203   O     0.50000   0.43893   0.12843   0.00000  Uiso   1.00
O204   O     0.50000   0.56107   0.20490   0.00000  Uiso   1.00
O205   O     0.42392   0.50000   0.19595   0.00000  Uiso   1.00
O206   O     0.57608   0.50000   0.13739   0.00000  Uiso   1.00
O207   O     0.42392   0.50000   0.11950   0.00000  Uiso   1.00
O208   O     0.57608   0.50000   0.21383   0.00000  Uiso   1.00
Zn209  Zn    0.50000   0.49999   0.21771   0.00000  Uiso   1.00
Zn210  Zn    0.50000   0.50001   0.11563   0.00000  Uiso   1.00
C211   C     0.83800   0.42034   0.16703   0.00000  Uiso   1.00
C212   C     0.84299   0.35464   0.20833   0.00000  Uiso   1.00
C213   C     0.82387   0.62415   0.16602   0.00000  Uiso   1.00
C214   C     0.84280   0.37585   0.16732   0.00000  Uiso   1.00
C215   C     0.86773   0.52594   0.02822   0.00000  Uiso   1.00
C216   C     0.79893   0.47406   0.30512   0.00000  Uiso   1.00
C217   C     0.86759   0.52595   0.31383   0.00000  Uiso   1.00
C218   C     0.79908   0.47405   0.01951   0.00000  Uiso   1.00
C219   C     0.85378   0.37215   0.08533   0.00000  Uiso   1.00
C220   C     0.81289   0.62785   0.24801   0.00000  Uiso   1.00
C221   C     0.80431   0.62570   0.08162   0.00000  Uiso   1.00
C222   C     0.82866   0.57966   0.16630   0.00000  Uiso   1.00
C223   C     0.86236   0.37430   0.25172   0.00000  Uiso   1.00
C224   C     0.73391   0.49746   0.15538   0.00000  Uiso   1.00
C225   C     0.93276   0.50254   0.17796   0.00000  Uiso   1.00
C226   C     0.67918   0.48883   0.15296   0.00000  Uiso   1.00
C227   C     0.98748   0.51117   0.18037   0.00000  Uiso   1.00
C228   C     0.83843   0.35375   0.12605   0.00000  Uiso   1.00
C229   C     0.82823   0.64625   0.20728   0.00000  Uiso   1.00
C230   C     0.82368   0.64536   0.12500   0.00000  Uiso   1.00
I231   I     0.98374   0.42822   0.12914   0.00000  Uiso   1.00
I232   I     0.68293   0.57178   0.20420   0.00000  Uiso   1.00
I233   I     0.92270   0.56698   0.06953   0.00000  Uiso   1.00
I234   I     0.74397   0.43302   0.26380   0.00000  Uiso   1.00
I235   I     0.92148   0.56758   0.28677   0.00000  Uiso   1.00
I236   I     0.74519   0.43243   0.04656   0.00000  Uiso   1.00
N237   N     0.83332   0.49999   0.28573   0.00000  Uiso   1.00
N238   N     0.83335   0.50001   0.04760   0.00000  Uiso   1.00
N239   N     0.86644   0.38649   0.05292   0.00000  Uiso   1.00
N240   N     0.80023   0.61351   0.28042   0.00000  Uiso   1.00
N241   N     0.78855   0.61013   0.04715   0.00000  Uiso   1.00
N242   N     0.87812   0.38987   0.28618   0.00000  Uiso   1.00
O243   O     0.83333   0.43892   0.20487   0.00000  Uiso   1.00
O244   O     0.83334   0.56108   0.12846   0.00000  Uiso   1.00
O245   O     0.83333   0.43893   0.12843   0.00000  Uiso   1.00
O246   O     0.83334   0.56107   0.20490   0.00000  Uiso   1.00
O247   O     0.75725   0.50000   0.19595   0.00000  Uiso   1.00
O248   O     0.90942   0.50000   0.13739   0.00000  Uiso   1.00
O249   O     0.75725   0.50000   0.11950   0.00000  Uiso   1.00
O250   O     0.90942   0.50000   0.21383   0.00000  Uiso   1.00
Zn251  Zn    0.83333   0.49999   0.21771   0.00000  Uiso   1.00
Zn252  Zn    0.83333   0.50001   0.11563   0.00000  Uiso   1.00
C253   C     0.17134   0.75368   0.16703   0.00000  Uiso   1.00
C254   C     0.17632   0.68797   0.20833   0.00000  Uiso   1.00
C255   C     0.15720   0.95748   0.16602   0.00000  Uiso   1.00
C256   C     0.17613   0.70919   0.16732   0.00000  Uiso   1.00
C257   C     0.20107   0.85927   0.02822   0.00000  Uiso   1.00
C258   C     0.13227   0.80740   0.30512   0.00000  Uiso   1.00
C259   C     0.20092   0.85929   0.31383   0.00000  Uiso   1.00
C260   C     0.13241   0.80738   0.01951   0.00000  Uiso   1.00
C261   C     0.18711   0.70548   0.08533   0.00000  Uiso   1.00
C262   C     0.14623   0.96119   0.24801   0.00000  Uiso   1.00
C263   C     0.13764   0.95903   0.08162   0.00000  Uiso   1.00
C264   C     0.16200   0.91299   0.16630   0.00000  Uiso   1.00
C265   C     0.19569   0.70764   0.25172   0.00000  Uiso   1.00
C266   C     0.06724   0.83079   0.15538   0.00000  Uiso   1.00
C267   C     0.26609   0.83588   0.17796   0.00000  Uiso   1.00
C268   C     0.01252   0.82216   0.15296   0.00000  Uiso   1.00
C269   C     0.32082   0.84451   0.18037   0.00000  Uiso   1.00
C270   C     0.17177   0.68709   0.12605   0.00000  Uiso   1.00
C271   C     0.16157   0.97958   0.20728   0.00000  Uiso   1.00
C272   C     0.15701   0.97869   0.12500   0.00000  Uiso   1.00
I273   I     0.31707   0.76155   0.12914   0.00000  Uiso   1.00
I274   I     0.01626   0.90511   0.20420   0.00000  Uiso   1.00
I275   I     0.25603   0.90031   0.06953   0.00000  Uiso   1.00
I276   I     0.07730   0.76635   0.26380   0.00000  Uiso   1.00
I277   I     0.25481   0.90091   0.28677   0.00000  Uiso   1.00
I278   I     0.07852   0.76576   0.04656   0.00000  Uiso   1.00
N279   N     0.16665   0.83332   0.28573   0.00000  Uiso   1.00
N280   N     0.16668   0.83334   0.04760   0.00000  Uiso   1.00
N281   N     0.19977   0.71982   0.05292   0.00000  Uiso   1.00
N282   N     0.13356   0.94684   0.28042   0.00000  Uiso   1.00
N283   N     0.12188   0.94346   0.04715   0.00000  Uiso   1.00
N284   N     0.21145   0.72321   0.28618   0.00000  Uiso   1.00
O285   O     0.16666   0.77225   0.20487   0.00000  Uiso   1.00
O286   O     0.16667   0.89442   0.12846   0.00000  Uiso   1.00
O287   O     0.16666   0.77226   0.12843   0.00000  Uiso   1.00
O288   O     0.16667   0.89441   0.20490   0.00000  Uiso   1.00
O289   O     0.09058   0.83333   0.19595   0.00000  Uiso   1.00
O290   O     0.24275   0.83334   0.13739   0.00000  Uiso   1.00
O291   O     0.09058   0.83334   0.11950   0.00000  Uiso   1.00
O292   O     0.24275   0.83333   0.21383   0.00000  Uiso   1.00
Zn293  Zn    0.16667   0.83333   0.21771   0.00000  Uiso   1.00
Zn294  Zn    0.16667   0.83334   0.11563   0.00000  Uiso   1.00
C295   C     0.50467   0.75368   0.16703   0.00000  Uiso   1.00
C296   C     0.50966   0.68797   0.20833   0.00000  Uiso   1.00
C297   C     0.49053   0.95748   0.16602   0.00000  Uiso   1.00
C298   C     0.50947   0.70919   0.16732   0.00000  Uiso   1.00
C299   C     0.53440   0.85927   0.02822   0.00000  Uiso   1.00
C300   C     0.46560   0.80740   0.30512   0.00000  Uiso   1.00
C301   C     0.53425   0.85929   0.31383   0.00000  Uiso   1.00
C302   C     0.46575   0.80738   0.01951   0.00000  Uiso   1.00
C303   C     0.52044   0.70548   0.08533   0.00000  Uiso   1.00
C304   C     0.47956   0.96119   0.24801   0.00000  Uiso   1.00
C305   C     0.47098   0.95903   0.08162   0.00000  Uiso   1.00
C306   C     0.49533   0.91299   0.16630   0.00000  Uiso   1.00
C307   C     0.52902   0.70764   0.25172   0.00000  Uiso   1.00
C308   C     0.40057   0.83079   0.15538   0.00000  Uiso   1.00
C309   C     0.59943   0.83588   0.17796   0.00000  Uiso   1.00
C310   C     0.34585   0.82216   0.15296   0.00000  Uiso   1.00
C311   C     0.65415   0.84451   0.18037   0.00000  Uiso   1.00
C312   C     0.50510   0.68709   0.12605   0.00000  Uiso   1.00
C313   C     0.49490   0.97958   0.20728   0.00000  Uiso   1.00
C314   C     0.49034   0.97869   0.12500   0.00000  Uiso   1.00
I315   I     0.65040   0.76155   0.12914   0.00000  Uiso   1.00
I316   I     0.34960   0.90511   0.20420   0.00000  Uiso   1.00
I317   I     0.58937   0.90031   0.06953   0.00000  Uiso   1.00
I318   I     0.41063   0.76635   0.26380   0.00000  Uiso   1.00
I319   I     0.58814   0.90091   0.28677   0.00000  Uiso   1.00
I320   I     0.41186   0.76576   0.04656   0.00000  Uiso   1.00
N321   N     0.49999   0.83332   0.28573   0.00000  Uiso   1.00
N322   N     0.50001   0.83334   0.04760   0.00000  Uiso   1.00
N323   N     0.53310   0.71982   0.05292   0.00000  Uiso   1.00
N324   N     0.46690   0.94684   0.28042   0.00000  Uiso   1.00
N325   N     0.45522   0.94346   0.04715   0.00000  Uiso   1.00
N326   N     0.54478   0.72321   0.28618   0.00000  Uiso   1.00
O327   O     0.50000   0.77225   0.20487   0.00000  Uiso   1.00
O328   O     0.50000   0.89442   0.12846   0.00000  Uiso   1.00
O329   O     0.50000   0.77226   0.12843   0.00000  Uiso   1.00
O330   O     0.50000   0.89441   0.20490   0.00000  Uiso   1.00
O331   O     0.42392   0.83333   0.19595   0.00000  Uiso   1.00
O332   O     0.57608   0.83334   0.13739   0.00000  Uiso   1.00
O333   O     0.42392   0.83334   0.11950   0.00000  Uiso   1.00
O334   O     0.57608   0.83333   0.21383   0.00000  Uiso   1.00
Zn335  Zn    0.50000   0.83333   0.21771   0.00000  Uiso   1.00
Zn336  Zn    0.50000   0.83334   0.11563   0.00000  Uiso   1.00
C337   C     0.83800   0.75368   0.16703   0.00000  Uiso   1.00
C338   C     0.84299   0.68797   0.20833   0.00000  Uiso   1.00
C339   C     0.82387   0.95748   0.16602   0.00000  Uiso   1.00
C340   C     0.84280   0.70919   0.16732   0.00000  Uiso   1.00
C341   C     0.86773   0.85927   0.02822   0.00000  Uiso   1.00
C342   C     0.79893   0.80740   0.30512   0.00000  Uiso   1.00
C343   C     0.86759   0.85929   0.31383   0.00000  Uiso   1.00
C344   C     0.79908   0.80738   0.01951   0.00000  Uiso   1.00
C345   C     0.85378   0.70548   0.08533   0.00000  Uiso   1.00
C346   C     0.81289   0.96119   0.24801   0.00000  Uiso   1.00
C347   C     0.80431   0.95903   0.08162   0.00000  Uiso   1.00
C348   C     0.82866   0.91299   0.16630   0.00000  Uiso   1.00
C349   C     0.86236   0.70764   0.25172   0.00000  Uiso   1.00
C350   C     0.73391   0.83079   0.15538   0.00000  Uiso   1.00
C351   C     0.93276   0.83588   0.17796   0.00000  Uiso   1.00
C352   C     0.67918   0.82216   0.15296   0.00000  Uiso   1.00
C353   C     0.98748   0.84451   0.18037   0.00000  Uiso   1.00
C354   C     0.83843   0.68709   0.12605   0.00000  Uiso   1.00
C355   C     0.82823   0.97958   0.20728   0.00000  Uiso   1.00
C356   C     0.82368   0.97869   0.12500   0.00000  Uiso   1.00
I357   I     0.98374   0.76155   0.12914   0.00000  Uiso   1.00
I358   I     0.68293   0.90511   0.20420   0.00000  Uiso   1.00
I359   I     0.92270   0.90031   0.06953   0.00000  Uiso   1.00
I360   I     0.74397   0.76635   0.26380   0.00000  Uiso   1.00
I361   I     0.92148   0.90091   0.28677   0.00000  Uiso   1.00
I362   I     0.74519   0.76576   0.04656   0.00000  Uiso   1.00
N363   N     0.83332   0.83332   0.28573   0.00000  Uiso   1.00
N364   N     0.83335   0.83334   0.04760   0.00000  Uiso   1.00
N365   N     0.86644   0.71982   0.05292   0.00000  Uiso   1.00
N366   N     0.80023   0.94684   0.28042   0.00000  Uiso   1.00
N367   N     0.78855   0.94346   0.04715   0.00000  Uiso   1.00
N368   N     0.87812   0.72321   0.28618   0.00000  Uiso   1.00
O369   O     0.83333   0.77225   0.20487   0.00000  Uiso   1.00
O370   O     0.83334   0.89442   0.12846   0.00000  Uiso   1.00
O371   O     0.83333   0.77226   0.12843   0.00000  Uiso   1.00
O372   O     0.83334   0.89441   0.20490   0.00000  Uiso   1.00
O373   O     0.75725   0.83333   0.19595   0.00000  Uiso   1.00
O374   O     0.90942   0.83334   0.13739   0.00000  Uiso   1.00
O375   O     0.75725   0.83334   0.11950   0.00000  Uiso   1.00
O376   O     0.90942   0.83333   0.21383   0.00000  Uiso   1.00
Zn377  Zn    0.83333   0.83333   0.21771   0.00000  Uiso   1.00
Zn378  Zn    0.83333   0.83334   0.11563   0.00000  Uiso   1.00
C379   C     0.17134   0.08701   0.50036   0.00000  Uiso   1.00
C380   C     0.17632   0.02131   0.54167   0.00000  Uiso   1.00
C381   C     0.15720   0.29081   0.49935   0.00000  Uiso   1.00
C382   C     0.17613   0.04252   0.50065   0.00000  Uiso   1.00
C383   C     0.20107   0.19260   0.36155   0.00000  Uiso   1.00
C384   C     0.13227   0.14073   0.63845   0.00000  Uiso   1.00
C385   C     0.20092   0.19262   0.64716   0.00000  Uiso   1.00
C386   C     0.13241   0.14071   0.35284   0.00000  Uiso   1.00
C387   C     0.18711   0.03881   0.41866   0.00000  Uiso   1.00
C388   C     0.14623   0.29452   0.58134   0.00000  Uiso   1.00
C389   C     0.13764   0.29236   0.41495   0.00000  Uiso   1.00
C390   C     0.16200   0.24632   0.49964   0.00000  Uiso   1.00
C391   C     0.19569   0.04097   0.58505   0.00000  Uiso   1.00
C392   C     0.06724   0.16412   0.48871   0.00000  Uiso   1.00
C393   C     0.26609   0.16921   0.51129   0.00000  Uiso   1.00
C394   C     0.01252   0.15550   0.48629   0.00000  Uiso   1.00
C395   C     0.32082   0.17784   0.51371   0.00000  Uiso   1.00
C396   C     0.17177   0.02042   0.45938   0.00000  Uiso   1.00
C397   C     0.16157   0.31292   0.54062   0.00000  Uiso   1.00
C398   C     0.15701   0.31203   0.45833   0.00000  Uiso   1.00
I399   I     0.31707   0.09489   0.46247   0.00000  Uiso   1.00
I400   I     0.01626   0.23845   0.53753   0.00000  Uiso   1.00
I401   I     0.25603   0.23365   0.40286   0.00000  Uiso   1.00
I402   I     0.07730   0.09969   0.59714   0.00000  Uiso   1.00
I403   I     0.25481   0.23424   0.62010   0.00000  Uiso   1.00
I404   I     0.07852   0.09909   0.37990   0.00000  Uiso   1.00
N405   N     0.16665   0.16666   0.61907   0.00000  Uiso   1.00
N406   N     0.16668   0.16668   0.38093   0.00000  Uiso   1.00
N407   N     0.19977   0.05316   0.38625   0.00000  Uiso   1.00
N408   N     0.13356   0.28018   0.61375   0.00000  Uiso   1.00
N409   N     0.12188   0.27679   0.38048   0.00000  Uiso   1.00
N410   N     0.21145   0.05654   0.61952   0.00000  Uiso   1.00
O411   O     0.16666   0.10558   0.53821   0.00000  Uiso   1.00
O412   O     0.16667   0.22775   0.46179   0.00000  Uiso   1.00
O413   O     0.16666   0.10559   0.46176   0.00000  Uiso   1.00
O414   O     0.16667   0.22774   0.53824   0.00000  Uiso   1.00
O415   O     0.09058   0.16666   0.52928   0.00000  Uiso   1.00
O416   O     0.24275   0.16667   0.47072   0.00000  Uiso   1.00
O417   O     0.09058   0.16667   0.45284   0.00000  Uiso   1.00
O418   O     0.24275   0.16666   0.54716   0.00000  Uiso   1.00
Zn419  Zn    0.16667   0.16666   0.55104   0.00000  Uiso   1.00
Zn420  Zn    0.16667   0.16667   0.44896   0.00000  Uiso   1.00
C421   C     0.50467   0.08701   0.50036   0.00000  Uiso   1.00
C422   C     0.50966   0.02131   0.54167   0.00000  Uiso   1.00
C423   C     0.49053   0.29081   0.49935   0.00000  Uiso   1.00
C424   C     0.50947   0.04252   0.50065   0.00000  Uiso   1.00
C425   C     0.53440   0.19260   0.36155   0.00000  Uiso   1.00
C426   C     0.46560   0.14073   0.63845   0.00000  Uiso   1.00
C427   C     0.53425   0.19262   0.64716   0.00000  Uiso   1.00
C428   C     0.46575   0.14071   0.35284   0.00000  Uiso   1.00
C429   C     0.52044   0.03881   0.41866   0.00000  Uiso   1.00
C430   C     0.47956   0.29452   0.58134   0.00000  Uiso   1.00
C431   C     0.47098   0.29236   0.41495   0.00000  Uiso   1.00
C432   C     0.49533   0.24632   0.49964   0.00000  Uiso   1.00
C433   C     0.52902   0.04097   0.58505   0.00000  Uiso   1.00
C434   C     0.40057   0.16412   0.48871   0.00000  Uiso   1.00
C435   C     0.59943   0.16921   0.51129   0.00000  Uiso   1.00
C436   C     0.34585   0.15550   0.48629   0.00000  Uiso   1.00
C437   C     0.65415   0.17784   0.51371   0.00000  Uiso   1.00
C438   C     0.50510   0.02042   0.45938   0.00000  Uiso   1.00
C439   C     0.49490   0.31292   0.54062   0.00000  Uiso   1.00
C440   C     0.49034   0.31203   0.45833   0.00000  Uiso   1.00
I441   I     0.65040   0.09489   0.46247   0.00000  Uiso   1.00
I442   I     0.34960   0.23845   0.53753   0.00000  Uiso   1.00
I443   I     0.58937   0.23365   0.40286   0.00000  Uiso   1.00
I444   I     0.41063   0.09969   0.59714   0.00000  Uiso   1.00
I445   I     0.58814   0.23424   0.62010   0.00000  Uiso   1.00
I446   I     0.41186   0.09909   0.37990   0.00000  Uiso   1.00
N447   N     0.49999   0.16666   0.61907   0.00000  Uiso   1.00
N448   N     0.50001   0.16668   0.38093   0.00000  Uiso   1.00
N449   N     0.53310   0.05316   0.38625   0.00000  Uiso   1.00
N450   N     0.46690   0.28018   0.61375   0.00000  Uiso   1.00
N451   N     0.45522   0.27679   0.38048   0.00000  Uiso   1.00
N452   N     0.54478   0.05654   0.61952   0.00000  Uiso   1.00
O453   O     0.50000   0.10558   0.53821   0.00000  Uiso   1.00
O454   O     0.50000   0.22775   0.46179   0.00000  Uiso   1.00
O455   O     0.50000   0.10559   0.46176   0.00000  Uiso   1.00
O456   O     0.50000   0.22774   0.53824   0.00000  Uiso   1.00
O457   O     0.42392   0.16666   0.52928   0.00000  Uiso   1.00
O458   O     0.57608   0.16667   0.47072   0.00000  Uiso   1.00
O459   O     0.42392   0.16667   0.45284   0.00000  Uiso   1.00
O460   O     0.57608   0.16666   0.54716   0.00000  Uiso   1.00
Zn461  Zn    0.50000   0.16666   0.55104   0.00000  Uiso   1.00
Zn462  Zn    0.50000   0.16667   0.44896   0.00000  Uiso   1.00
C463   C     0.83800   0.08701   0.50036   0.00000  Uiso   1.00
C464   C     0.84299   0.02131   0.54167   0.00000  Uiso   1.00
C465   C     0.82387   0.29081   0.49935   0.00000  Uiso   1.00
C466   C     0.84280   0.04252   0.50065   0.00000  Uiso   1.00
C467   C     0.86773   0.19260   0.36155   0.00000  Uiso   1.00
C468   C     0.79893   0.14073   0.63845   0.00000  Uiso   1.00
C469   C     0.86759   0.19262   0.64716   0.00000  Uiso   1.00
C470   C     0.79908   0.14071   0.35284   0.00000  Uiso   1.00
C471   C     0.85378   0.03881   0.41866   0.00000  Uiso   1.00
C472   C     0.81289   0.29452   0.58134   0.00000  Uiso   1.00
C473   C     0.80431   0.29236   0.41495   0.00000  Uiso   1.00
C474   C     0.82866   0.24632   0.49964   0.00000  Uiso   1.00
C475   C     0.86236   0.04097   0.58505   0.00000  Uiso   1.00
C476   C     0.73391   0.16412   0.48871   0.00000  Uiso   1.00
C477   C     0.93276   0.16921   0.51129   0.00000  Uiso   1.00
C478   C     0.67918   0.15550   0.48629   0.00000  Uiso   1.00
C479   C     0.98748   0.17784   0.51371   0.00000  Uiso   1.00
C480   C     0.83843   0.02042   0.45938   0.00000  Uiso   1.00
C481   C     0.82823   0.31292   0.54062   0.00000  Uiso   1.00
C482   C     0.82368   0.31203   0.45833   0.00000  Uiso   1.00
I483   I     0.98374   0.09489   0.46247   0.00000  Uiso   1.00
I484   I     0.68293   0.23845   0.53753   0.00000  Uiso   1.00
I485   I     0.92270   0.23365   0.40286   0.00000  Uiso   1.00
I486   I     0.74397   0.09969   0.59714   0.00000  Uiso   1.00
I487   I     0.92148   0.23424   0.62010   0.00000  Uiso   1.00
I488   I     0.74519   0.09909   0.37990   0.00000  Uiso   1.00
N489   N     0.83332   0.16666   0.61907   0.00000  Uiso   1.00
N490   N     0.83335   0.16668   0.38093   0.00000  Uiso   1.00
N491   N     0.86644   0.05316   0.38625   0.00000  Uiso   1.00
N492   N     0.80023   0.28018   0.61375   0.00000  Uiso   1.00
N493   N     0.78855   0.27679   0.38048   0.00000  Uiso   1.00
N494   N     0.87812   0.05654   0.61952   0.00000  Uiso   1.00
O495   O     0.83333   0.10558   0.53821   0.00000  Uiso   1.00
O496   O     0.83334   0.22775   0.46179   0.00000  Uiso   1.00
O497   O     0.83333   0.10559   0.46176   0.00000  Uiso   1.00
O498   O     0.83334   0.22774   0.53824   0.00000  Uiso   1.00
O499   O     0.75725   0.16666   0.52928   0.00000  Uiso   1.00
O500   O     0.90942   0.16667   0.47072   0.00000  Uiso   1.00
O501   O     0.75725   0.16667   0.45284   0.00000  Uiso   1.00
O502   O     0.90942   0.16666   0.54716   0.00000  Uiso   1.00
Zn503  Zn    0.83333   0.16666   0.55104   0.00000  Uiso   1.00
Zn504  Zn    0.83333   0.16667   0.44896   0.00000  Uiso   1.00
C505   C     0.17134   0.42034   0.50036   0.00000  Uiso   1.00
C506   C     0.17632   0.35464   0.54167   0.00000  Uiso   1.00
C507   C     0.15720   0.62415   0.49935   0.00000  Uiso   1.00
C508   C     0.17613   0.37585   0.50065   0.00000  Uiso   1.00
C509   C     0.20107   0.52594   0.36155   0.00000  Uiso   1.00
C510   C     0.13227   0.47406   0.63845   0.00000  Uiso   1.00
C511   C     0.20092   0.52595   0.64716   0.00000  Uiso   1.00
C512   C     0.13241   0.47405   0.35284   0.00000  Uiso   1.00
C513   C     0.18711   0.37215   0.41866   0.00000  Uiso   1.00
C514   C     0.14623   0.62785   0.58134   0.00000  Uiso   1.00
C515   C     0.13764   0.62570   0.41495   0.00000  Uiso   1.00
C516   C     0.16200   0.57966   0.49964   0.00000  Uiso   1.00
C517   C     0.19569   0.37430   0.58505   0.00000  Uiso   1.00
C518   C     0.06724   0.49746   0.48871   0.00000  Uiso   1.00
C519   C     0.26609   0.50254   0.51129   0.00000  Uiso   1.00
C520   C     0.01252   0.48883   0.48629   0.00000  Uiso   1.00
C521   C     0.32082   0.51117   0.51371   0.00000  Uiso   1.00
C522   C     0.17177   0.35375   0.45938   0.00000  Uiso   1.00
C523   C     0.16157   0.64625   0.54062   0.00000  Uiso   1.00
C524   C     0.15701   0.64536   0.45833   0.00000  Uiso   1.00
I525   I     0.31707   0.42822   0.46247   0.00000  Uiso   1.00
I526   I     0.01626   0.57178   0.53753   0.00000  Uiso   1.00
I527   I     0.25603   0.56698   0.40286   0.00000  Uiso   1.00
I528   I     0.07730   0.43302   0.59714   0.00000  Uiso   1.00
I529   I     0.25481   0.56758   0.62010   0.00000  Uiso   1.00
I530   I     0.07852   0.43243   0.37990   0.00000  Uiso   1.00
N531   N     0.16665   0.49999   0.61907   0.00000  Uiso   1.00
N532   N     0.16668   0.50001   0.38093   0.00000  Uiso   1.00
N533   N     0.19977   0.38649   0.38625   0.00000  Uiso   1.00
N534   N     0.13356   0.61351   0.61375   0.00000  Uiso   1.00
N535   N     0.12188   0.61013   0.38048   0.00000  Uiso   1.00
N536   N     0.21145   0.38987   0.61952   0.00000  Uiso   1.00
O537   O     0.16666   0.43892   0.53821   0.00000  Uiso   1.00
O538   O     0.16667   0.56108   0.46179   0.00000  Uiso   1.00
O539   O     0.16666   0.43893   0.46176   0.00000  Uiso   1.00
O540   O     0.16667   0.56107   0.53824   0.00000  Uiso   1.00
O541   O     0.09058   0.50000   0.52928   0.00000  Uiso   1.00
O542   O     0.24275   0.50000   0.47072   0.00000  Uiso   1.00
O543   O     0.09058   0.50000   0.45284   0.00000  Uiso   1.00
O544   O     0.24275   0.50000   0.54716   0.00000  Uiso   1.00
Zn545  Zn    0.16667   0.49999   0.55104   0.00000  Uiso   1.00
Zn546  Zn    0.16667   0.50001   0.44896   0.00000  Uiso   1.00
C547   C     0.50467   0.42034   0.50036   0.00000  Uiso   1.00
C548   C     0.50966   0.35464   0.54167   0.00000  Uiso   1.00
C549   C     0.49053   0.62415   0.49935   0.00000  Uiso   1.00
C550   C     0.50947   0.37585   0.50065   0.00000  Uiso   1.00
C551   C     0.53440   0.52594   0.36155   0.00000  Uiso   1.00
C552   C     0.46560   0.47406   0.63845   0.00000  Uiso   1.00
C553   C     0.53425   0.52595   0.64716   0.00000  Uiso   1.00
C554   C     0.46575   0.47405   0.35284   0.00000  Uiso   1.00
C555   C     0.52044   0.37215   0.41866   0.00000  Uiso   1.00
C556   C     0.47956   0.62785   0.58134   0.00000  Uiso   1.00
C557   C     0.47098   0.62570   0.41495   0.00000  Uiso   1.00
C558   C     0.49533   0.57966   0.49964   0.00000  Uiso   1.00
C559   C     0.52902   0.37430   0.58505   0.00000  Uiso   1.00
C560   C     0.40057   0.49746   0.48871   0.00000  Uiso   1.00
C561   C     0.59943   0.50254   0.51129   0.00000  Uiso   1.00
C562   C     0.34585   0.48883   0.48629   0.00000  Uiso   1.00
C563   C     0.65415   0.51117   0.51371   0.00000  Uiso   1.00
C564   C     0.50510   0.35375   0.45938   0.00000  Uiso   1.00
C565   C     0.49490   0.64625   0.54062   0.00000  Uiso   1.00
C566   C     0.49034   0.64536   0.45833   0.00000  Uiso   1.00
I567   I     0.65040   0.42822   0.46247   0.00000  Uiso   1.00
I568   I     0.34960   0.57178   0.53753   0.00000  Uiso   1.00
I569   I     0.58937   0.56698   0.40286   0.00000  Uiso   1.00
I570   I     0.41063   0.43302   0.59714   0.00000  Uiso   1.00
I571   I     0.58814   0.56758   0.62010   0.00000  Uiso   1.00
I572   I     0.41186   0.43243   0.37990   0.00000  Uiso   1.00
N573   N     0.49999   0.49999   0.61907   0.00000  Uiso   1.00
N574   N     0.50001   0.50001   0.38093   0.00000  Uiso   1.00
N575   N     0.53310   0.38649   0.38625   0.00000  Uiso   1.00
N576   N     0.46690   0.61351   0.61375   0.00000  Uiso   1.00
N577   N     0.45522   0.61013   0.38048   0.00000  Uiso   1.00
N578   N     0.54478   0.38987   0.61952   0.00000  Uiso   1.00
O579   O     0.50000   0.43892   0.53821   0.00000  Uiso   1.00
O580   O     0.50000   0.56108   0.46179   0.00000  Uiso   1.00
O581   O     0.50000   0.43893   0.46176   0.00000  Uiso   1.00
O582   O     0.50000   0.56107   0.53824   0.00000  Uiso   1.00
O583   O     0.42392   0.50000   0.52928   0.00000  Uiso   1.00
O584   O     0.57608   0.50000   0.47072   0.00000  Uiso   1.00
O585   O     0.42392   0.50000   0.45284   0.00000  Uiso   1.00
O586   O     0.57608   0.50000   0.54716   0.00000  Uiso   1.00
Zn587  Zn    0.50000   0.49999   0.55104   0.00000  Uiso   1.00
Zn588  Zn    0.50000   0.50001   0.44896   0.00000  Uiso   1.00
C589   C     0.83800   0.42034   0.50036   0.00000  Uiso   1.00
C590   C     0.84299   0.35464   0.54167   0.00000  Uiso   1.00
C591   C     0.82387   0.62415   0.49935   0.00000  Uiso   1.00
C592   C     0.84280   0.37585   0.50065   0.00000  Uiso   1.00
C593   C     0.86773   0.52594   0.36155   0.00000  Uiso   1.00
C594   C     0.79893   0.47406   0.63845   0.00000  Uiso   1.00
C595   C     0.86759   0.52595   0.64716   0.00000  Uiso   1.00
C596   C     0.79908   0.47405   0.35284   0.00000  Uiso   1.00
C597   C     0.85378   0.37215   0.41866   0.00000  Uiso   1.00
C598   C     0.81289   0.62785   0.58134   0.00000  Uiso   1.00
C599   C     0.80431   0.62570   0.41495   0.00000  Uiso   1.00
C600   C     0.82866   0.57966   0.49964   0.00000  Uiso   1.00
C601   C     0.86236   0.37430   0.58505   0.00000  Uiso   1.00
C602   C     0.73391   0.49746   0.48871   0.00000  Uiso   1.00
C603   C     0.93276   0.50254   0.51129   0.00000  Uiso   1.00
C604   C     0.67918   0.48883   0.48629   0.00000  Uiso   1.00
C605   C     0.98748   0.51117   0.51371   0.00000  Uiso   1.00
C606   C     0.83843   0.35375   0.45938   0.00000  Uiso   1.00
C607   C     0.82823   0.64625   0.54062   0.00000  Uiso   1.00
C608   C     0.82368   0.64536   0.45833   0.00000  Uiso   1.00
I609   I     0.98374   0.42822   0.46247   0.00000  Uiso   1.00
I610   I     0.68293   0.57178   0.53753   0.00000  Uiso   1.00
I611   I     0.92270   0.56698   0.40286   0.00000  Uiso   1.00
I612   I     0.74397   0.43302   0.59714   0.00000  Uiso   1.00
I613   I     0.92148   0.56758   0.62010   0.00000  Uiso   1.00
I614   I     0.74519   0.43243   0.37990   0.00000  Uiso   1.00
N615   N     0.83332   0.49999   0.61907   0.00000  Uiso   1.00
N616   N     0.83335   0.50001   0.38093   0.00000  Uiso   1.00
N617   N     0.86644   0.38649   0.38625   0.00000  Uiso   1.00
N618   N     0.80023   0.61351   0.61375   0.00000  Uiso   1.00
N619   N     0.78855   0.61013   0.38048   0.00000  Uiso   1.00
N620   N     0.87812   0.38987   0.61952   0.00000  Uiso   1.00
O621   O     0.83333   0.43892   0.53821   0.00000  Uiso   1.00
O622   O     0.83334   0.56108   0.46179   0.00000  Uiso   1.00
O623   O     0.83333   0.43893   0.46176   0.00000  Uiso   1.00
O624   O     0.83334   0.56107   0.53824   0.00000  Uiso   1.00
O625   O     0.75725   0.50000   0.52928   0.00000  Uiso   1.00
O626   O     0.90942   0.50000   0.47072   0.00000  Uiso   1.00
O627   O     0.75725   0.50000   0.45284   0.00000  Uiso   1.00
O628   O     0.90942   0.50000   0.54716   0.00000  Uiso   1.00
Zn629  Zn    0.83333   0.49999   0.55104   0.00000  Uiso   1.00
Zn630  Zn    0.83333   0.50001   0.44896   0.00000  Uiso   1.00
C631   C     0.17134   0.75368   0.50036   0.00000  Uiso   1.00
C632   C     0.17632   0.68797   0.54167   0.00000  Uiso   1.00
C633   C     0.15720   0.95748   0.49935   0.00000  Uiso   1.00
C634   C     0.17613   0.70919   0.50065   0.00000  Uiso   1.00
C635   C     0.20107   0.85927   0.36155   0.00000  Uiso   1.00
C636   C     0.13227   0.80740   0.63845   0.00000  Uiso   1.00
C637   C     0.20092   0.85929   0.64716   0.00000  Uiso   1.00
C638   C     0.13241   0.80738   0.35284   0.00000  Uiso   1.00
C639   C     0.18711   0.70548   0.41866   0.00000  Uiso   1.00
C640   C     0.14623   0.96119   0.58134   0.00000  Uiso   1.00
C641   C     0.13764   0.95903   0.41495   0.00000  Uiso   1.00
C642   C     0.16200   0.91299   0.49964   0.00000  Uiso   1.00
C643   C     0.19569   0.70764   0.58505   0.00000  Uiso   1.00
C644   C     0.06724   0.83079   0.48871   0.00000  Uiso   1.00
C645   C     0.26609   0.83588   0.51129   0.00000  Uiso   1.00
C646   C     0.01252   0.82216   0.48629   0.00000  Uiso   1.00
C647   C     0.32082   0.84451   0.51371   0.00000  Uiso   1.00
C648   C     0.17177   0.68709   0.45938   0.00000  Uiso   1.00
C649   C     0.16157   0.97958   0.54062   0.00000  Uiso   1.00
C650   C     0.15701   0.97869   0.45833   0.00000  Uiso   1.00
I651   I     0.31707   0.76155   0.46247   0.00000  Uiso   1.00
I652   I     0.01626   0.90511   0.53753   0.00000  Uiso   1.00
I653   I     0.25603   0.90031   0.40286   0.00000  Uiso   1.00
I654   I     0.07730   0.76635   0.59714   0.00000  Uiso   1.00
I655   I     0.25481   0.90091   0.62010   0.00000  Uiso   1.00
I656   I     0.07852   0.76576   0.37990   0.00000  Uiso   1.00
N657   N     0.16665   0.83332   0.61907   0.00000  Uiso   1.00
N658   N     0.16668   0.83334   0.38093   0.00000  Uiso   1.00
N659   N     0.19977   0.71982   0.38625   0.00000  Uiso   1.00
N660   N     0.13356   0.94684   0.61375   0.00000  Uiso   1.00
N661   N     0.12188   0.94346   0.38048   0.00000  Uiso   1.00
N662   N     0.21145   0.72321   0.61952   0.00000  Uiso   1.00
O663   O     0.16666   0.77225   0.53821   0.00000  Uiso   1.00
O664   O     0.16667   0.89442   0.46179   0.00000  Uiso   1.00
O665   O     0.16666   0.77226   0.46176   0.00000  Uiso   1.00
O666   O     0.16667   0.89441   0.53824   0.00000  Uiso   1.00
O667   O     0.09058   0.83333   0.52928   0.00000  Uiso   1.00
O668   O     0.24275   0.83334   0.47072   0.00000  Uiso   1.00
O669   O     0.09058   0.83334   0.45284   0.00000  Uiso   1.00
O670   O     0.24275   0.83333   0.54716   0.00000  Uiso   1.00
Zn671  Zn    0.16667   0.83333   0.55104   0.00000  Uiso   1.00
Zn672  Zn    0.16667   0.83334   0.44896   0.00000  Uiso   1.00
C673   C     0.50467   0.75368   0.50036   0.00000  Uiso   1.00
C674   C     0.50966   0.68797   0.54167   0.00000  Uiso   1.00
C675   C     0.49053   0.95748   0.49935   0.00000  Uiso   1.00
C676   C     0.50947   0.70919   0.50065   0.00000  Uiso   1.00
C677   C     0.53440   0.85927   0.36155   0.00000  Uiso   1.00
C678   C     0.46560   0.80740   0.63845   0.00000  Uiso   1.00
C679   C     0.53425   0.85929   0.64716   0.00000  Uiso   1.00
C680   C     0.46575   0.80738   0.35284   0.00000  Uiso   1.00
C681   C     0.52044   0.70548   0.41866   0.00000  Uiso   1.00
C682   C     0.47956   0.96119   0.58134   0.00000  Uiso   1.00
C683   C     0.47098   0.95903   0.41495   0.00000  Uiso   1.00
C684   C     0.49533   0.91299   0.49964   0.00000  Uiso   1.00
C685   C     0.52902   0.70764   0.58505   0.00000  Uiso   1.00
C686   C     0.40057   0.83079   0.48871   0.00000  Uiso   1.00
C687   C     0.59943   0.83588   0.51129   0.00000  Uiso   1.00
C688   C     0.34585   0.82216   0.48629   0.00000  Uiso   1.00
C689   C     0.65415   0.84451   0.51371   0.00000  Uiso   1.00
C690   C     0.50510   0.68709   0.45938   0.00000  Uiso   1.00
C691   C     0.49490   0.97958   0.54062   0.00000  Uiso   1.00
C692   C     0.49034   0.97869   0.45833   0.00000  Uiso   1.00
I693   I     0.65040   0.76155   0.46247   0.00000  Uiso   1.00
I694   I     0.34960   0.90511   0.53753   0.00000  Uiso   1.00
I695   I     0.58937   0.90031   0.40286   0.00000  Uiso   1.00
I696   I     0.41063   0.76635   0.59714   0.00000  Uiso   1.00
I697   I     0.58814   0.90091   0.62010   0.00000  Uiso   1.00
I698   I     0.41186   0.76576   0.37990   0.00000  Uiso   1.00
N699   N     0.49999   0.83332   0.61907   0.00000  Uiso   1.00
N700   N     0.50001   0.83334   0.38093   0.00000  Uiso   1.00
N701   N     0.53310   0.71982   0.38625   0.00000  Uiso   1.00
N702   N     0.46690   0.94684   0.61375   0.00000  Uiso   1.00
N703   N     0.45522   0.94346   0.38048   0.00000  Uiso   1.00
N704   N     0.54478   0.72321   0.61952   0.00000  Uiso   1.00
O705   O     0.50000   0.77225   0.53821   0.00000  Uiso   1.00
O706   O     0.50000   0.89442   0.46179   0.00000  Uiso   1.00
O707   O     0.50000   0.77226   0.46176   0.00000  Uiso   1.00
O708   O     0.50000   0.89441   0.53824   0.00000  Uiso   1.00
O709   O     0.42392   0.83333   0.52928   0.00000  Uiso   1.00
O710   O     0.57608   0.83334   0.47072   0.00000  Uiso   1.00
O711   O     0.42392   0.83334   0.45284   0.00000  Uiso   1.00
O712   O     0.57608   0.83333   0.54716   0.00000  Uiso   1.00
Zn713  Zn    0.50000   0.83333   0.55104   0.00000  Uiso   1.00
Zn714  Zn    0.50000   0.83334   0.44896   0.00000  Uiso   1.00
C715   C     0.83800   0.75368   0.50036   0.00000  Uiso   1.00
C716   C     0.84299   0.68797   0.54167   0.00000  Uiso   1.00
C717   C     0.82387   0.95748   0.49935   0.00000  Uiso   1.00
C718   C     0.84280   0.70919   0.50065   0.00000  Uiso   1.00
C719   C     0.86773   0.85927   0.36155   0.00000  Uiso   1.00
C720   C     0.79893   0.80740   0.63845   0.00000  Uiso   1.00
C721   C     0.86759   0.85929   0.64716   0.00000  Uiso   1.00
C722   C     0.79908   0.80738   0.35284   0.00000  Uiso   1.00
C723   C     0.85378   0.70548   0.41866   0.00000  Uiso   1.00
C724   C     0.81289   0.96119   0.58134   0.00000  Uiso   1.00
C725   C     0.80431   0.95903   0.41495   0.00000  Uiso   1.00
C726   C     0.82866   0.91299   0.49964   0.00000  Uiso   1.00
C727   C     0.86236   0.70764   0.58505   0.00000  Uiso   1.00
C728   C     0.73391   0.83079   0.48871   0.00000  Uiso   1.00
C729   C     0.93276   0.83588   0.51129   0.00000  Uiso   1.00
C730   C     0.67918   0.82216   0.48629   0.00000  Uiso   1.00
C731   C     0.98748   0.84451   0.51371   0.00000  Uiso   1.00
C732   C     0.83843   0.68709   0.45938   0.00000  Uiso   1.00
C733   C     0.82823   0.97958   0.54062   0.00000  Uiso   1.00
C734   C     0.82368   0.97869   0.45833   0.00000  Uiso   1.00
I735   I     0.98374   0.76155   0.46247   0.00000  Uiso   1.00
I736   I     0.68293   0.90511   0.53753   0.00000  Uiso   1.00
I737   I     0.92270   0.90031   0.40286   0.00000  Uiso   1.00
I738   I     0.74397   0.76635   0.59714   0.00000  Uiso   1.00
I739   I     0.92148   0.90091   0.62010   0.00000  Uiso   1.00
I740   I     0.74519   0.76576   0.37990   0.00000  Uiso   1.00
N741   N     0.83332   0.83332   0.61907   0.00000  Uiso   1.00
N742   N     0.83335   0.83334   0.38093   0.00000  Uiso   1.00
N743   N     0.86644   0.71982   0.38625   0.00000  Uiso   1.00
N744   N     0.80023   0.94684   0.61375   0.00000  Uiso   1.00
N745   N     0.78855   0.94346   0.38048   0.00000  Uiso   1.00
N746   N     0.87812   0.72321   0.61952   0.00000  Uiso   1.00
O747   O     0.83333   0.77225   0.53821   0.00000  Uiso   1.00
O748   O     0.83334   0.89442   0.46179   0.00000  Uiso   1.00
O749   O     0.83333   0.77226   0.46176   0.00000  Uiso   1.00
O750   O     0.83334   0.89441   0.53824   0.00000  Uiso   1.00
O751   O     0.75725   0.83333   0.52928   0.00000  Uiso   1.00
O752   O     0.90942   0.83334   0.47072   0.00000  Uiso   1.00
O753   O     0.75725   0.83334   0.45284   0.00000  Uiso   1.00
O754   O     0.90942   0.83333   0.54716   0.00000  Uiso   1.00
Zn755  Zn    0.83333   0.83333   0.55104   0.00000  Uiso   1.00
Zn756  Zn    0.83333   0.83334   0.44896   0.00000  Uiso   1.00
C757   C     0.17134   0.08701   0.83370   0.00000  Uiso   1.00
C758   C     0.17632   0.02131   0.87500   0.00000  Uiso   1.00
C759   C     0.15720   0.29081   0.83268   0.00000  Uiso   1.00
C760   C     0.17613   0.04252   0.83398   0.00000  Uiso   1.00
C761   C     0.20107   0.19260   0.69488   0.00000  Uiso   1.00
C762   C     0.13227   0.14073   0.97178   0.00000  Uiso   1.00
C763   C     0.20092   0.19262   0.98049   0.00000  Uiso   1.00
C764   C     0.13241   0.14071   0.68617   0.00000  Uiso   1.00
C765   C     0.18711   0.03881   0.75199   0.00000  Uiso   1.00
C766   C     0.14623   0.29452   0.91467   0.00000  Uiso   1.00
C767   C     0.13764   0.29236   0.74828   0.00000  Uiso   1.00
C768   C     0.16200   0.24632   0.83297   0.00000  Uiso   1.00
C769   C     0.19569   0.04097   0.91838   0.00000  Uiso   1.00
C770   C     0.06724   0.16412   0.82204   0.00000  Uiso   1.00
C771   C     0.26609   0.16921   0.84462   0.00000  Uiso   1.00
C772   C     0.01252   0.15550   0.81963   0.00000  Uiso   1.00
C773   C     0.32082   0.17784   0.84704   0.00000  Uiso   1.00
C774   C     0.17177   0.02042   0.79272   0.00000  Uiso   1.00
C775   C     0.16157   0.31292   0.87395   0.00000  Uiso   1.00
C776   C     0.15701   0.31203   0.79167   0.00000  Uiso   1.00
I777   I     0.31707   0.09489   0.79580   0.00000  Uiso   1.00
I778   I     0.01626   0.23845   0.87086   0.00000  Uiso   1.00
I779   I     0.25603   0.23365   0.73620   0.00000  Uiso   1.00
I780   I     0.07730   0.09969   0.93047   0.00000  Uiso   1.00
I781   I     0.25481   0.23424   0.95344   0.00000  Uiso   1.00
I782   I     0.07852   0.09909   0.71323   0.00000  Uiso   1.00
N783   N     0.16665   0.16666   0.95240   0.00000  Uiso   1.00
N784   N     0.16668   0.16668   0.71427   0.00000  Uiso   1.00
N785   N     0.19977   0.05316   0.71958   0.00000  Uiso   1.00
N786   N     0.13356   0.28018   0.94708   0.00000  Uiso   1.00
N787   N     0.12188   0.27679   0.71382   0.00000  Uiso   1.00
N788   N     0.21145   0.05654   0.95285   0.00000  Uiso   1.00
O789   O     0.16666   0.10558   0.87154   0.00000  Uiso   1.00
O790   O     0.16667   0.22775   0.79513   0.00000  Uiso   1.00
O791   O     0.16666   0.10559   0.79510   0.00000  Uiso   1.00
O792   O     0.16667   0.22774   0.87157   0.00000  Uiso   1.00
O793   O     0.09058   0.16666   0.86261   0.00000  Uiso   1.00
O794   O     0.24275   0.16667   0.80405   0.00000  Uiso   1.00
O795   O     0.09058   0.16667   0.78617   0.00000  Uiso   1.00
O796   O     0.24275   0.16666   0.88050   0.00000  Uiso   1.00
Zn797  Zn    0.16667   0.16666   0.88437   0.00000  Uiso   1.00
Zn798  Zn    0.16667   0.16667   0.78229   0.00000  Uiso   1.00
C799   C     0.50467   0.08701   0.83370   0.00000  Uiso   1.00
C800   C     0.50966   0.02131   0.87500   0.00000  Uiso   1.00
C801   C     0.49053   0.29081   0.83268   0.00000  Uiso   1.00
C802   C     0.50947   0.04252   0.83398   0.00000  Uiso   1.00
C803   C     0.53440   0.19260   0.69488   0.00000  Uiso   1.00
C804   C     0.46560   0.14073   0.97178   0.00000  Uiso   1.00
C805   C     0.53425   0.19262   0.98049   0.00000  Uiso   1.00
C806   C     0.46575   0.14071   0.68617   0.00000  Uiso   1.00
C807   C     0.52044   0.03881   0.75199   0.00000  Uiso   1.00
C808   C     0.47956   0.29452   0.91467   0.00000  Uiso   1.00
C809   C     0.47098   0.29236   0.74828   0.00000  Uiso   1.00
C810   C     0.49533   0.24632   0.83297   0.00000  Uiso   1.00
C811   C     0.52902   0.04097   0.91838   0.00000  Uiso   1.00
C812   C     0.40057   0.16412   0.82204   0.00000  Uiso   1.00
C813   C     0.59943   0.16921   0.84462   0.00000  Uiso   1.00
C814   C     0.34585   0.15550   0.81963   0.00000  Uiso   1.00
C815   C     0.65415   0.17784   0.84704   0.00000  Uiso   1.00
C816   C     0.50510   0.02042   0.79272   0.00000  Uiso   1.00
C817   C     0.49490   0.31292   0.87395   0.00000  Uiso   1.00
C818   C     0.49034   0.31203   0.79167   0.00000  Uiso   1.00
I819   I     0.65040   0.09489   0.79580   0.00000  Uiso   1.00
I820   I     0.34960   0.23845   0.87086   0.00000  Uiso   1.00
I821   I     0.58937   0.23365   0.73620   0.00000  Uiso   1.00
I822   I     0.41063   0.09969   0.93047   0.00000  Uiso   1.00
I823   I     0.58814   0.23424   0.95344   0.00000  Uiso   1.00
I824   I     0.41186   0.09909   0.71323   0.00000  Uiso   1.00
N825   N     0.49999   0.16666   0.95240   0.00000  Uiso   1.00
N826   N     0.50001   0.16668   0.71427   0.00000  Uiso   1.00
N827   N     0.53310   0.05316   0.71958   0.00000  Uiso   1.00
N828   N     0.46690   0.28018   0.94708   0.00000  Uiso   1.00
N829   N     0.45522   0.27679   0.71382   0.00000  Uiso   1.00
N830   N     0.54478   0.05654   0.95285   0.00000  Uiso   1.00
O831   O     0.50000   0.10558   0.87154   0.00000  Uiso   1.00
O832   O     0.50000   0.22775   0.79513   0.00000  Uiso   1.00
O833   O     0.50000   0.10559   0.79510   0.00000  Uiso   1.00
O834   O     0.50000   0.22774   0.87157   0.00000  Uiso   1.00
O835   O     0.42392   0.16666   0.86261   0.00000  Uiso   1.00
O836   O     0.57608   0.16667   0.80405   0.00000  Uiso   1.00
O837   O     0.42392   0.16667   0.78617   0.00000  Uiso   1.00
O838   O     0.57608   0.16666   0.88050   0.00000  Uiso   1.00
Zn839  Zn    0.50000   0.16666   0.88437   0.00000  Uiso   1.00
Zn840  Zn    0.50000   0.16667   0.78229   0.00000  Uiso   1.00
C841   C     0.83800   0.08701   0.83370   0.00000  Uiso   1.00
C842   C     0.84299   0.02131   0.87500   0.00000  Uiso   1.00
C843   C     0.82387   0.29081   0.83268   0.00000  Uiso   1.00
C844   C     0.84280   0.04252   0.83398   0.00000  Uiso   1.00
C845   C     0.86773   0.19260   0.69488   0.00000  Uiso   1.00
C846   C     0.79893   0.14073   0.97178   0.00000  Uiso   1.00
C847   C     0.86759   0.19262   0.98049   0.00000  Uiso   1.00
C848   C     0.79908   0.14071   0.68617   0.00000  Uiso   1.00
C849   C     0.85378   0.03881   0.75199   0.00000  Uiso   1.00
C850   C     0.81289   0.29452   0.91467   0.00000  Uiso   1.00
C851   C     0.80431   0.29236   0.74828   0.00000  Uiso   1.00
C852   C     0.82866   0.24632   0.83297   0.00000  Uiso   1.00
C853   C     0.86236   0.04097   0.91838   0.00000  Uiso   1.00
C854   C     0.73391   0.16412   0.82204   0.00000  Uiso   1.00
C855   C     0.93276   0.16921   0.84462   0.00000  Uiso   1.00
C856   C     0.67918   0.15550   0.81963   0.00000  Uiso   1.00
C857   C     0.98748   0.17784   0.84704   0.00000  Uiso   1.00
C858   C     0.83843   0.02042   0.79272   0.00000  Uiso   1.00
C859   C     0.82823   0.31292   0.87395   0.00000  Uiso   1.00
C860   C     0.82368   0.31203   0.79167   0.00000  Uiso   1.00
I861   I     0.98374   0.09489   0.79580   0.00000  Uiso   1.00
I862   I     0.68293   0.23845   0.87086   0.00000  Uiso   1.00
I863   I     0.92270   0.23365   0.73620   0.00000  Uiso   1.00
I864   I     0.74397   0.09969   0.93047   0.00000  Uiso   1.00
I865   I     0.92148   0.23424   0.95344   0.00000  Uiso   1.00
I866   I     0.74519   0.09909   0.71323   0.00000  Uiso   1.00
N867   N     0.83332   0.16666   0.95240   0.00000  Uiso   1.00
N868   N     0.83335   0.16668   0.71427   0.00000  Uiso   1.00
N869   N     0.86644   0.05316   0.71958   0.00000  Uiso   1.00
N870   N     0.80023   0.28018   0.94708   0.00000  Uiso   1.00
N871   N     0.78855   0.27679   0.71382   0.00000  Uiso   1.00
N872   N     0.87812   0.05654   0.95285   0.00000  Uiso   1.00
O873   O     0.83333   0.10558   0.87154   0.00000  Uiso   1.00
O874   O     0.83334   0.22775   0.79513   0.00000  Uiso   1.00
O875   O     0.83333   0.10559   0.79510   0.00000  Uiso   1.00
O876   O     0.83334   0.22774   0.87157   0.00000  Uiso   1.00
O877   O     0.75725   0.16666   0.86261   0.00000  Uiso   1.00
O878   O     0.90942   0.16667   0.80405   0.00000  Uiso   1.00
O879   O     0.75725   0.16667   0.78617   0.00000  Uiso   1.00
O880   O     0.90942   0.16666   0.88050   0.00000  Uiso   1.00
Zn881  Zn    0.83333   0.16666   0.88437   0.00000  Uiso   1.00
Zn882  Zn    0.83333   0.16667   0.78229   0.00000  Uiso   1.00
C883   C     0.17134   0.42034   0.83370   0.00000  Uiso   1.00
C884   C     0.17632   0.35464   0.87500   0.00000  Uiso   1.00
C885   C     0.15720   0.62415   0.83268   0.00000  Uiso   1.00
C886   C     0.17613   0.37585   0.83398   0.00000  Uiso   1.00
C887   C     0.20107   0.52594   0.69488   0.00000  Uiso   1.00
C888   C     0.13227   0.47406   0.97178   0.00000  Uiso   1.00
C889   C     0.20092   0.52595   0.98049   0.00000  Uiso   1.00
C890   C     0.13241   0.47405   0.68617   0.00000  Uiso   1.00
C891   C     0.18711   0.37215   0.75199   0.00000  Uiso   1.00
C892   C     0.14623   0.62785   0.91467   0.00000  Uiso   1.00
C893   C     0.13764   0.62570   0.74828   0.00000  Uiso   1.00
C894   C     0.16200   0.57966   0.83297   0.00000  Uiso   1.00
C895   C     0.19569   0.37430   0.91838   0.00000  Uiso   1.00
C896   C     0.06724   0.49746   0.82204   0.00000  Uiso   1.00
C897   C     0.26609   0.50254   0.84462   0.00000  Uiso   1.00
C898   C     0.01252   0.48883   0.81963   0.00000  Uiso   1.00
C899   C     0.32082   0.51117   0.84704   0.00000  Uiso   1.00
C900   C     0.17177   0.35375   0.79272   0.00000  Uiso   1.00
C901   C     0.16157   0.64625   0.87395   0.00000  Uiso   1.00
C902   C     0.15701   0.64536   0.79167   0.00000  Uiso   1.00
I903   I     0.31707   0.42822   0.79580   0.00000  Uiso   1.00
I904   I     0.01626   0.57178   0.87086   0.00000  Uiso   1.00
I905   I     0.25603   0.56698   0.73620   0.00000  Uiso   1.00
I906   I     0.07730   0.43302   0.93047   0.00000  Uiso   1.00
I907   I     0.25481   0.56758   0.95344   0.00000  Uiso   1.00
I908   I     0.07852   0.43243   0.71323   0.00000  Uiso   1.00
N909   N     0.16665   0.49999   0.95240   0.00000  Uiso   1.00
N910   N     0.16668   0.50001   0.71427   0.00000  Uiso   1.00
N911   N     0.19977   0.38649   0.71958   0.00000  Uiso   1.00
N912   N     0.13356   0.61351   0.94708   0.00000  Uiso   1.00
N913   N     0.12188   0.61013   0.71382   0.00000  Uiso   1.00
N914   N     0.21145   0.38987   0.95285   0.00000  Uiso   1.00
O915   O     0.16666   0.43892   0.87154   0.00000  Uiso   1.00
O916   O     0.16667   0.56108   0.79513   0.00000  Uiso   1.00
O917   O     0.16666   0.43893   0.79510   0.00000  Uiso   1.00
O918   O     0.16667   0.56107   0.87157   0.00000  Uiso   1.00
O919   O     0.09058   0.50000   0.86261   0.00000  Uiso   1.00
O920   O     0.24275   0.50000   0.80405   0.00000  Uiso   1.00
O921   O     0.09058   0.50000   0.78617   0.00000  Uiso   1.00
O922   O     0.24275   0.50000   0.88050   0.00000  Uiso   1.00
Zn923  Zn    0.16667   0.49999   0.88437   0.00000  Uiso   1.00
Zn924  Zn    0.16667   0.50001   0.78229   0.00000  Uiso   1.00
C925   C     0.50467   0.42034   0.83370   0.00000  Uiso   1.00
C926   C     0.50966   0.35464   0.87500   0.00000  Uiso   1.00
C927   C     0.49053   0.62415   0.83268   0.00000  Uiso   1.00
C928   C     0.50947   0.37585   0.83398   0.00000  Uiso   1.00
C929   C     0.53440   0.52594   0.69488   0.00000  Uiso   1.00
C930   C     0.46560   0.47406   0.97178   0.00000  Uiso   1.00
C931   C     0.53425   0.52595   0.98049   0.00000  Uiso   1.00
C932   C     0.46575   0.47405   0.68617   0.00000  Uiso   1.00
C933   C     0.52044   0.37215   0.75199   0.00000  Uiso   1.00
C934   C     0.47956   0.62785   0.91467   0.00000  Uiso   1.00
C935   C     0.47098   0.62570   0.74828   0.00000  Uiso   1.00
C936   C     0.49533   0.57966   0.83297   0.00000  Uiso   1.00
C937   C     0.52902   0.37430   0.91838   0.00000  Uiso   1.00
C938   C     0.40057   0.49746   0.82204   0.00000  Uiso   1.00
C939   C     0.59943   0.50254   0.84462   0.00000  Uiso   1.00
C940   C     0.34585   0.48883   0.81963   0.00000  Uiso   1.00
C941   C     0.65415   0.51117   0.84704   0.00000  Uiso   1.00
C942   C     0.50510   0.35375   0.79272   0.00000  Uiso   1.00
C943   C     0.49490   0.64625   0.87395   0.00000  Uiso   1.00
C944   C     0.49034   0.64536   0.79167   0.00000  Uiso   1.00
I945   I     0.65040   0.42822   0.79580   0.00000  Uiso   1.00
I946   I     0.34960   0.57178   0.87086   0.00000  Uiso   1.00
I947   I     0.58937   0.56698   0.73620   0.00000  Uiso   1.00
I948   I     0.41063   0.43302   0.93047   0.00000  Uiso   1.00
I949   I     0.58814   0.56758   0.95344   0.00000  Uiso   1.00
I950   I     0.41186   0.43243   0.71323   0.00000  Uiso   1.00
N951   N     0.49999   0.49999   0.95240   0.00000  Uiso   1.00
N952   N     0.50001   0.50001   0.71427   0.00000  Uiso   1.00
N953   N     0.53310   0.38649   0.71958   0.00000  Uiso   1.00
N954   N     0.46690   0.61351   0.94708   0.00000  Uiso   1.00
N955   N     0.45522   0.61013   0.71382   0.00000  Uiso   1.00
N956   N     0.54478   0.38987   0.95285   0.00000  Uiso   1.00
O957   O     0.50000   0.43892   0.87154   0.00000  Uiso   1.00
O958   O     0.50000   0.56108   0.79513   0.00000  Uiso   1.00
O959   O     0.50000   0.43893   0.79510   0.00000  Uiso   1.00
O960   O     0.50000   0.56107   0.87157   0.00000  Uiso   1.00
O961   O     0.42392   0.50000   0.86261   0.00000  Uiso   1.00
O962   O     0.57608   0.50000   0.80405   0.00000  Uiso   1.00
O963   O     0.42392   0.50000   0.78617   0.00000  Uiso   1.00
O964   O     0.57608   0.50000   0.88050   0.00000  Uiso   1.00
Zn965  Zn    0.50000   0.49999   0.88437   0.00000  Uiso   1.00
Zn966  Zn    0.50000   0.50001   0.78229   0.00000  Uiso   1.00
C967   C     0.83800   0.42034   0.83370   0.00000  Uiso   1.00
C968   C     0.84299   0.35464   0.87500   0.00000  Uiso   1.00
C969   C     0.82387   0.62415   0.83268   0.00000  Uiso   1.00
C970   C     0.84280   0.37585   0.83398   0.00000  Uiso   1.00
C971   C     0.86773   0.52594   0.69488   0.00000  Uiso   1.00
C972   C     0.79893   0.47406   0.97178   0.00000  Uiso   1.00
C973   C     0.86759   0.52595   0.98049   0.00000  Uiso   1.00
C974   C     0.79908   0.47405   0.68617   0.00000  Uiso   1.00
C975   C     0.85378   0.37215   0.75199   0.00000  Uiso   1.00
C976   C     0.81289   0.62785   0.91467   0.00000  Uiso   1.00
C977   C     0.80431   0.62570   0.74828   0.00000  Uiso   1.00
C978   C     0.82866   0.57966   0.83297   0.00000  Uiso   1.00
C979   C     0.86236   0.37430   0.91838   0.00000  Uiso   1.00
C980   C     0.73391   0.49746   0.82204   0.00000  Uiso   1.00
C981   C     0.93276   0.50254   0.84462   0.00000  Uiso   1.00
C982   C     0.67918   0.48883   0.81963   0.00000  Uiso   1.00
C983   C     0.98748   0.51117   0.84704   0.00000  Uiso   1.00
C984   C     0.83843   0.35375   0.79272   0.00000  Uiso   1.00
C985   C     0.82823   0.64625   0.87395   0.00000  Uiso   1.00
C986   C     0.82368   0.64536   0.79167   0.00000  Uiso   1.00
I987   I     0.98374   0.42822   0.79580   0.00000  Uiso   1.00
I988   I     0.68293   0.57178   0.87086   0.00000  Uiso   1.00
I989   I     0.92270   0.56698   0.73620   0.00000  Uiso   1.00
I990   I     0.74397   0.43302   0.93047   0.00000  Uiso   1.00
I991   I     0.92148   0.56758   0.95344   0.00000  Uiso   1.00
I992   I     0.74519   0.43243   0.71323   0.00000  Uiso   1.00
N993   N     0.83332   0.49999   0.95240   0.00000  Uiso   1.00
N994   N     0.83335   0.50001   0.71427   0.00000  Uiso   1.00
N995   N     0.86644   0.38649   0.71958   0.00000  Uiso   1.00
N996   N     0.80023   0.61351   0.94708   0.00000  Uiso   1.00
N997   N     0.78855   0.61013   0.71382   0.00000  Uiso   1.00
N998   N     0.87812   0.38987   0.95285   0.00000  Uiso   1.00
O999   O     0.83333   0.43892   0.87154   0.00000  Uiso   1.00
O1000  O     0.83334   0.56108   0.79513   0.00000  Uiso   1.00
O1001  O     0.83333   0.43893   0.79510   0.00000  Uiso   1.00
O1002  O     0.83334   0.56107   0.87157   0.00000  Uiso   1.00
O1003  O     0.75725   0.50000   0.86261   0.00000  Uiso   1.00
O1004  O     0.90942   0.50000   0.80405   0.00000  Uiso   1.00
O1005  O     0.75725   0.50000   0.78617   0.00000  Uiso   1.00
O1006  O     0.90942   0.50000   0.88050   0.00000  Uiso   1.00
Zn1007 Zn    0.83333   0.49999   0.88437   0.00000  Uiso   1.00
Zn1008 Zn    0.83333   0.50001   0.78229   0.00000  Uiso   1.00
C1009  C     0.17134   0.75368   0.83370   0.00000  Uiso   1.00
C1010  C     0.17632   0.68797   0.87500   0.00000  Uiso   1.00
C1011  C     0.15720   0.95748   0.83268   0.00000  Uiso   1.00
C1012  C     0.17613   0.70919   0.83398   0.00000  Uiso   1.00
C1013  C     0.20107   0.85927   0.69488   0.00000  Uiso   1.00
C1014  C     0.13227   0.80740   0.97178   0.00000  Uiso   1.00
C1015  C     0.20092   0.85929   0.98049   0.00000  Uiso   1.00
C1016  C     0.13241   0.80738   0.68617   0.00000  Uiso   1.00
C1017  C     0.18711   0.70548   0.75199   0.00000  Uiso   1.00
C1018  C     0.14623   0.96119   0.91467   0.00000  Uiso   1.00
C1019  C     0.13764   0.95903   0.74828   0.00000  Uiso   1.00
C1020  C     0.16200   0.91299   0.83297   0.00000  Uiso   1.00
C1021  C     0.19569   0.70764   0.91838   0.00000  Uiso   1.00
C1022  C     0.06724   0.83079   0.82204   0.00000  Uiso   1.00
C1023  C     0.26609   0.83588   0.84462   0.00000  Uiso   1.00
C1024  C     0.01252   0.82216   0.81963   0.00000  Uiso   1.00
C1025  C     0.32082   0.84451   0.84704   0.00000  Uiso   1.00
C1026  C     0.17177   0.68709   0.79272   0.00000  Uiso   1.00
C1027  C     0.16157   0.97958   0.87395   0.00000  Uiso   1.00
C1028  C     0.15701   0.97869   0.79167   0.00000  Uiso   1.00
I1029  I     0.31707   0.76155   0.79580   0.00000  Uiso   1.00
I1030  I     0.01626   0.90511   0.87086   0.00000  Uiso   1.00
I1031  I     0.25603   0.90031   0.73620   0.00000  Uiso   1.00
I1032  I     0.07730   0.76635   0.93047   0.00000  Uiso   1.00
I1033  I     0.25481   0.90091   0.95344   0.00000  Uiso   1.00
I1034  I     0.07852   0.76576   0.71323   0.00000  Uiso   1.00
N1035  N     0.16665   0.83332   0.95240   0.00000  Uiso   1.00
N1036  N     0.16668   0.83334   0.71427   0.00000  Uiso   1.00
N1037  N     0.19977   0.71982   0.71958   0.00000  Uiso   1.00
N1038  N     0.13356   0.94684   0.94708   0.00000  Uiso   1.00
N1039  N     0.12188   0.94346   0.71382   0.00000  Uiso   1.00
N1040  N     0.21145   0.72321   0.95285   0.00000  Uiso   1.00
O1041  O     0.16666   0.77225   0.87154   0.00000  Uiso   1.00
O1042  O     0.16667   0.89442   0.79513   0.00000  Uiso   1.00
O1043  O     0.16666   0.77226   0.79510   0.00000  Uiso   1.00
O1044  O     0.16667   0.89441   0.87157   0.00000  Uiso   1.00
O1045  O     0.09058   0.83333   0.86261   0.00000  Uiso   1.00
O1046  O     0.24275   0.83334   0.80405   0.00000  Uiso   1.00
O1047  O     0.09058   0.83334   0.78617   0.00000  Uiso   1.00
O1048  O     0.24275   0.83333   0.88050   0.00000  Uiso   1.00
Zn1049 Zn    0.16667   0.83333   0.88437   0.00000  Uiso   1.00
Zn1050 Zn    0.16667   0.83334   0.78229   0.00000  Uiso   1.00
C1051  C     0.50467   0.75368   0.83370   0.00000  Uiso   1.00
C1052  C     0.50966   0.68797   0.87500   0.00000  Uiso   1.00
C1053  C     0.49053   0.95748   0.83268   0.00000  Uiso   1.00
C1054  C     0.50947   0.70919   0.83398   0.00000  Uiso   1.00
C1055  C     0.53440   0.85927   0.69488   0.00000  Uiso   1.00
C1056  C     0.46560   0.80740   0.97178   0.00000  Uiso   1.00
C1057  C     0.53425   0.85929   0.98049   0.00000  Uiso   1.00
C1058  C     0.46575   0.80738   0.68617   0.00000  Uiso   1.00
C1059  C     0.52044   0.70548   0.75199   0.00000  Uiso   1.00
C1060  C     0.47956   0.96119   0.91467   0.00000  Uiso   1.00
C1061  C     0.47098   0.95903   0.74828   0.00000  Uiso   1.00
C1062  C     0.49533   0.91299   0.83297   0.00000  Uiso   1.00
C1063  C     0.52902   0.70764   0.91838   0.00000  Uiso   1.00
C1064  C     0.40057   0.83079   0.82204   0.00000  Uiso   1.00
C1065  C     0.59943   0.83588   0.84462   0.00000  Uiso   1.00
C1066  C     0.34585   0.82216   0.81963   0.00000  Uiso   1.00
C1067  C     0.65415   0.84451   0.84704   0.00000  Uiso   1.00
C1068  C     0.50510   0.68709   0.79272   0.00000  Uiso   1.00
C1069  C     0.49490   0.97958   0.87395   0.00000  Uiso   1.00
C1070  C     0.49034   0.97869   0.79167   0.00000  Uiso   1.00
I1071  I     0.65040   0.76155   0.79580   0.00000  Uiso   1.00
I1072  I     0.34960   0.90511   0.87086   0.00000  Uiso   1.00
I1073  I     0.58937   0.90031   0.73620   0.00000  Uiso   1.00
I1074  I     0.41063   0.76635   0.93047   0.00000  Uiso   1.00
I1075  I     0.58814   0.90091   0.95344   0.00000  Uiso   1.00
I1076  I     0.41186   0.76576   0.71323   0.00000  Uiso   1.00
N1077  N     0.49999   0.83332   0.95240   0.00000  Uiso   1.00
N1078  N     0.50001   0.83334   0.71427   0.00000  Uiso   1.00
N1079  N     0.53310   0.71982   0.71958   0.00000  Uiso   1.00
N1080  N     0.46690   0.94684   0.94708   0.00000  Uiso   1.00
N1081  N     0.45522   0.94346   0.71382   0.00000  Uiso   1.00
N1082  N     0.54478   0.72321   0.95285   0.00000  Uiso   1.00
O1083  O     0.50000   0.77225   0.87154   0.00000  Uiso   1.00
O1084  O     0.50000   0.89442   0.79513   0.00000  Uiso   1.00
O1085  O     0.50000   0.77226   0.79510   0.00000  Uiso   1.00
O1086  O     0.50000   0.89441   0.87157   0.00000  Uiso   1.00
O1087  O     0.42392   0.83333   0.86261   0.00000  Uiso   1.00
O1088  O     0.57608   0.83334   0.80405   0.00000  Uiso   1.00
O1089  O     0.42392   0.83334   0.78617   0.00000  Uiso   1.00
O1090  O     0.57608   0.83333   0.88050   0.00000  Uiso   1.00
Zn1091 Zn    0.50000   0.83333   0.88437   0.00000  Uiso   1.00
Zn1092 Zn    0.50000   0.83334   0.78229   0.00000  Uiso   1.00
C1093  C     0.83800   0.75368   0.83370   0.00000  Uiso   1.00
C1094  C     0.84299   0.68797   0.87500   0.00000  Uiso   1.00
C1095  C     0.82387   0.95748   0.83268   0.00000  Uiso   1.00
C1096  C     0.84280   0.70919   0.83398   0.00000  Uiso   1.00
C1097  C     0.86773   0.85927   0.69488   0.00000  Uiso   1.00
C1098  C     0.79893   0.80740   0.97178   0.00000  Uiso   1.00
C1099  C     0.86759   0.85929   0.98049   0.00000  Uiso   1.00
C1100  C     0.79908   0.80738   0.68617   0.00000  Uiso   1.00
C1101  C     0.85378   0.70548   0.75199   0.00000  Uiso   1.00
C1102  C     0.81289   0.96119   0.91467   0.00000  Uiso   1.00
C1103  C     0.80431   0.95903   0.74828   0.00000  Uiso   1.00
C1104  C     0.82866   0.91299   0.83297   0.00000  Uiso   1.00
C1105  C     0.86236   0.70764   0.91838   0.00000  Uiso   1.00
C1106  C     0.73391   0.83079   0.82204   0.00000  Uiso   1.00
C1107  C     0.93276   0.83588   0.84462   0.00000  Uiso   1.00
C1108  C     0.67918   0.82216   0.81963   0.00000  Uiso   1.00
C1109  C     0.98748   0.84451   0.84704   0.00000  Uiso   1.00
C1110  C     0.83843   0.68709   0.79272   0.00000  Uiso   1.00
C1111  C     0.82823   0.97958   0.87395   0.00000  Uiso   1.00
C1112  C     0.82368   0.97869   0.79167   0.00000  Uiso   1.00
I1113  I     0.98374   0.76155   0.79580   0.00000  Uiso   1.00
I1114  I     0.68293   0.90511   0.87086   0.00000  Uiso   1.00
I1115  I     0.92270   0.90031   0.73620   0.00000  Uiso   1.00
I1116  I     0.74397   0.76635   0.93047   0.00000  Uiso   1.00
I1117  I     0.92148   0.90091   0.95344   0.00000  Uiso   1.00
I1118  I     0.74519   0.76576   0.71323   0.00000  Uiso   1.00
N1119  N     0.83332   0.83332   0.95240   0.00000  Uiso   1.00
N1120  N     0.83335   0.83334   0.71427   0.00000  Uiso   1.00
N1121  N     0.86644   0.71982   0.71958   0.00000  Uiso   1.00
N1122  N     0.80023   0.94684   0.94708   0.00000  Uiso   1.00
N1123  N     0.78855   0.94346   0.71382   0.00000  Uiso   1.00
N1124  N     0.87812   0.72321   0.95285   0.00000  Uiso   1.00
O1125  O     0.83333   0.77225   0.87154   0.00000  Uiso   1.00
O1126  O     0.83334   0.89442   0.79513   0.00000  Uiso   1.00
O1127  O     0.83333   0.77226   0.79510   0.00000  Uiso   1.00
O1128  O     0.83334   0.89441   0.87157   0.00000  Uiso   1.00
O1129  O     0.75725   0.83333   0.86261   0.00000  Uiso   1.00
O1130  O     0.90942   0.83334   0.80405   0.00000  Uiso   1.00
O1131  O     0.75725   0.83334   0.78617   0.00000  Uiso   1.00
O1132  O     0.90942   0.83333   0.88050   0.00000  Uiso   1.00
Zn1133 Zn    0.83333   0.83333   0.88437   0.00000  Uiso   1.00
Zn1134 Zn    0.83333   0.83334   0.78229   0.00000  Uiso   1.00
loop_
_geom_bond_atom_site_label_1
_geom_bond_atom_site_label_2
_geom_bond_distance
_geom_bond_site_symmetry_2
_ccdc_geom_bond_type
C1     C4      1.450   .     S
C1     O33     1.301   .     A
C1     O35     1.300   .     A
C2     C4      1.410   .     A
C2     C13     1.455   .     S
C2     C271    1.381   1_545 S
C3     C19     1.411   .     A
C3     C20     1.410   .     A
C3     C12     1.450   .     S
C4     C18     1.411   .     A
C5     N28     1.374   .     A
C5     I23     2.141   .     S
C5     C763    1.428   1_554 S
C6     I24     2.141   .     S
C6     N27     1.374   .     A
C6     C386    1.428   .     S
C7     N27     1.377   .     A
C7     I25     2.123   .     S
C7     C383    1.428   .     S
C8     I26     2.123   .     S
C8     N28     1.377   .     A
C8     C762    1.428   1_554 S
C9     N29     1.157   .     T
C9     C18     1.453   .     S
C10    C19     1.453   .     S
C10    N30     1.157   .     T
C11    N31     1.157   .     T
C11    C20     1.455   .     S
C12    O36     1.300   .     A
C12    O34     1.301   .     A
C13    N32     1.157   .     T
C14    O39     1.300   .     A
C14    O37     1.278   .     A
C14    C16     1.408   .     S
C15    O38     1.278   .     A
C15    O40     1.300   .     A
C15    C17     1.408   .     S
C16    C101    1.338   1_455 S
C16    I105    2.141   1_455 S
C17    C58     1.338   .     S
C17    I64     2.141   .     S
C18    C272    1.381   1_545 S
C19    C128    1.381   .     S
C20    C144    1.381   .     S
I21    C58     2.141   .     S
I22    C101    2.141   1_455 S
N27    Zn41    2.036   .     S
N28    Zn42    2.036   .     S
O33    Zn41    2.009   .     S
O34    Zn42    2.009   .     S
O35    Zn42    2.014   .     S
O36    Zn41    2.014   .     S
O37    Zn41    1.969   .     S
O38    Zn42    1.969   .     S
O39    Zn42    1.969   .     S
O40    Zn41    1.969   .     S
C43    C46     1.450   .     S
C43    O75     1.301   .     A
C43    O77     1.300   .     A
C44    C46     1.410   .     A
C44    C55     1.455   .     S
C44    C313    1.381   1_545 S
C45    C61     1.411   .     A
C45    C62     1.410   .     A
C45    C54     1.450   .     S
C46    C60     1.411   .     A
C47    N70     1.374   .     A
C47    I65     2.141   .     S
C47    C805    1.428   1_554 S
C48    I66     2.141   .     S
C48    N69     1.374   .     A
C48    C428    1.428   .     S
C49    N69     1.377   .     A
C49    I67     2.123   .     S
C49    C425    1.428   .     S
C50    I68     2.123   .     S
C50    N70     1.377   .     A
C50    C804    1.428   1_554 S
C51    N71     1.157   .     T
C51    C60     1.453   .     S
C52    C61     1.453   .     S
C52    N72     1.157   .     T
C53    N73     1.157   .     T
C53    C62     1.455   .     S
C54    O78     1.300   .     A
C54    O76     1.301   .     A
C55    N74     1.157   .     T
C56    O81     1.300   .     A
C56    O79     1.278   .     A
C56    C58     1.408   .     S
C57    O80     1.278   .     A
C57    O82     1.300   .     A
C57    C59     1.408   .     S
C59    C100    1.338   .     S
C59    I106    2.141   .     S
C60    C314    1.381   1_545 S
C61    C170    1.381   .     S
C62    C186    1.381   .     S
I63    C100    2.141   .     S
N69    Zn83    2.036   .     S
N70    Zn84    2.036   .     S
O75    Zn83    2.009   .     S
O76    Zn84    2.009   .     S
O77    Zn84    2.014   .     S
O78    Zn83    2.014   .     S
O79    Zn83    1.969   .     S
O80    Zn84    1.969   .     S
O81    Zn84    1.969   .     S
O82    Zn83    1.969   .     S
C85    C88     1.450   .     S
C85    O117    1.301   .     A
C85    O119    1.300   .     A
C86    C88     1.410   .     A
C86    C97     1.455   .     S
C86    C355    1.381   1_545 S
C87    C103    1.411   .     A
C87    C104    1.410   .     A
C87    C96     1.450   .     S
C88    C102    1.411   .     A
C89    N112    1.374   .     A
C89    I107    2.141   .     S
C89    C847    1.428   1_554 S
C90    I108    2.141   .     S
C90    N111    1.374   .     A
C90    C470    1.428   .     S
C91    N111    1.377   .     A
C91    I109    2.123   .     S
C91    C467    1.428   .     S
C92    I110    2.123   .     S
C92    N112    1.377   .     A
C92    C846    1.428   1_554 S
C93    N113    1.157   .     T
C93    C102    1.453   .     S
C94    C103    1.453   .     S
C94    N114    1.157   .     T
C95    N115    1.157   .     T
C95    C104    1.455   .     S
C96    O120    1.300   .     A
C96    O118    1.301   .     A
C97    N116    1.157   .     T
C98    O123    1.300   .     A
C98    O121    1.278   .     A
C98    C100    1.408   .     S
C99    O122    1.278   .     A
C99    O124    1.300   .     A
C99    C101    1.408   .     S
C101   C16     1.338   1_655 S
C101   I22     2.141   1_655 S
C102   C356    1.381   1_545 S
C103   C212    1.381   .     S
C104   C228    1.381   .     S
I105   C16     2.141   1_655 S
N111   Zn125   2.036   .     S
N112   Zn126   2.036   .     S
O117   Zn125   2.009   .     S
O118   Zn126   2.009   .     S
O119   Zn126   2.014   .     S
O120   Zn125   2.014   .     S
O121   Zn125   1.969   .     S
O122   Zn126   1.969   .     S
O123   Zn126   1.969   .     S
O124   Zn125   1.969   .     S
C127   C130    1.450   .     S
C127   O159    1.301   .     A
C127   O161    1.300   .     A
C128   C130    1.410   .     A
C128   C139    1.455   .     S
C129   C145    1.411   .     A
C129   C146    1.410   .     A
C129   C138    1.450   .     S
C130   C144    1.411   .     A
C131   N154    1.374   .     A
C131   I149    2.141   .     S
C131   C889    1.428   1_554 S
C132   I150    2.141   .     S
C132   N153    1.374   .     A
C132   C512    1.428   .     S
C133   N153    1.377   .     A
C133   I151    2.123   .     S
C133   C509    1.428   .     S
C134   I152    2.123   .     S
C134   N154    1.377   .     A
C134   C888    1.428   1_554 S
C135   N155    1.157   .     T
C135   C144    1.453   .     S
C136   C145    1.453   .     S
C136   N156    1.157   .     T
C137   N157    1.157   .     T
C137   C146    1.455   .     S
C138   O162    1.300   .     A
C138   O160    1.301   .     A
C139   N158    1.157   .     T
C140   O165    1.300   .     A
C140   O163    1.278   .     A
C140   C142    1.408   .     S
C141   O164    1.278   .     A
C141   O166    1.300   .     A
C141   C143    1.408   .     S
C142   C227    1.338   1_455 S
C142   I231    2.141   1_455 S
C143   C184    1.338   .     S
C143   I190    2.141   .     S
C145   C254    1.381   .     S
C146   C270    1.381   .     S
I147   C184    2.141   .     S
I148   C227    2.141   1_455 S
N153   Zn167   2.036   .     S
N154   Zn168   2.036   .     S
O159   Zn167   2.009   .     S
O160   Zn168   2.009   .     S
O161   Zn168   2.014   .     S
O162   Zn167   2.014   .     S
O163   Zn167   1.969   .     S
O164   Zn168   1.969   .     S
O165   Zn168   1.969   .     S
O166   Zn167   1.969   .     S
C169   C172    1.450   .     S
C169   O201    1.301   .     A
C169   O203    1.300   .     A
C170   C172    1.410   .     A
C170   C181    1.455   .     S
C171   C187    1.411   .     A
C171   C188    1.410   .     A
C171   C180    1.450   .     S
C172   C186    1.411   .     A
C173   N196    1.374   .     A
C173   I191    2.141   .     S
C173   C931    1.428   1_554 S
C174   I192    2.141   .     S
C174   N195    1.374   .     A
C174   C554    1.428   .     S
C175   N195    1.377   .     A
C175   I193    2.123   .     S
C175   C551    1.428   .     S
C176   I194    2.123   .     S
C176   N196    1.377   .     A
C176   C930    1.428   1_554 S
C177   N197    1.157   .     T
C177   C186    1.453   .     S
C178   C187    1.453   .     S
C178   N198    1.157   .     T
C179   N199    1.157   .     T
C179   C188    1.455   .     S
C180   O204    1.300   .     A
C180   O202    1.301   .     A
C181   N200    1.157   .     T
C182   O207    1.300   .     A
C182   O205    1.278   .     A
C182   C184    1.408   .     S
C183   O206    1.278   .     A
C183   O208    1.300   .     A
C183   C185    1.408   .     S
C185   C226    1.338   .     S
C185   I232    2.141   .     S
C187   C296    1.381   .     S
C188   C312    1.381   .     S
I189   C226    2.141   .     S
N195   Zn209   2.036   .     S
N196   Zn210   2.036   .     S
O201   Zn209   2.009   .     S
O202   Zn210   2.009   .     S
O203   Zn210   2.014   .     S
O204   Zn209   2.014   .     S
O205   Zn209   1.969   .     S
O206   Zn210   1.969   .     S
O207   Zn210   1.969   .     S
O208   Zn209   1.969   .     S
C211   C214    1.450   .     S
C211   O243    1.301   .     A
C211   O245    1.300   .     A
C212   C214    1.410   .     A
C212   C223    1.455   .     S
C213   C229    1.411   .     A
C213   C230    1.410   .     A
C213   C222    1.450   .     S
C214   C228    1.411   .     A
C215   N238    1.374   .     A
C215   I233    2.141   .     S
C215   C973    1.428   1_554 S
C216   I234    2.141   .     S
C216   N237    1.374   .     A
C216   C596    1.428   .     S
C217   N237    1.377   .     A
C217   I235    2.123   .     S
C217   C593    1.428   .     S
C218   I236    2.123   .     S
C218   N238    1.377   .     A
C218   C972    1.428   1_554 S
C219   N239    1.157   .     T
C219   C228    1.453   .     S
C220   C229    1.453   .     S
C220   N240    1.157   .     T
C221   N241    1.157   .     T
C221   C230    1.455   .     S
C222   O246    1.300   .     A
C222   O244    1.301   .     A
C223   N242    1.157   .     T
C224   O249    1.300   .     A
C224   O247    1.278   .     A
C224   C226    1.408   .     S
C225   O248    1.278   .     A
C225   O250    1.300   .     A
C225   C227    1.408   .     S
C227   C142    1.338   1_655 S
C227   I148    2.141   1_655 S
C229   C338    1.381   .     S
C230   C354    1.381   .     S
I231   C142    2.141   1_655 S
N237   Zn251   2.036   .     S
N238   Zn252   2.036   .     S
O243   Zn251   2.009   .     S
O244   Zn252   2.009   .     S
O245   Zn252   2.014   .     S
O246   Zn251   2.014   .     S
O247   Zn251   1.969   .     S
O248   Zn252   1.969   .     S
O249   Zn252   1.969   .     S
O250   Zn251   1.969   .     S
C253   C256    1.450   .     S
C253   O285    1.301   .     A
C253   O287    1.300   .     A
C254   C256    1.410   .     A
C254   C265    1.455   .     S
C255   C271    1.411   .     A
C255   C272    1.410   .     A
C255   C264    1.450   .     S
C256   C270    1.411   .     A
C257   N280    1.374   .     A
C257   I275    2.141   .     S
C257   C1015   1.428   1_554 S
C258   I276    2.141   .     S
C258   N279    1.374   .     A
C258   C638    1.428   .     S
C259   N279    1.377   .     A
C259   I277    2.123   .     S
C259   C635    1.428   .     S
C260   I278    2.123   .     S
C260   N280    1.377   .     A
C260   C1014   1.428   1_554 S
C261   N281    1.157   .     T
C261   C270    1.453   .     S
C262   C271    1.453   .     S
C262   N282    1.157   .     T
C263   N283    1.157   .     T
C263   C272    1.455   .     S
C264   O288    1.300   .     A
C264   O286    1.301   .     A
C265   N284    1.157   .     T
C266   O291    1.300   .     A
C266   O289    1.278   .     A
C266   C268    1.408   .     S
C267   O290    1.278   .     A
C267   O292    1.300   .     A
C267   C269    1.408   .     S
C268   C353    1.338   1_455 S
C268   I357    2.141   1_455 S
C269   C310    1.338   .     S
C269   I316    2.141   .     S
C271   C2      1.381   1_565 S
C272   C18     1.381   1_565 S
I273   C310    2.141   .     S
I274   C353    2.141   1_455 S
N279   Zn293   2.036   .     S
N280   Zn294   2.036   .     S
O285   Zn293   2.009   .     S
O286   Zn294   2.009   .     S
O287   Zn294   2.014   .     S
O288   Zn293   2.014   .     S
O289   Zn293   1.969   .     S
O290   Zn294   1.969   .     S
O291   Zn294   1.969   .     S
O292   Zn293   1.969   .     S
C295   C298    1.450   .     S
C295   O327    1.301   .     A
C295   O329    1.300   .     A
C296   C298    1.410   .     A
C296   C307    1.455   .     S
C297   C313    1.411   .     A
C297   C314    1.410   .     A
C297   C306    1.450   .     S
C298   C312    1.411   .     A
C299   N322    1.374   .     A
C299   I317    2.141   .     S
C299   C1057   1.428   1_554 S
C300   I318    2.141   .     S
C300   N321    1.374   .     A
C300   C680    1.428   .     S
C301   N321    1.377   .     A
C301   I319    2.123   .     S
C301   C677    1.428   .     S
C302   I320    2.123   .     S
C302   N322    1.377   .     A
C302   C1056   1.428   1_554 S
C303   N323    1.157   .     T
C303   C312    1.453   .     S
C304   C313    1.453   .     S
C304   N324    1.157   .     T
C305   N325    1.157   .     T
C305   C314    1.455   .     S
C306   O330    1.300   .     A
C306   O328    1.301   .     A
C307   N326    1.157   .     T
C308   O333    1.300   .     A
C308   O331    1.278   .     A
C308   C310    1.408   .     S
C309   O332    1.278   .     A
C309   O334    1.300   .     A
C309   C311    1.408   .     S
C311   C352    1.338   .     S
C311   I358    2.141   .     S
C313   C44     1.381   1_565 S
C314   C60     1.381   1_565 S
I315   C352    2.141   .     S
N321   Zn335   2.036   .     S
N322   Zn336   2.036   .     S
O327   Zn335   2.009   .     S
O328   Zn336   2.009   .     S
O329   Zn336   2.014   .     S
O330   Zn335   2.014   .     S
O331   Zn335   1.969   .     S
O332   Zn336   1.969   .     S
O333   Zn336   1.969   .     S
O334   Zn335   1.969   .     S
C337   C340    1.450   .     S
C337   O369    1.301   .     A
C337   O371    1.300   .     A
C338   C340    1.410   .     A
C338   C349    1.455   .     S
C339   C355    1.411   .     A
C339   C356    1.410   .     A
C339   C348    1.450   .     S
C340   C354    1.411   .     A
C341   N364    1.374   .     A
C341   I359    2.141   .     S
C341   C1099   1.428   1_554 S
C342   I360    2.141   .     S
C342   N363    1.374   .     A
C342   C722    1.428   .     S
C343   N363    1.377   .     A
C343   I361    2.123   .     S
C343   C719    1.428   .     S
C344   I362    2.123   .     S
C344   N364    1.377   .     A
C344   C1098   1.428   1_554 S
C345   N365    1.157   .     T
C345   C354    1.453   .     S
C346   C355    1.453   .     S
C346   N366    1.157   .     T
C347   N367    1.157   .     T
C347   C356    1.455   .     S
C348   O372    1.300   .     A
C348   O370    1.301   .     A
C349   N368    1.157   .     T
C350   O375    1.300   .     A
C350   O373    1.278   .     A
C350   C352    1.408   .     S
C351   O374    1.278   .     A
C351   O376    1.300   .     A
C351   C353    1.408   .     S
C353   C268    1.338   1_655 S
C353   I274    2.141   1_655 S
C355   C86     1.381   1_565 S
C356   C102    1.381   1_565 S
I357   C268    2.141   1_655 S
N363   Zn377   2.036   .     S
N364   Zn378   2.036   .     S
O369   Zn377   2.009   .     S
O370   Zn378   2.009   .     S
O371   Zn378   2.014   .     S
O372   Zn377   2.014   .     S
O373   Zn377   1.969   .     S
O374   Zn378   1.969   .     S
O375   Zn378   1.969   .     S
O376   Zn377   1.969   .     S
C379   C382    1.450   .     S
C379   O411    1.301   .     A
C379   O413    1.300   .     A
C380   C382    1.410   .     A
C380   C391    1.455   .     S
C380   C649    1.381   1_545 S
C381   C397    1.411   .     A
C381   C398    1.410   .     A
C381   C390    1.450   .     S
C382   C396    1.411   .     A
C383   N406    1.374   .     A
C383   I401    2.141   .     S
C384   I402    2.141   .     S
C384   N405    1.374   .     A
C384   C764    1.428   .     S
C385   N405    1.377   .     A
C385   I403    2.123   .     S
C385   C761    1.428   .     S
C386   I404    2.123   .     S
C386   N406    1.377   .     A
C387   N407    1.157   .     T
C387   C396    1.453   .     S
C388   C397    1.453   .     S
C388   N408    1.157   .     T
C389   N409    1.157   .     T
C389   C398    1.455   .     S
C390   O414    1.300   .     A
C390   O412    1.301   .     A
C391   N410    1.157   .     T
C392   O417    1.300   .     A
C392   O415    1.278   .     A
C392   C394    1.408   .     S
C393   O416    1.278   .     A
C393   O418    1.300   .     A
C393   C395    1.408   .     S
C394   C479    1.338   1_455 S
C394   I483    2.141   1_455 S
C395   C436    1.338   .     S
C395   I442    2.141   .     S
C396   C650    1.381   1_545 S
C397   C506    1.381   .     S
C398   C522    1.381   .     S
I399   C436    2.141   .     S
I400   C479    2.141   1_455 S
N405   Zn419   2.036   .     S
N406   Zn420   2.036   .     S
O411   Zn419   2.009   .     S
O412   Zn420   2.009   .     S
O413   Zn420   2.014   .     S
O414   Zn419   2.014   .     S
O415   Zn419   1.969   .     S
O416   Zn420   1.969   .     S
O417   Zn420   1.969   .     S
O418   Zn419   1.969   .     S
C421   C424    1.450   .     S
C421   O453    1.301   .     A
C421   O455    1.300   .     A
C422   C424    1.410   .     A
C422   C433    1.455   .     S
C422   C691    1.381   1_545 S
C423   C439    1.411   .     A
C423   C440    1.410   .     A
C423   C432    1.450   .     S
C424   C438    1.411   .     A
C425   N448    1.374   .     A
C425   I443    2.141   .     S
C426   I444    2.141   .     S
C426   N447    1.374   .     A
C426   C806    1.428   .     S
C427   N447    1.377   .     A
C427   I445    2.123   .     S
C427   C803    1.428   .     S
C428   I446    2.123   .     S
C428   N448    1.377   .     A
C429   N449    1.157   .     T
C429   C438    1.453   .     S
C430   C439    1.453   .     S
C430   N450    1.157   .     T
C431   N451    1.157   .     T
C431   C440    1.455   .     S
C432   O456    1.300   .     A
C432   O454    1.301   .     A
C433   N452    1.157   .     T
C434   O459    1.300   .     A
C434   O457    1.278   .     A
C434   C436    1.408   .     S
C435   O458    1.278   .     A
C435   O460    1.300   .     A
C435   C437    1.408   .     S
C437   C478    1.338   .     S
C437   I484    2.141   .     S
C438   C692    1.381   1_545 S
C439   C548    1.381   .     S
C440   C564    1.381   .     S
I441   C478    2.141   .     S
N447   Zn461   2.036   .     S
N448   Zn462   2.036   .     S
O453   Zn461   2.009   .     S
O454   Zn462   2.009   .     S
O455   Zn462   2.014   .     S
O456   Zn461   2.014   .     S
O457   Zn461   1.969   .     S
O458   Zn462   1.969   .     S
O459   Zn462   1.969   .     S
O460   Zn461   1.969   .     S
C463   C466    1.450   .     S
C463   O495    1.301   .     A
C463   O497    1.300   .     A
C464   C466    1.410   .     A
C464   C475    1.455   .     S
C464   C733    1.381   1_545 S
C465   C481    1.411   .     A
C465   C482    1.410   .     A
C465   C474    1.450   .     S
C466   C480    1.411   .     A
C467   N490    1.374   .     A
C467   I485    2.141   .     S
C468   I486    2.141   .     S
C468   N489    1.374   .     A
C468   C848    1.428   .     S
C469   N489    1.377   .     A
C469   I487    2.123   .     S
C469   C845    1.428   .     S
C470   I488    2.123   .     S
C470   N490    1.377   .     A
C471   N491    1.157   .     T
C471   C480    1.453   .     S
C472   C481    1.453   .     S
C472   N492    1.157   .     T
C473   N493    1.157   .     T
C473   C482    1.455   .     S
C474   O498    1.300   .     A
C474   O496    1.301   .     A
C475   N494    1.157   .     T
C476   O501    1.300   .     A
C476   O499    1.278   .     A
C476   C478    1.408   .     S
C477   O500    1.278   .     A
C477   O502    1.300   .     A
C477   C479    1.408   .     S
C479   C394    1.338   1_655 S
C479   I400    2.141   1_655 S
C480   C734    1.381   1_545 S
C481   C590    1.381   .     S
C482   C606    1.381   .     S
I483   C394    2.141   1_655 S
N489   Zn503   2.036   .     S
N490   Zn504   2.036   .     S
O495   Zn503   2.009   .     S
O496   Zn504   2.009   .     S
O497   Zn504   2.014   .     S
O498   Zn503   2.014   .     S
O499   Zn503   1.969   .     S
O500   Zn504   1.969   .     S
O501   Zn504   1.969   .     S
O502   Zn503   1.969   .     S
C505   C508    1.450   .     S
C505   O537    1.301   .     A
C505   O539    1.300   .     A
C506   C508    1.410   .     A
C506   C517    1.455   .     S
C507   C523    1.411   .     A
C507   C524    1.410   .     A
C507   C516    1.450   .     S
C508   C522    1.411   .     A
C509   N532    1.374   .     A
C509   I527    2.141   .     S
C510   I528    2.141   .     S
C510   N531    1.374   .     A
C510   C890    1.428   .     S
C511   N531    1.377   .     A
C511   I529    2.123   .     S
C511   C887    1.428   .     S
C512   I530    2.123   .     S
C512   N532    1.377   .     A
C513   N533    1.157   .     T
C513   C522    1.453   .     S
C514   C523    1.453   .     S
C514   N534    1.157   .     T
C515   N535    1.157   .     T
C515   C524    1.455   .     S
C516   O540    1.300   .     A
C516   O538    1.301   .     A
C517   N536    1.157   .     T
C518   O543    1.300   .     A
C518   O541    1.278   .     A
C518   C520    1.408   .     S
C519   O542    1.278   .     A
C519   O544    1.300   .     A
C519   C521    1.408   .     S
C520   C605    1.338   1_455 S
C520   I609    2.141   1_455 S
C521   C562    1.338   .     S
C521   I568    2.141   .     S
C523   C632    1.381   .     S
C524   C648    1.381   .     S
I525   C562    2.141   .     S
I526   C605    2.141   1_455 S
N531   Zn545   2.036   .     S
N532   Zn546   2.036   .     S
O537   Zn545   2.009   .     S
O538   Zn546   2.009   .     S
O539   Zn546   2.014   .     S
O540   Zn545   2.014   .     S
O541   Zn545   1.969   .     S
O542   Zn546   1.969   .     S
O543   Zn546   1.969   .     S
O544   Zn545   1.969   .     S
C547   C550    1.450   .     S
C547   O579    1.301   .     A
C547   O581    1.300   .     A
C548   C550    1.410   .     A
C548   C559    1.455   .     S
C549   C565    1.411   .     A
C549   C566    1.410   .     A
C549   C558    1.450   .     S
C550   C564    1.411   .     A
C551   N574    1.374   .     A
C551   I569    2.141   .     S
C552   I570    2.141   .     S
C552   N573    1.374   .     A
C552   C932    1.428   .     S
C553   N573    1.377   .     A
C553   I571    2.123   .     S
C553   C929    1.428   .     S
C554   I572    2.123   .     S
C554   N574    1.377   .     A
C555   N575    1.157   .     T
C555   C564    1.453   .     S
C556   C565    1.453   .     S
C556   N576    1.157   .     T
C557   N577    1.157   .     T
C557   C566    1.455   .     S
C558   O582    1.300   .     A
C558   O580    1.301   .     A
C559   N578    1.157   .     T
C560   O585    1.300   .     A
C560   O583    1.278   .     A
C560   C562    1.408   .     S
C561   O584    1.278   .     A
C561   O586    1.300   .     A
C561   C563    1.408   .     S
C563   C604    1.338   .     S
C563   I610    2.141   .     S
C565   C674    1.381   .     S
C566   C690    1.381   .     S
I567   C604    2.141   .     S
N573   Zn587   2.036   .     S
N574   Zn588   2.036   .     S
O579   Zn587   2.009   .     S
O580   Zn588   2.009   .     S
O581   Zn588   2.014   .     S
O582   Zn587   2.014   .     S
O583   Zn587   1.969   .     S
O584   Zn588   1.969   .     S
O585   Zn588   1.969   .     S
O586   Zn587   1.969   .     S
C589   C592    1.450   .     S
C589   O621    1.301   .     A
C589   O623    1.300   .     A
C590   C592    1.410   .     A
C590   C601    1.455   .     S
C591   C607    1.411   .     A
C591   C608    1.410   .     A
C591   C600    1.450   .     S
C592   C606    1.411   .     A
C593   N616    1.374   .     A
C593   I611    2.141   .     S
C594   I612    2.141   .     S
C594   N615    1.374   .     A
C594   C974    1.428   .     S
C595   N615    1.377   .     A
C595   I613    2.123   .     S
C595   C971    1.428   .     S
C596   I614    2.123   .     S
C596   N616    1.377   .     A
C597   N617    1.157   .     T
C597   C606    1.453   .     S
C598   C607    1.453   .     S
C598   N618    1.157   .     T
C599   N619    1.157   .     T
C599   C608    1.455   .     S
C600   O624    1.300   .     A
C600   O622    1.301   .     A
C601   N620    1.157   .     T
C602   O627    1.300   .     A
C602   O625    1.278   .     A
C602   C604    1.408   .     S
C603   O626    1.278   .     A
C603   O628    1.300   .     A
C603   C605    1.408   .     S
C605   C520    1.338   1_655 S
C605   I526    2.141   1_655 S
C607   C716    1.381   .     S
C608   C732    1.381   .     S
I609   C520    2.141   1_655 S
N615   Zn629   2.036   .     S
N616   Zn630   2.036   .     S
O621   Zn629   2.009   .     S
O622   Zn630   2.009   .     S
O623   Zn630   2.014   .     S
O624   Zn629   2.014   .     S
O625   Zn629   1.969   .     S
O626   Zn630   1.969   .     S
O627   Zn630   1.969   .     S
O628   Zn629   1.969   .     S
C631   C634    1.450   .     S
C631   O663    1.301   .     A
C631   O665    1.300   .     A
C632   C634    1.410   .     A
C632   C643    1.455   .     S
C633   C649    1.411   .     A
C633   C650    1.410   .     A
C633   C642    1.450   .     S
C634   C648    1.411   .     A
C635   N658    1.374   .     A
C635   I653    2.141   .     S
C636   I654    2.141   .     S
C636   N657    1.374   .     A
C636   C1016   1.428   .     S
C637   N657    1.377   .     A
C637   I655    2.123   .     S
C637   C1013   1.428   .     S
C638   I656    2.123   .     S
C638   N658    1.377   .     A
C639   N659    1.157   .     T
C639   C648    1.453   .     S
C640   C649    1.453   .     S
C640   N660    1.157   .     T
C641   N661    1.157   .     T
C641   C650    1.455   .     S
C642   O666    1.300   .     A
C642   O664    1.301   .     A
C643   N662    1.157   .     T
C644   O669    1.300   .     A
C644   O667    1.278   .     A
C644   C646    1.408   .     S
C645   O668    1.278   .     A
C645   O670    1.300   .     A
C645   C647    1.408   .     S
C646   C731    1.338   1_455 S
C646   I735    2.141   1_455 S
C647   C688    1.338   .     S
C647   I694    2.141   .     S
C649   C380    1.381   1_565 S
C650   C396    1.381   1_565 S
I651   C688    2.141   .     S
I652   C731    2.141   1_455 S
N657   Zn671   2.036   .     S
N658   Zn672   2.036   .     S
O663   Zn671   2.009   .     S
O664   Zn672   2.009   .     S
O665   Zn672   2.014   .     S
O666   Zn671   2.014   .     S
O667   Zn671   1.969   .     S
O668   Zn672   1.969   .     S
O669   Zn672   1.969   .     S
O670   Zn671   1.969   .     S
C673   C676    1.450   .     S
C673   O705    1.301   .     A
C673   O707    1.300   .     A
C674   C676    1.410   .     A
C674   C685    1.455   .     S
C675   C691    1.411   .     A
C675   C692    1.410   .     A
C675   C684    1.450   .     S
C676   C690    1.411   .     A
C677   N700    1.374   .     A
C677   I695    2.141   .     S
C678   I696    2.141   .     S
C678   N699    1.374   .     A
C678   C1058   1.428   .     S
C679   N699    1.377   .     A
C679   I697    2.123   .     S
C679   C1055   1.428   .     S
C680   I698    2.123   .     S
C680   N700    1.377   .     A
C681   N701    1.157   .     T
C681   C690    1.453   .     S
C682   C691    1.453   .     S
C682   N702    1.157   .     T
C683   N703    1.157   .     T
C683   C692    1.455   .     S
C684   O708    1.300   .     A
C684   O706    1.301   .     A
C685   N704    1.157   .     T
C686   O711    1.300   .     A
C686   O709    1.278   .     A
C686   C688    1.408   .     S
C687   O710    1.278   .     A
C687   O712    1.300   .     A
C687   C689    1.408   .     S
C689   C730    1.338   .     S
C689   I736    2.141   .     S
C691   C422    1.381   1_565 S
C692   C438    1.381   1_565 S
I693   C730    2.141   .     S
N699   Zn713   2.036   .     S
N700   Zn714   2.036   .     S
O705   Zn713   2.009   .     S
O706   Zn714   2.009   .     S
O707   Zn714   2.014   .     S
O708   Zn713   2.014   .     S
O709   Zn713   1.969   .     S
O710   Zn714   1.969   .     S
O711   Zn714   1.969   .     S
O712   Zn713   1.969   .     S
C715   C718    1.450   .     S
C715   O747    1.301   .     A
C715   O749    1.300   .     A
C716   C718    1.410   .     A
C716   C727    1.455   .     S
C717   C733    1.411   .     A
C717   C734    1.410   .     A
C717   C726    1.450   .     S
C718   C732    1.411   .     A
C719   N742    1.374   .     A
C719   I737    2.141   .     S
C720   I738    2.141   .     S
C720   N741    1.374   .     A
C720   C1100   1.428   .     S
C721   N741    1.377   .     A
C721   I739    2.123   .     S
C721   C1097   1.428   .     S
C722   I740    2.123   .     S
C722   N742    1.377   .     A
C723   N743    1.157   .     T
C723   C732    1.453   .     S
C724   C733    1.453   .     S
C724   N744    1.157   .     T
C725   N745    1.157   .     T
C725   C734    1.455   .     S
C726   O750    1.300   .     A
C726   O748    1.301   .     A
C727   N746    1.157   .     T
C728   O753    1.300   .     A
C728   O751    1.278   .     A
C728   C730    1.408   .     S
C729   O752    1.278   .     A
C729   O754    1.300   .     A
C729   C731    1.408   .     S
C731   C646    1.338   1_655 S
C731   I652    2.141   1_655 S
C733   C464    1.381   1_565 S
C734   C480    1.381   1_565 S
I735   C646    2.141   1_655 S
N741   Zn755   2.036   .     S
N742   Zn756   2.036   .     S
O747   Zn755   2.009   .     S
O748   Zn756   2.009   .     S
O749   Zn756   2.014   .     S
O750   Zn755   2.014   .     S
O751   Zn755   1.969   .     S
O752   Zn756   1.969   .     S
O753   Zn756   1.969   .     S
O754   Zn755   1.969   .     S
C757   C760    1.450   .     S
C757   O789    1.301   .     A
C757   O791    1.300   .     A
C758   C760    1.410   .     A
C758   C769    1.455   .     S
C758   C1027   1.381   1_545 S
C759   C775    1.411   .     A
C759   C776    1.410   .     A
C759   C768    1.450   .     S
C760   C774    1.411   .     A
C761   N784    1.374   .     A
C761   I779    2.141   .     S
C762   I780    2.141   .     S
C762   N783    1.374   .     A
C762   C8      1.428   1_556 S
C763   N783    1.377   .     A
C763   I781    2.123   .     S
C763   C5      1.428   1_556 S
C764   I782    2.123   .     S
C764   N784    1.377   .     A
C765   N785    1.157   .     T
C765   C774    1.453   .     S
C766   C775    1.453   .     S
C766   N786    1.157   .     T
C767   N787    1.157   .     T
C767   C776    1.455   .     S
C768   O792    1.300   .     A
C768   O790    1.301   .     A
C769   N788    1.157   .     T
C770   O795    1.300   .     A
C770   O793    1.278   .     A
C770   C772    1.408   .     S
C771   O794    1.278   .     A
C771   O796    1.300   .     A
C771   C773    1.408   .     S
C772   C857    1.338   1_455 S
C772   I861    2.141   1_455 S
C773   C814    1.338   .     S
C773   I820    2.141   .     S
C774   C1028   1.381   1_545 S
C775   C884    1.381   .     S
C776   C900    1.381   .     S
I777   C814    2.141   .     S
I778   C857    2.141   1_455 S
N783   Zn797   2.036   .     S
N784   Zn798   2.036   .     S
O789   Zn797   2.009   .     S
O790   Zn798   2.009   .     S
O791   Zn798   2.014   .     S
O792   Zn797   2.014   .     S
O793   Zn797   1.969   .     S
O794   Zn798   1.969   .     S
O795   Zn798   1.969   .     S
O796   Zn797   1.969   .     S
C799   C802    1.450   .     S
C799   O831    1.301   .     A
C799   O833    1.300   .     A
C800   C802    1.410   .     A
C800   C811    1.455   .     S
C800   C1069   1.381   1_545 S
C801   C817    1.411   .     A
C801   C818    1.410   .     A
C801   C810    1.450   .     S
C802   C816    1.411   .     A
C803   N826    1.374   .     A
C803   I821    2.141   .     S
C804   I822    2.141   .     S
C804   N825    1.374   .     A
C804   C50     1.428   1_556 S
C805   N825    1.377   .     A
C805   I823    2.123   .     S
C805   C47     1.428   1_556 S
C806   I824    2.123   .     S
C806   N826    1.377   .     A
C807   N827    1.157   .     T
C807   C816    1.453   .     S
C808   C817    1.453   .     S
C808   N828    1.157   .     T
C809   N829    1.157   .     T
C809   C818    1.455   .     S
C810   O834    1.300   .     A
C810   O832    1.301   .     A
C811   N830    1.157   .     T
C812   O837    1.300   .     A
C812   O835    1.278   .     A
C812   C814    1.408   .     S
C813   O836    1.278   .     A
C813   O838    1.300   .     A
C813   C815    1.408   .     S
C815   C856    1.338   .     S
C815   I862    2.141   .     S
C816   C1070   1.381   1_545 S
C817   C926    1.381   .     S
C818   C942    1.381   .     S
I819   C856    2.141   .     S
N825   Zn839   2.036   .     S
N826   Zn840   2.036   .     S
O831   Zn839   2.009   .     S
O832   Zn840   2.009   .     S
O833   Zn840   2.014   .     S
O834   Zn839   2.014   .     S
O835   Zn839   1.969   .     S
O836   Zn840   1.969   .     S
O837   Zn840   1.969   .     S
O838   Zn839   1.969   .     S
C841   C844    1.450   .     S
C841   O873    1.301   .     A
C841   O875    1.300   .     A
C842   C844    1.410   .     A
C842   C853    1.455   .     S
C842   C1111   1.381   1_545 S
C843   C859    1.411   .     A
C843   C860    1.410   .     A
C843   C852    1.450   .     S
C844   C858    1.411   .     A
C845   N868    1.374   .     A
C845   I863    2.141   .     S
C846   I864    2.141   .     S
C846   N867    1.374   .     A
C846   C92     1.428   1_556 S
C847   N867    1.377   .     A
C847   I865    2.123   .     S
C847   C89     1.428   1_556 S
C848   I866    2.123   .     S
C848   N868    1.377   .     A
C849   N869    1.157   .     T
C849   C858    1.453   .     S
C850   C859    1.453   .     S
C850   N870    1.157   .     T
C851   N871    1.157   .     T
C851   C860    1.455   .     S
C852   O876    1.300   .     A
C852   O874    1.301   .     A
C853   N872    1.157   .     T
C854   O879    1.300   .     A
C854   O877    1.278   .     A
C854   C856    1.408   .     S
C855   O878    1.278   .     A
C855   O880    1.300   .     A
C855   C857    1.408   .     S
C857   C772    1.338   1_655 S
C857   I778    2.141   1_655 S
C858   C1112   1.381   1_545 S
C859   C968    1.381   .     S
C860   C984    1.381   .     S
I861   C772    2.141   1_655 S
N867   Zn881   2.036   .     S
N868   Zn882   2.036   .     S
O873   Zn881   2.009   .     S
O874   Zn882   2.009   .     S
O875   Zn882   2.014   .     S
O876   Zn881   2.014   .     S
O877   Zn881   1.969   .     S
O878   Zn882   1.969   .     S
O879   Zn882   1.969   .     S
O880   Zn881   1.969   .     S
C883   C886    1.450   .     S
C883   O915    1.301   .     A
C883   O917    1.300   .     A
C884   C886    1.410   .     A
C884   C895    1.455   .     S
C885   C901    1.411   .     A
C885   C902    1.410   .     A
C885   C894    1.450   .     S
C886   C900    1.411   .     A
C887   N910    1.374   .     A
C887   I905    2.141   .     S
C888   I906    2.141   .     S
C888   N909    1.374   .     A
C888   C134    1.428   1_556 S
C889   N909    1.377   .     A
C889   I907    2.123   .     S
C889   C131    1.428   1_556 S
C890   I908    2.123   .     S
C890   N910    1.377   .     A
C891   N911    1.157   .     T
C891   C900    1.453   .     S
C892   C901    1.453   .     S
C892   N912    1.157   .     T
C893   N913    1.157   .     T
C893   C902    1.455   .     S
C894   O918    1.300   .     A
C894   O916    1.301   .     A
C895   N914    1.157   .     T
C896   O921    1.300   .     A
C896   O919    1.278   .     A
C896   C898    1.408   .     S
C897   O920    1.278   .     A
C897   O922    1.300   .     A
C897   C899    1.408   .     S
C898   C983    1.338   1_455 S
C898   I987    2.141   1_455 S
C899   C940    1.338   .     S
C899   I946    2.141   .     S
C901   C1010   1.381   .     S
C902   C1026   1.381   .     S
I903   C940    2.141   .     S
I904   C983    2.141   1_455 S
N909   Zn923   2.036   .     S
N910   Zn924   2.036   .     S
O915   Zn923   2.009   .     S
O916   Zn924   2.009   .     S
O917   Zn924   2.014   .     S
O918   Zn923   2.014   .     S
O919   Zn923   1.969   .     S
O920   Zn924   1.969   .     S
O921   Zn924   1.969   .     S
O922   Zn923   1.969   .     S
C925   C928    1.450   .     S
C925   O957    1.301   .     A
C925   O959    1.300   .     A
C926   C928    1.410   .     A
C926   C937    1.455   .     S
C927   C943    1.411   .     A
C927   C944    1.410   .     A
C927   C936    1.450   .     S
C928   C942    1.411   .     A
C929   N952    1.374   .     A
C929   I947    2.141   .     S
C930   I948    2.141   .     S
C930   N951    1.374   .     A
C930   C176    1.428   1_556 S
C931   N951    1.377   .     A
C931   I949    2.123   .     S
C931   C173    1.428   1_556 S
C932   I950    2.123   .     S
C932   N952    1.377   .     A
C933   N953    1.157   .     T
C933   C942    1.453   .     S
C934   C943    1.453   .     S
C934   N954    1.157   .     T
C935   N955    1.157   .     T
C935   C944    1.455   .     S
C936   O960    1.300   .     A
C936   O958    1.301   .     A
C937   N956    1.157   .     T
C938   O963    1.300   .     A
C938   O961    1.278   .     A
C938   C940    1.408   .     S
C939   O962    1.278   .     A
C939   O964    1.300   .     A
C939   C941    1.408   .     S
C941   C982    1.338   .     S
C941   I988    2.141   .     S
C943   C1052   1.381   .     S
C944   C1068   1.381   .     S
I945   C982    2.141   .     S
N951   Zn965   2.036   .     S
N952   Zn966   2.036   .     S
O957   Zn965   2.009   .     S
O958   Zn966   2.009   .     S
O959   Zn966   2.014   .     S
O960   Zn965   2.014   .     S
O961   Zn965   1.969   .     S
O962   Zn966   1.969   .     S
O963   Zn966   1.969   .     S
O964   Zn965   1.969   .     S
C967   C970    1.450   .     S
C967   O999    1.301   .     A
C967   O1001   1.300   .     A
C968   C970    1.410   .     A
C968   C979    1.455   .     S
C969   C985    1.411   .     A
C969   C986    1.410   .     A
C969   C978    1.450   .     S
C970   C984    1.411   .     A
C971   N994    1.374   .     A
C971   I989    2.141   .     S
C972   I990    2.141   .     S
C972   N993    1.374   .     A
C972   C218    1.428   1_556 S
C973   N993    1.377   .     A
C973   I991    2.123   .     S
C973   C215    1.428   1_556 S
C974   I992    2.123   .     S
C974   N994    1.377   .     A
C975   N995    1.157   .     T
C975   C984    1.453   .     S
C976   C985    1.453   .     S
C976   N996    1.157   .     T
C977   N997    1.157   .     T
C977   C986    1.455   .     S
C978   O1002   1.300   .     A
C978   O1000   1.301   .     A
C979   N998    1.157   .     T
C980   O1005   1.300   .     A
C980   O1003   1.278   .     A
C980   C982    1.408   .     S
C981   O1004   1.278   .     A
C981   O1006   1.300   .     A
C981   C983    1.408   .     S
C983   C898    1.338   1_655 S
C983   I904    2.141   1_655 S
C985   C1094   1.381   .     S
C986   C1110   1.381   .     S
I987   C898    2.141   1_655 S
N993   Zn1007  2.036   .     S
N994   Zn1008  2.036   .     S
O999   Zn1007  2.009   .     S
O1000  Zn1008  2.009   .     S
O1001  Zn1008  2.014   .     S
O1002  Zn1007  2.014   .     S
O1003  Zn1007  1.969   .     S
O1004  Zn1008  1.969   .     S
O1005  Zn1008  1.969   .     S
O1006  Zn1007  1.969   .     S
C1009  C1012   1.450   .     S
C1009  O1041   1.301   .     A
C1009  O1043   1.300   .     A
C1010  C1012   1.410   .     A
C1010  C1021   1.455   .     S
C1011  C1027   1.411   .     A
C1011  C1028   1.410   .     A
C1011  C1020   1.450   .     S
C1012  C1026   1.411   .     A
C1013  N1036   1.374   .     A
C1013  I1031   2.141   .     S
C1014  I1032   2.141   .     S
C1014  N1035   1.374   .     A
C1014  C260    1.428   1_556 S
C1015  N1035   1.377   .     A
C1015  I1033   2.123   .     S
C1015  C257    1.428   1_556 S
C1016  I1034   2.123   .     S
C1016  N1036   1.377   .     A
C1017  N1037   1.157   .     T
C1017  C1026   1.453   .     S
C1018  C1027   1.453   .     S
C1018  N1038   1.157   .     T
C1019  N1039   1.157   .     T
C1019  C1028   1.455   .     S
C1020  O1044   1.300   .     A
C1020  O1042   1.301   .     A
C1021  N1040   1.157   .     T
C1022  O1047   1.300   .     A
C1022  O1045   1.278   .     A
C1022  C1024   1.408   .     S
C1023  O1046   1.278   .     A
C1023  O1048   1.300   .     A
C1023  C1025   1.408   .     S
C1024  C1109   1.338   1_455 S
C1024  I1113   2.141   1_455 S
C1025  C1066   1.338   .     S
C1025  I1072   2.141   .     S
C1027  C758    1.381   1_565 S
C1028  C774    1.381   1_565 S
I1029  C1066   2.141   .     S
I1030  C1109   2.141   1_455 S
N1035  Zn1049  2.036   .     S
N1036  Zn1050  2.036   .     S
O1041  Zn1049  2.009   .     S
O1042  Zn1050  2.009   .     S
O1043  Zn1050  2.014   .     S
O1044  Zn1049  2.014   .     S
O1045  Zn1049  1.969   .     S
O1046  Zn1050  1.969   .     S
O1047  Zn1050  1.969   .     S
O1048  Zn1049  1.969   .     S
C1051  C1054   1.450   .     S
C1051  O1083   1.301   .     A
C1051  O1085   1.300   .     A
C1052  C1054   1.410   .     A
C1052  C1063   1.455   .     S
C1053  C1069   1.411   .     A
C1053  C1070   1.410   .     A
C1053  C1062   1.450   .     S
C1054  C1068   1.411   .     A
C1055  N1078   1.374   .     A
C1055  I1073   2.141   .     S
C1056  I1074   2.141   .     S
C1056  N1077   1.374   .     A
C1056  C302    1.428   1_556 S
C1057  N1077   1.377   .     A
C1057  I1075   2.123   .     S
C1057  C299    1.428   1_556 S
C1058  I1076   2.123   .     S
C1058  N1078   1.377   .     A
C1059  N1079   1.157   .     T
C1059  C1068   1.453   .     S
C1060  C1069   1.453   .     S
C1060  N1080   1.157   .     T
C1061  N1081   1.157   .     T
C1061  C1070   1.455   .     S
C1062  O1086   1.300   .     A
C1062  O1084   1.301   .     A
C1063  N1082   1.157   .     T
C1064  O1089   1.300   .     A
C1064  O1087   1.278   .     A
C1064  C1066   1.408   .     S
C1065  O1088   1.278   .     A
C1065  O1090   1.300   .     A
C1065  C1067   1.408   .     S
C1067  C1108   1.338   .     S
C1067  I1114   2.141   .     S
C1069  C800    1.381   1_565 S
C1070  C816    1.381   1_565 S
I1071  C1108   2.141   .     S
N1077  Zn1091  2.036   .     S
N1078  Zn1092  2.036   .     S
O1083  Zn1091  2.009   .     S
O1084  Zn1092  2.009   .     S
O1085  Zn1092  2.014   .     S
O1086  Zn1091  2.014   .     S
O1087  Zn1091  1.969   .     S
O1088  Zn1092  1.969   .     S
O1089  Zn1092  1.969   .     S
O1090  Zn1091  1.969   .     S
C1093  C1096   1.450   .     S
C1093  O1125   1.301   .     A
C1093  O1127   1.300   .     A
C1094  C1096   1.410   .     A
C1094  C1105   1.455   .     S
C1095  C1111   1.411   .     A
C1095  C1112   1.410   .     A
C1095  C1104   1.450   .     S
C1096  C1110   1.411   .     A
C1097  N1120   1.374   .     A
C1097  I1115   2.141   .     S
C1098  I1116   2.141   .     S
C1098  N1119   1.374   .     A
C1098  C344    1.428   1_556 S
C1099  N1119   1.377   .     A
C1099  I1117   2.123   .     S
C1099  C341    1.428   1_556 S
C1100  I1118   2.123   .     S
C1100  N1120   1.377   .     A
C1101  N1121   1.157   .     T
C1101  C1110   1.453   .     S
C1102  C1111   1.453   .     S
C1102  N1122   1.157   .     T
C1103  N1123   1.157   .     T
C1103  C1112   1.455   .     S
C1104  O1128   1.300   .     A
C1104  O1126   1.301   .     A
C1105  N1124   1.157   .     T
C1106  O1131   1.300   .     A
C1106  O1129   1.278   .     A
C1106  C1108   1.408   .     S
C1107  O1130   1.278   .     A
C1107  O1132   1.300   .     A
C1107  C1109   1.408   .     S
C1109  C1024   1.338   1_655 S
C1109  I1030   2.141   1_655 S
C1111  C842    1.381   1_565 S
C1112  C858    1.381   1_565 S
I1113  C1024   2.141   1_655 S
N1119  Zn1133  2.036   .     S
N1120  Zn1134  2.036   .     S
O1125  Zn1133  2.009   .     S
O1126  Zn1134  2.009   .     S
O1127  Zn1134  2.014   .     S
O1128  Zn1133  2.014   .     S
O1129  Zn1133  1.969   .     S
O1130  Zn1134  1.969   .     S
O1131  Zn1134  1.969   .     S
O1132  Zn1133  1.969   .     S
