data_str_m2_o1_o18_pcu_sym.41
_audit_creation_date              2020-01-03
_audit_creation_method            'Materials Studio'
_symmetry_space_group_name_H-M    'P1'
_symmetry_Int_Tables_number       1
_symmetry_cell_setting            triclinic
loop_
_symmetry_equiv_pos_as_xyz
  x,y,z
_cell_length_a                    28.6544
_cell_length_b                    32.4823
_cell_length_c                    31.1145
_cell_angle_alpha                 89.0461
_cell_angle_beta                  74.1804
_cell_angle_gamma                 90.0533
loop_
_atom_site_label
_atom_site_type_symbol
_atom_site_fract_x
_atom_site_fract_y
_atom_site_fract_z
_atom_site_U_iso_or_equiv
_atom_site_adp_type
_atom_site_occupancy
O1     O     0.03958   0.10655   0.25000   0.00000  Uiso   1.00
O2     O     0.29375   0.22678   0.25000   0.00000  Uiso   1.00
O3     O     0.29372   0.10654   0.25000   0.00000  Uiso   1.00
O4     O     0.03961   0.22679   0.25000   0.00000  Uiso   1.00
C5     C     0.00022   0.08744   0.24938   0.00000  Uiso   1.00
C6     C     0.33311   0.24589   0.25062   0.00000  Uiso   1.00
O7     O     0.01852   0.16668   0.31492   0.00000  Uiso   1.00
O8     O     0.31481   0.16666   0.18508   0.00000  Uiso   1.00
O9     O     0.27267   0.16667   0.31492   0.00000  Uiso   1.00
O10    O     0.06067   0.16667   0.18508   0.00000  Uiso   1.00
C11    C     0.30602   0.16715   0.33595   0.00000  Uiso   1.00
C12    C     0.02731   0.16619   0.16405   0.00000  Uiso   1.00
Cu13   Cu    0.04689   0.16667   0.25000   0.00000  Uiso   1.00
Cu14   Cu    0.28645   0.16666   0.25000   0.00000  Uiso   1.00
C15    C     0.29088   0.17030   0.38474   0.00000  Uiso   1.00
C16    C     0.04247   0.16299   0.11526   0.00000  Uiso   1.00
C17    C     0.30666   0.19063   0.45370   0.00000  Uiso   1.00
C18    C     0.02681   0.14240   0.04634   0.00000  Uiso   1.00
C19    C     0.32330   0.18297   0.40825   0.00000  Uiso   1.00
C20    C     0.01012   0.15013   0.09177   0.00000  Uiso   1.00
C21    C     0.24236   0.16305   0.40751   0.00000  Uiso   1.00
C22    C     0.09097   0.17034   0.09250   0.00000  Uiso   1.00
C23    C     0.22465   0.16944   0.45371   0.00000  Uiso   1.00
C24    C     0.10877   0.16380   0.04634   0.00000  Uiso   1.00
C25    C     0.25706   0.18613   0.47639   0.00000  Uiso   1.00
C26    C     0.07640   0.14698   0.02366   0.00000  Uiso   1.00
C27    C     0.17533   0.16108   0.47729   0.00000  Uiso   1.00
C28    C     0.15811   0.17211   0.02278   0.00000  Uiso   1.00
C29    C     0.19042   0.19196   0.04311   0.00000  Uiso   1.00
C30    C     0.14307   0.14116   0.45697   0.00000  Uiso   1.00
C31    C     0.23917   0.19854   0.02089   0.00000  Uiso   1.00
C32    C     0.09434   0.13451   0.47918   0.00000  Uiso   1.00
H33    H     0.11455   0.17948   0.11222   0.00000  Uiso   1.00
H34    H     0.21867   0.15417   0.38779   0.00000  Uiso   1.00
H35    H     0.30561   0.14450   0.10880   0.00000  Uiso   1.00
H36    H     0.02782   0.18850   0.39122   0.00000  Uiso   1.00
H37    H     0.33294   0.20057   0.47061   0.00000  Uiso   1.00
H38    H     0.00057   0.13233   0.02944   0.00000  Uiso   1.00
H39    H     0.17861   0.20454   0.07604   0.00000  Uiso   1.00
H40    H     0.15496   0.12850   0.42407   0.00000  Uiso   1.00
C41    C     0.29079   0.02152   0.26891   0.00000  Uiso   1.00
C42    C     0.04255   0.31181   0.23109   0.00000  Uiso   1.00
H43    H     0.25822   0.03818   0.28471   0.00000  Uiso   1.00
H44    H     0.07512   0.29515   0.21528   0.00000  Uiso   1.00
C45    C     0.28965   0.31201   0.26974   0.00000  Uiso   1.00
C46    C     0.04368   0.02133   0.23026   0.00000  Uiso   1.00
C47    C     0.33280   0.29053   0.25100   0.00000  Uiso   1.00
C48    C     0.00054   0.04281   0.24899   0.00000  Uiso   1.00
C49    C     0.18255   0.14305   0.28069   0.00000  Uiso   1.00
C50    C     0.15078   0.19029   0.21931   0.00000  Uiso   1.00
C51    C     0.13250   0.14383   0.28070   0.00000  Uiso   1.00
C52    C     0.20083   0.18950   0.21930   0.00000  Uiso   1.00
H53    H     0.10538   0.12661   0.30534   0.00000  Uiso   1.00
H54    H     0.22795   0.20673   0.19466   0.00000  Uiso   1.00
N55    N     0.11736   0.16668   0.24999   0.00000  Uiso   1.00
N56    N     0.21597   0.16666   0.25001   0.00000  Uiso   1.00
N57    N     0.26901   0.22054   0.04334   0.00000  Uiso   1.00
O58    O     0.29376   0.25266   0.02422   0.00000  Uiso   1.00
O59    O     0.26406   0.21368   0.08566   0.00000  Uiso   1.00
N60    N     0.06455   0.11244   0.45675   0.00000  Uiso   1.00
O61    O     0.06940   0.11935   0.41446   0.00000  Uiso   1.00
O62    O     0.03994   0.08024   0.47585   0.00000  Uiso   1.00
O63    O     0.24790   0.29100   0.29250   0.00000  Uiso   1.00
C64    C     0.21227   0.29614   0.26930   0.00000  Uiso   1.00
H65    H     0.18252   0.27370   0.28306   0.00000  Uiso   1.00
H66    H     0.22691   0.28991   0.23300   0.00000  Uiso   1.00
H67    H     0.19641   0.32744   0.27419   0.00000  Uiso   1.00
O68    O     0.08544   0.04233   0.20749   0.00000  Uiso   1.00
C69    C     0.12107   0.03719   0.23069   0.00000  Uiso   1.00
H70    H     0.10644   0.04342   0.26699   0.00000  Uiso   1.00
H71    H     0.15083   0.05962   0.21692   0.00000  Uiso   1.00
H72    H     0.13692   0.00588   0.22580   0.00000  Uiso   1.00
O73    O     0.19851   0.12151   0.31299   0.00000  Uiso   1.00
C74    C     0.17402   0.08370   0.32565   0.00000  Uiso   1.00
H75    H     0.17143   0.06598   0.29615   0.00000  Uiso   1.00
H76    H     0.13784   0.08841   0.34929   0.00000  Uiso   1.00
H77    H     0.19496   0.06493   0.34391   0.00000  Uiso   1.00
O78    O     0.13481   0.21183   0.18702   0.00000  Uiso   1.00
C79    C     0.15935   0.24962   0.17430   0.00000  Uiso   1.00
H80    H     0.19550   0.24486   0.15064   0.00000  Uiso   1.00
H81    H     0.16201   0.26735   0.20377   0.00000  Uiso   1.00
H82    H     0.13841   0.26840   0.15606   0.00000  Uiso   1.00
O83    O     0.37291   0.10655   0.25000   0.00000  Uiso   1.00
O84    O     0.62709   0.22678   0.25000   0.00000  Uiso   1.00
O85    O     0.62706   0.10654   0.25000   0.00000  Uiso   1.00
O86    O     0.37294   0.22679   0.25000   0.00000  Uiso   1.00
C87    C     0.33356   0.08744   0.24938   0.00000  Uiso   1.00
C88    C     0.66644   0.24589   0.25062   0.00000  Uiso   1.00
O89    O     0.35186   0.16668   0.31492   0.00000  Uiso   1.00
O90    O     0.64814   0.16666   0.18508   0.00000  Uiso   1.00
O91    O     0.60600   0.16667   0.31492   0.00000  Uiso   1.00
O92    O     0.39400   0.16667   0.18508   0.00000  Uiso   1.00
C93    C     0.63935   0.16715   0.33595   0.00000  Uiso   1.00
C94    C     0.36065   0.16619   0.16405   0.00000  Uiso   1.00
Cu95   Cu    0.38022   0.16667   0.25000   0.00000  Uiso   1.00
Cu96   Cu    0.61978   0.16666   0.25000   0.00000  Uiso   1.00
C97    C     0.62421   0.17030   0.38474   0.00000  Uiso   1.00
C98    C     0.37580   0.16299   0.11526   0.00000  Uiso   1.00
C99    C     0.64000   0.19063   0.45370   0.00000  Uiso   1.00
C100   C     0.36014   0.14240   0.04634   0.00000  Uiso   1.00
C101   C     0.65663   0.18297   0.40825   0.00000  Uiso   1.00
C102   C     0.34345   0.15013   0.09177   0.00000  Uiso   1.00
C103   C     0.57569   0.16305   0.40751   0.00000  Uiso   1.00
C104   C     0.42430   0.17034   0.09250   0.00000  Uiso   1.00
C105   C     0.55798   0.16944   0.45371   0.00000  Uiso   1.00
C106   C     0.44210   0.16380   0.04634   0.00000  Uiso   1.00
C107   C     0.59040   0.18613   0.47639   0.00000  Uiso   1.00
C108   C     0.40974   0.14698   0.02366   0.00000  Uiso   1.00
C109   C     0.50867   0.16108   0.47729   0.00000  Uiso   1.00
C110   C     0.49144   0.17211   0.02278   0.00000  Uiso   1.00
C111   C     0.52376   0.19196   0.04311   0.00000  Uiso   1.00
C112   C     0.47641   0.14116   0.45697   0.00000  Uiso   1.00
C113   C     0.57251   0.19854   0.02089   0.00000  Uiso   1.00
C114   C     0.42767   0.13451   0.47918   0.00000  Uiso   1.00
H115   H     0.44789   0.17948   0.11222   0.00000  Uiso   1.00
H116   H     0.55200   0.15417   0.38779   0.00000  Uiso   1.00
H117   H     0.63895   0.14450   0.10880   0.00000  Uiso   1.00
H118   H     0.36116   0.18850   0.39122   0.00000  Uiso   1.00
H119   H     0.66628   0.20057   0.47061   0.00000  Uiso   1.00
H120   H     0.33391   0.13233   0.02944   0.00000  Uiso   1.00
H121   H     0.51194   0.20454   0.07604   0.00000  Uiso   1.00
H122   H     0.48830   0.12850   0.42407   0.00000  Uiso   1.00
C123   C     0.62412   0.02152   0.26891   0.00000  Uiso   1.00
C124   C     0.37588   0.31181   0.23109   0.00000  Uiso   1.00
H125   H     0.59156   0.03818   0.28471   0.00000  Uiso   1.00
H126   H     0.40845   0.29515   0.21528   0.00000  Uiso   1.00
C127   C     0.62299   0.31201   0.26974   0.00000  Uiso   1.00
C128   C     0.37702   0.02133   0.23026   0.00000  Uiso   1.00
C129   C     0.66613   0.29053   0.25100   0.00000  Uiso   1.00
C130   C     0.33387   0.04281   0.24899   0.00000  Uiso   1.00
C131   C     0.51588   0.14305   0.28069   0.00000  Uiso   1.00
C132   C     0.48411   0.19029   0.21931   0.00000  Uiso   1.00
C133   C     0.46584   0.14383   0.28070   0.00000  Uiso   1.00
C134   C     0.53416   0.18950   0.21930   0.00000  Uiso   1.00
H135   H     0.43871   0.12661   0.30534   0.00000  Uiso   1.00
H136   H     0.56129   0.20673   0.19466   0.00000  Uiso   1.00
N137   N     0.45069   0.16668   0.24999   0.00000  Uiso   1.00
N138   N     0.54931   0.16666   0.25001   0.00000  Uiso   1.00
N139   N     0.60234   0.22054   0.04334   0.00000  Uiso   1.00
O140   O     0.62710   0.25266   0.02422   0.00000  Uiso   1.00
O141   O     0.59739   0.21368   0.08566   0.00000  Uiso   1.00
N142   N     0.39788   0.11244   0.45675   0.00000  Uiso   1.00
O143   O     0.40273   0.11935   0.41446   0.00000  Uiso   1.00
O144   O     0.37328   0.08024   0.47585   0.00000  Uiso   1.00
O145   O     0.58123   0.29100   0.29250   0.00000  Uiso   1.00
C146   C     0.54561   0.29614   0.26930   0.00000  Uiso   1.00
H147   H     0.51585   0.27370   0.28306   0.00000  Uiso   1.00
H148   H     0.56024   0.28991   0.23300   0.00000  Uiso   1.00
H149   H     0.52975   0.32744   0.27419   0.00000  Uiso   1.00
O150   O     0.41878   0.04233   0.20749   0.00000  Uiso   1.00
C151   C     0.45440   0.03719   0.23069   0.00000  Uiso   1.00
H152   H     0.43978   0.04342   0.26699   0.00000  Uiso   1.00
H153   H     0.48416   0.05962   0.21692   0.00000  Uiso   1.00
H154   H     0.47025   0.00588   0.22580   0.00000  Uiso   1.00
O155   O     0.53184   0.12151   0.31299   0.00000  Uiso   1.00
C156   C     0.50736   0.08370   0.32565   0.00000  Uiso   1.00
H157   H     0.50476   0.06598   0.29615   0.00000  Uiso   1.00
H158   H     0.47118   0.08841   0.34929   0.00000  Uiso   1.00
H159   H     0.52829   0.06493   0.34391   0.00000  Uiso   1.00
O160   O     0.46815   0.21183   0.18702   0.00000  Uiso   1.00
C161   C     0.49268   0.24962   0.17430   0.00000  Uiso   1.00
H162   H     0.52884   0.24486   0.15064   0.00000  Uiso   1.00
H163   H     0.49534   0.26735   0.20377   0.00000  Uiso   1.00
H164   H     0.47174   0.26840   0.15606   0.00000  Uiso   1.00
O165   O     0.70625   0.10655   0.25000   0.00000  Uiso   1.00
O166   O     0.96042   0.22678   0.25000   0.00000  Uiso   1.00
O167   O     0.96039   0.10654   0.25000   0.00000  Uiso   1.00
O168   O     0.70628   0.22679   0.25000   0.00000  Uiso   1.00
C169   C     0.66689   0.08744   0.24938   0.00000  Uiso   1.00
C170   C     0.99978   0.24589   0.25062   0.00000  Uiso   1.00
O171   O     0.68519   0.16668   0.31492   0.00000  Uiso   1.00
O172   O     0.98148   0.16666   0.18508   0.00000  Uiso   1.00
O173   O     0.93933   0.16667   0.31492   0.00000  Uiso   1.00
O174   O     0.72733   0.16667   0.18508   0.00000  Uiso   1.00
C175   C     0.97269   0.16715   0.33595   0.00000  Uiso   1.00
C176   C     0.69398   0.16619   0.16405   0.00000  Uiso   1.00
Cu177  Cu    0.71355   0.16667   0.25000   0.00000  Uiso   1.00
Cu178  Cu    0.95311   0.16666   0.25000   0.00000  Uiso   1.00
C179   C     0.95755   0.17030   0.38474   0.00000  Uiso   1.00
C180   C     0.70914   0.16299   0.11526   0.00000  Uiso   1.00
C181   C     0.97333   0.19063   0.45370   0.00000  Uiso   1.00
C182   C     0.69348   0.14240   0.04634   0.00000  Uiso   1.00
C183   C     0.98997   0.18297   0.40825   0.00000  Uiso   1.00
C184   C     0.67679   0.15013   0.09177   0.00000  Uiso   1.00
C185   C     0.90903   0.16305   0.40751   0.00000  Uiso   1.00
C186   C     0.75764   0.17034   0.09250   0.00000  Uiso   1.00
C187   C     0.89132   0.16944   0.45371   0.00000  Uiso   1.00
C188   C     0.77544   0.16380   0.04634   0.00000  Uiso   1.00
C189   C     0.92373   0.18613   0.47639   0.00000  Uiso   1.00
C190   C     0.74307   0.14698   0.02366   0.00000  Uiso   1.00
C191   C     0.84200   0.16108   0.47729   0.00000  Uiso   1.00
C192   C     0.82478   0.17211   0.02278   0.00000  Uiso   1.00
C193   C     0.85709   0.19196   0.04311   0.00000  Uiso   1.00
C194   C     0.80974   0.14116   0.45697   0.00000  Uiso   1.00
C195   C     0.90584   0.19854   0.02089   0.00000  Uiso   1.00
C196   C     0.76101   0.13451   0.47918   0.00000  Uiso   1.00
H197   H     0.78122   0.17948   0.11222   0.00000  Uiso   1.00
H198   H     0.88533   0.15417   0.38779   0.00000  Uiso   1.00
H199   H     0.97228   0.14450   0.10880   0.00000  Uiso   1.00
H200   H     0.69449   0.18850   0.39122   0.00000  Uiso   1.00
H201   H     0.99961   0.20057   0.47061   0.00000  Uiso   1.00
H202   H     0.66724   0.13233   0.02944   0.00000  Uiso   1.00
H203   H     0.84527   0.20454   0.07604   0.00000  Uiso   1.00
H204   H     0.82163   0.12850   0.42407   0.00000  Uiso   1.00
C205   C     0.95746   0.02152   0.26891   0.00000  Uiso   1.00
C206   C     0.70922   0.31181   0.23109   0.00000  Uiso   1.00
H207   H     0.92489   0.03818   0.28471   0.00000  Uiso   1.00
H208   H     0.74178   0.29515   0.21528   0.00000  Uiso   1.00
C209   C     0.95632   0.31201   0.26974   0.00000  Uiso   1.00
C210   C     0.71035   0.02133   0.23026   0.00000  Uiso   1.00
C211   C     0.99946   0.29053   0.25100   0.00000  Uiso   1.00
C212   C     0.66721   0.04281   0.24899   0.00000  Uiso   1.00
C213   C     0.84922   0.14305   0.28069   0.00000  Uiso   1.00
C214   C     0.81745   0.19029   0.21931   0.00000  Uiso   1.00
C215   C     0.79917   0.14383   0.28070   0.00000  Uiso   1.00
C216   C     0.86750   0.18950   0.21930   0.00000  Uiso   1.00
H217   H     0.77205   0.12661   0.30534   0.00000  Uiso   1.00
H218   H     0.89462   0.20673   0.19466   0.00000  Uiso   1.00
N219   N     0.78403   0.16668   0.24999   0.00000  Uiso   1.00
N220   N     0.88264   0.16666   0.25001   0.00000  Uiso   1.00
N221   N     0.93568   0.22054   0.04334   0.00000  Uiso   1.00
O222   O     0.96043   0.25266   0.02422   0.00000  Uiso   1.00
O223   O     0.93073   0.21368   0.08566   0.00000  Uiso   1.00
N224   N     0.73122   0.11244   0.45675   0.00000  Uiso   1.00
O225   O     0.73606   0.11935   0.41446   0.00000  Uiso   1.00
O226   O     0.70661   0.08024   0.47585   0.00000  Uiso   1.00
O227   O     0.91456   0.29100   0.29250   0.00000  Uiso   1.00
C228   C     0.87894   0.29614   0.26930   0.00000  Uiso   1.00
H229   H     0.84918   0.27370   0.28306   0.00000  Uiso   1.00
H230   H     0.89357   0.28991   0.23300   0.00000  Uiso   1.00
H231   H     0.86308   0.32744   0.27419   0.00000  Uiso   1.00
O232   O     0.75211   0.04233   0.20749   0.00000  Uiso   1.00
C233   C     0.78774   0.03719   0.23069   0.00000  Uiso   1.00
H234   H     0.77311   0.04342   0.26699   0.00000  Uiso   1.00
H235   H     0.81750   0.05962   0.21692   0.00000  Uiso   1.00
H236   H     0.80359   0.00588   0.22580   0.00000  Uiso   1.00
O237   O     0.86517   0.12151   0.31299   0.00000  Uiso   1.00
C238   C     0.84069   0.08370   0.32565   0.00000  Uiso   1.00
H239   H     0.83810   0.06598   0.29615   0.00000  Uiso   1.00
H240   H     0.80451   0.08841   0.34929   0.00000  Uiso   1.00
H241   H     0.86163   0.06493   0.34391   0.00000  Uiso   1.00
O242   O     0.80148   0.21183   0.18702   0.00000  Uiso   1.00
C243   C     0.82601   0.24962   0.17430   0.00000  Uiso   1.00
H244   H     0.86217   0.24486   0.15064   0.00000  Uiso   1.00
H245   H     0.82867   0.26735   0.20377   0.00000  Uiso   1.00
H246   H     0.80507   0.26840   0.15606   0.00000  Uiso   1.00
O247   O     0.03958   0.43989   0.25000   0.00000  Uiso   1.00
O248   O     0.29375   0.56011   0.25000   0.00000  Uiso   1.00
O249   O     0.29372   0.43988   0.25000   0.00000  Uiso   1.00
O250   O     0.03961   0.56012   0.25000   0.00000  Uiso   1.00
C251   C     0.00022   0.42077   0.24938   0.00000  Uiso   1.00
C252   C     0.33311   0.57923   0.25062   0.00000  Uiso   1.00
O253   O     0.01852   0.50001   0.31492   0.00000  Uiso   1.00
O254   O     0.31481   0.49999   0.18508   0.00000  Uiso   1.00
O255   O     0.27267   0.50000   0.31492   0.00000  Uiso   1.00
O256   O     0.06067   0.50000   0.18508   0.00000  Uiso   1.00
C257   C     0.30602   0.50048   0.33595   0.00000  Uiso   1.00
C258   C     0.02731   0.49952   0.16405   0.00000  Uiso   1.00
Cu259  Cu    0.04689   0.50001   0.25000   0.00000  Uiso   1.00
Cu260  Cu    0.28645   0.49999   0.25000   0.00000  Uiso   1.00
C261   C     0.29088   0.50364   0.38474   0.00000  Uiso   1.00
C262   C     0.04247   0.49632   0.11526   0.00000  Uiso   1.00
C263   C     0.30666   0.52396   0.45370   0.00000  Uiso   1.00
C264   C     0.02681   0.47573   0.04634   0.00000  Uiso   1.00
C265   C     0.32330   0.51630   0.40825   0.00000  Uiso   1.00
C266   C     0.01012   0.48346   0.09177   0.00000  Uiso   1.00
C267   C     0.24236   0.49639   0.40751   0.00000  Uiso   1.00
C268   C     0.09097   0.50368   0.09250   0.00000  Uiso   1.00
C269   C     0.22465   0.50277   0.45371   0.00000  Uiso   1.00
C270   C     0.10877   0.49713   0.04634   0.00000  Uiso   1.00
C271   C     0.25706   0.51946   0.47639   0.00000  Uiso   1.00
C272   C     0.07640   0.48031   0.02366   0.00000  Uiso   1.00
C273   C     0.17533   0.49442   0.47729   0.00000  Uiso   1.00
C274   C     0.15811   0.50545   0.02278   0.00000  Uiso   1.00
C275   C     0.19042   0.52529   0.04311   0.00000  Uiso   1.00
C276   C     0.14307   0.47449   0.45697   0.00000  Uiso   1.00
C277   C     0.23917   0.53188   0.02089   0.00000  Uiso   1.00
C278   C     0.09434   0.46785   0.47918   0.00000  Uiso   1.00
H279   H     0.11455   0.51281   0.11222   0.00000  Uiso   1.00
H280   H     0.21867   0.48750   0.38779   0.00000  Uiso   1.00
H281   H     0.30561   0.47783   0.10880   0.00000  Uiso   1.00
H282   H     0.02782   0.52184   0.39122   0.00000  Uiso   1.00
H283   H     0.33294   0.53390   0.47061   0.00000  Uiso   1.00
H284   H     0.00057   0.46567   0.02944   0.00000  Uiso   1.00
H285   H     0.17861   0.53788   0.07604   0.00000  Uiso   1.00
H286   H     0.15496   0.46184   0.42407   0.00000  Uiso   1.00
C287   C     0.29079   0.35486   0.26891   0.00000  Uiso   1.00
C288   C     0.04255   0.64514   0.23109   0.00000  Uiso   1.00
H289   H     0.25822   0.37151   0.28471   0.00000  Uiso   1.00
H290   H     0.07512   0.62848   0.21528   0.00000  Uiso   1.00
C291   C     0.28965   0.64534   0.26974   0.00000  Uiso   1.00
C292   C     0.04368   0.35466   0.23026   0.00000  Uiso   1.00
C293   C     0.33280   0.62386   0.25100   0.00000  Uiso   1.00
C294   C     0.00054   0.37614   0.24899   0.00000  Uiso   1.00
C295   C     0.18255   0.47638   0.28069   0.00000  Uiso   1.00
C296   C     0.15078   0.52362   0.21931   0.00000  Uiso   1.00
C297   C     0.13250   0.47717   0.28070   0.00000  Uiso   1.00
C298   C     0.20083   0.52284   0.21930   0.00000  Uiso   1.00
H299   H     0.10538   0.45994   0.30534   0.00000  Uiso   1.00
H300   H     0.22795   0.54006   0.19466   0.00000  Uiso   1.00
N301   N     0.11736   0.50001   0.24999   0.00000  Uiso   1.00
N302   N     0.21597   0.49999   0.25001   0.00000  Uiso   1.00
N303   N     0.26901   0.55387   0.04334   0.00000  Uiso   1.00
O304   O     0.29376   0.58600   0.02422   0.00000  Uiso   1.00
O305   O     0.26406   0.54701   0.08566   0.00000  Uiso   1.00
N306   N     0.06455   0.44577   0.45675   0.00000  Uiso   1.00
O307   O     0.06940   0.45268   0.41446   0.00000  Uiso   1.00
O308   O     0.03994   0.41358   0.47585   0.00000  Uiso   1.00
O309   O     0.24790   0.62434   0.29250   0.00000  Uiso   1.00
C310   C     0.21227   0.62947   0.26930   0.00000  Uiso   1.00
H311   H     0.18252   0.60703   0.28306   0.00000  Uiso   1.00
H312   H     0.22691   0.62324   0.23300   0.00000  Uiso   1.00
H313   H     0.19641   0.66078   0.27419   0.00000  Uiso   1.00
O314   O     0.08544   0.37567   0.20749   0.00000  Uiso   1.00
C315   C     0.12107   0.37052   0.23069   0.00000  Uiso   1.00
H316   H     0.10644   0.37675   0.26699   0.00000  Uiso   1.00
H317   H     0.15083   0.39295   0.21692   0.00000  Uiso   1.00
H318   H     0.13692   0.33922   0.22580   0.00000  Uiso   1.00
O319   O     0.19851   0.45485   0.31299   0.00000  Uiso   1.00
C320   C     0.17402   0.41703   0.32565   0.00000  Uiso   1.00
H321   H     0.17143   0.39931   0.29615   0.00000  Uiso   1.00
H322   H     0.13784   0.42174   0.34929   0.00000  Uiso   1.00
H323   H     0.19496   0.39826   0.34391   0.00000  Uiso   1.00
O324   O     0.13481   0.54517   0.18702   0.00000  Uiso   1.00
C325   C     0.15935   0.58295   0.17430   0.00000  Uiso   1.00
H326   H     0.19550   0.57819   0.15064   0.00000  Uiso   1.00
H327   H     0.16201   0.60069   0.20377   0.00000  Uiso   1.00
H328   H     0.13841   0.60173   0.15606   0.00000  Uiso   1.00
O329   O     0.37291   0.43989   0.25000   0.00000  Uiso   1.00
O330   O     0.62709   0.56011   0.25000   0.00000  Uiso   1.00
O331   O     0.62706   0.43988   0.25000   0.00000  Uiso   1.00
O332   O     0.37294   0.56012   0.25000   0.00000  Uiso   1.00
C333   C     0.33356   0.42077   0.24938   0.00000  Uiso   1.00
C334   C     0.66644   0.57923   0.25062   0.00000  Uiso   1.00
O335   O     0.35186   0.50001   0.31492   0.00000  Uiso   1.00
O336   O     0.64814   0.49999   0.18508   0.00000  Uiso   1.00
O337   O     0.60600   0.50000   0.31492   0.00000  Uiso   1.00
O338   O     0.39400   0.50000   0.18508   0.00000  Uiso   1.00
C339   C     0.63935   0.50048   0.33595   0.00000  Uiso   1.00
C340   C     0.36065   0.49952   0.16405   0.00000  Uiso   1.00
Cu341  Cu    0.38022   0.50001   0.25000   0.00000  Uiso   1.00
Cu342  Cu    0.61978   0.49999   0.25000   0.00000  Uiso   1.00
C343   C     0.62421   0.50364   0.38474   0.00000  Uiso   1.00
C344   C     0.37580   0.49632   0.11526   0.00000  Uiso   1.00
C345   C     0.64000   0.52396   0.45370   0.00000  Uiso   1.00
C346   C     0.36014   0.47573   0.04634   0.00000  Uiso   1.00
C347   C     0.65663   0.51630   0.40825   0.00000  Uiso   1.00
C348   C     0.34345   0.48346   0.09177   0.00000  Uiso   1.00
C349   C     0.57569   0.49639   0.40751   0.00000  Uiso   1.00
C350   C     0.42430   0.50368   0.09250   0.00000  Uiso   1.00
C351   C     0.55798   0.50277   0.45371   0.00000  Uiso   1.00
C352   C     0.44210   0.49713   0.04634   0.00000  Uiso   1.00
C353   C     0.59040   0.51946   0.47639   0.00000  Uiso   1.00
C354   C     0.40974   0.48031   0.02366   0.00000  Uiso   1.00
C355   C     0.50867   0.49442   0.47729   0.00000  Uiso   1.00
C356   C     0.49144   0.50545   0.02278   0.00000  Uiso   1.00
C357   C     0.52376   0.52529   0.04311   0.00000  Uiso   1.00
C358   C     0.47641   0.47449   0.45697   0.00000  Uiso   1.00
C359   C     0.57251   0.53188   0.02089   0.00000  Uiso   1.00
C360   C     0.42767   0.46785   0.47918   0.00000  Uiso   1.00
H361   H     0.44789   0.51281   0.11222   0.00000  Uiso   1.00
H362   H     0.55200   0.48750   0.38779   0.00000  Uiso   1.00
H363   H     0.63895   0.47783   0.10880   0.00000  Uiso   1.00
H364   H     0.36116   0.52184   0.39122   0.00000  Uiso   1.00
H365   H     0.66628   0.53390   0.47061   0.00000  Uiso   1.00
H366   H     0.33391   0.46567   0.02944   0.00000  Uiso   1.00
H367   H     0.51194   0.53788   0.07604   0.00000  Uiso   1.00
H368   H     0.48830   0.46184   0.42407   0.00000  Uiso   1.00
C369   C     0.62412   0.35486   0.26891   0.00000  Uiso   1.00
C370   C     0.37588   0.64514   0.23109   0.00000  Uiso   1.00
H371   H     0.59156   0.37151   0.28471   0.00000  Uiso   1.00
H372   H     0.40845   0.62848   0.21528   0.00000  Uiso   1.00
C373   C     0.62299   0.64534   0.26974   0.00000  Uiso   1.00
C374   C     0.37702   0.35466   0.23026   0.00000  Uiso   1.00
C375   C     0.66613   0.62386   0.25100   0.00000  Uiso   1.00
C376   C     0.33387   0.37614   0.24899   0.00000  Uiso   1.00
C377   C     0.51588   0.47638   0.28069   0.00000  Uiso   1.00
C378   C     0.48411   0.52362   0.21931   0.00000  Uiso   1.00
C379   C     0.46584   0.47717   0.28070   0.00000  Uiso   1.00
C380   C     0.53416   0.52284   0.21930   0.00000  Uiso   1.00
H381   H     0.43871   0.45994   0.30534   0.00000  Uiso   1.00
H382   H     0.56129   0.54006   0.19466   0.00000  Uiso   1.00
N383   N     0.45069   0.50001   0.24999   0.00000  Uiso   1.00
N384   N     0.54931   0.49999   0.25001   0.00000  Uiso   1.00
N385   N     0.60234   0.55387   0.04334   0.00000  Uiso   1.00
O386   O     0.62710   0.58600   0.02422   0.00000  Uiso   1.00
O387   O     0.59739   0.54701   0.08566   0.00000  Uiso   1.00
N388   N     0.39788   0.44577   0.45675   0.00000  Uiso   1.00
O389   O     0.40273   0.45268   0.41446   0.00000  Uiso   1.00
O390   O     0.37328   0.41358   0.47585   0.00000  Uiso   1.00
O391   O     0.58123   0.62434   0.29250   0.00000  Uiso   1.00
C392   C     0.54561   0.62947   0.26930   0.00000  Uiso   1.00
H393   H     0.51585   0.60703   0.28306   0.00000  Uiso   1.00
H394   H     0.56024   0.62324   0.23300   0.00000  Uiso   1.00
H395   H     0.52975   0.66078   0.27419   0.00000  Uiso   1.00
O396   O     0.41878   0.37567   0.20749   0.00000  Uiso   1.00
C397   C     0.45440   0.37052   0.23069   0.00000  Uiso   1.00
H398   H     0.43978   0.37675   0.26699   0.00000  Uiso   1.00
H399   H     0.48416   0.39295   0.21692   0.00000  Uiso   1.00
H400   H     0.47025   0.33922   0.22580   0.00000  Uiso   1.00
O401   O     0.53184   0.45485   0.31299   0.00000  Uiso   1.00
C402   C     0.50736   0.41703   0.32565   0.00000  Uiso   1.00
H403   H     0.50476   0.39931   0.29615   0.00000  Uiso   1.00
H404   H     0.47118   0.42174   0.34929   0.00000  Uiso   1.00
H405   H     0.52829   0.39826   0.34391   0.00000  Uiso   1.00
O406   O     0.46815   0.54517   0.18702   0.00000  Uiso   1.00
C407   C     0.49268   0.58295   0.17430   0.00000  Uiso   1.00
H408   H     0.52884   0.57819   0.15064   0.00000  Uiso   1.00
H409   H     0.49534   0.60069   0.20377   0.00000  Uiso   1.00
H410   H     0.47174   0.60173   0.15606   0.00000  Uiso   1.00
O411   O     0.70625   0.43989   0.25000   0.00000  Uiso   1.00
O412   O     0.96042   0.56011   0.25000   0.00000  Uiso   1.00
O413   O     0.96039   0.43988   0.25000   0.00000  Uiso   1.00
O414   O     0.70628   0.56012   0.25000   0.00000  Uiso   1.00
C415   C     0.66689   0.42077   0.24938   0.00000  Uiso   1.00
C416   C     0.99978   0.57923   0.25062   0.00000  Uiso   1.00
O417   O     0.68519   0.50001   0.31492   0.00000  Uiso   1.00
O418   O     0.98148   0.49999   0.18508   0.00000  Uiso   1.00
O419   O     0.93933   0.50000   0.31492   0.00000  Uiso   1.00
O420   O     0.72733   0.50000   0.18508   0.00000  Uiso   1.00
C421   C     0.97269   0.50048   0.33595   0.00000  Uiso   1.00
C422   C     0.69398   0.49952   0.16405   0.00000  Uiso   1.00
Cu423  Cu    0.71355   0.50001   0.25000   0.00000  Uiso   1.00
Cu424  Cu    0.95311   0.49999   0.25000   0.00000  Uiso   1.00
C425   C     0.95755   0.50364   0.38474   0.00000  Uiso   1.00
C426   C     0.70914   0.49632   0.11526   0.00000  Uiso   1.00
C427   C     0.97333   0.52396   0.45370   0.00000  Uiso   1.00
C428   C     0.69348   0.47573   0.04634   0.00000  Uiso   1.00
C429   C     0.98997   0.51630   0.40825   0.00000  Uiso   1.00
C430   C     0.67679   0.48346   0.09177   0.00000  Uiso   1.00
C431   C     0.90903   0.49639   0.40751   0.00000  Uiso   1.00
C432   C     0.75764   0.50368   0.09250   0.00000  Uiso   1.00
C433   C     0.89132   0.50277   0.45371   0.00000  Uiso   1.00
C434   C     0.77544   0.49713   0.04634   0.00000  Uiso   1.00
C435   C     0.92373   0.51946   0.47639   0.00000  Uiso   1.00
C436   C     0.74307   0.48031   0.02366   0.00000  Uiso   1.00
C437   C     0.84200   0.49442   0.47729   0.00000  Uiso   1.00
C438   C     0.82478   0.50545   0.02278   0.00000  Uiso   1.00
C439   C     0.85709   0.52529   0.04311   0.00000  Uiso   1.00
C440   C     0.80974   0.47449   0.45697   0.00000  Uiso   1.00
C441   C     0.90584   0.53188   0.02089   0.00000  Uiso   1.00
C442   C     0.76101   0.46785   0.47918   0.00000  Uiso   1.00
H443   H     0.78122   0.51281   0.11222   0.00000  Uiso   1.00
H444   H     0.88533   0.48750   0.38779   0.00000  Uiso   1.00
H445   H     0.97228   0.47783   0.10880   0.00000  Uiso   1.00
H446   H     0.69449   0.52184   0.39122   0.00000  Uiso   1.00
H447   H     0.99961   0.53390   0.47061   0.00000  Uiso   1.00
H448   H     0.66724   0.46567   0.02944   0.00000  Uiso   1.00
H449   H     0.84527   0.53788   0.07604   0.00000  Uiso   1.00
H450   H     0.82163   0.46184   0.42407   0.00000  Uiso   1.00
C451   C     0.95746   0.35486   0.26891   0.00000  Uiso   1.00
C452   C     0.70922   0.64514   0.23109   0.00000  Uiso   1.00
H453   H     0.92489   0.37151   0.28471   0.00000  Uiso   1.00
H454   H     0.74178   0.62848   0.21528   0.00000  Uiso   1.00
C455   C     0.95632   0.64534   0.26974   0.00000  Uiso   1.00
C456   C     0.71035   0.35466   0.23026   0.00000  Uiso   1.00
C457   C     0.99946   0.62386   0.25100   0.00000  Uiso   1.00
C458   C     0.66721   0.37614   0.24899   0.00000  Uiso   1.00
C459   C     0.84922   0.47638   0.28069   0.00000  Uiso   1.00
C460   C     0.81745   0.52362   0.21931   0.00000  Uiso   1.00
C461   C     0.79917   0.47717   0.28070   0.00000  Uiso   1.00
C462   C     0.86750   0.52284   0.21930   0.00000  Uiso   1.00
H463   H     0.77205   0.45994   0.30534   0.00000  Uiso   1.00
H464   H     0.89462   0.54006   0.19466   0.00000  Uiso   1.00
N465   N     0.78403   0.50001   0.24999   0.00000  Uiso   1.00
N466   N     0.88264   0.49999   0.25001   0.00000  Uiso   1.00
N467   N     0.93568   0.55387   0.04334   0.00000  Uiso   1.00
O468   O     0.96043   0.58600   0.02422   0.00000  Uiso   1.00
O469   O     0.93073   0.54701   0.08566   0.00000  Uiso   1.00
N470   N     0.73122   0.44577   0.45675   0.00000  Uiso   1.00
O471   O     0.73606   0.45268   0.41446   0.00000  Uiso   1.00
O472   O     0.70661   0.41358   0.47585   0.00000  Uiso   1.00
O473   O     0.91456   0.62434   0.29250   0.00000  Uiso   1.00
C474   C     0.87894   0.62947   0.26930   0.00000  Uiso   1.00
H475   H     0.84918   0.60703   0.28306   0.00000  Uiso   1.00
H476   H     0.89357   0.62324   0.23300   0.00000  Uiso   1.00
H477   H     0.86308   0.66078   0.27419   0.00000  Uiso   1.00
O478   O     0.75211   0.37567   0.20749   0.00000  Uiso   1.00
C479   C     0.78774   0.37052   0.23069   0.00000  Uiso   1.00
H480   H     0.77311   0.37675   0.26699   0.00000  Uiso   1.00
H481   H     0.81750   0.39295   0.21692   0.00000  Uiso   1.00
H482   H     0.80359   0.33922   0.22580   0.00000  Uiso   1.00
O483   O     0.86517   0.45485   0.31299   0.00000  Uiso   1.00
C484   C     0.84069   0.41703   0.32565   0.00000  Uiso   1.00
H485   H     0.83810   0.39931   0.29615   0.00000  Uiso   1.00
H486   H     0.80451   0.42174   0.34929   0.00000  Uiso   1.00
H487   H     0.86163   0.39826   0.34391   0.00000  Uiso   1.00
O488   O     0.80148   0.54517   0.18702   0.00000  Uiso   1.00
C489   C     0.82601   0.58295   0.17430   0.00000  Uiso   1.00
H490   H     0.86217   0.57819   0.15064   0.00000  Uiso   1.00
H491   H     0.82867   0.60069   0.20377   0.00000  Uiso   1.00
H492   H     0.80507   0.60173   0.15606   0.00000  Uiso   1.00
O493   O     0.03958   0.77322   0.25000   0.00000  Uiso   1.00
O494   O     0.29375   0.89345   0.25000   0.00000  Uiso   1.00
O495   O     0.29372   0.77321   0.25000   0.00000  Uiso   1.00
O496   O     0.03961   0.89346   0.25000   0.00000  Uiso   1.00
C497   C     0.00022   0.75411   0.24938   0.00000  Uiso   1.00
C498   C     0.33311   0.91256   0.25062   0.00000  Uiso   1.00
O499   O     0.01852   0.83334   0.31492   0.00000  Uiso   1.00
O500   O     0.31481   0.83332   0.18508   0.00000  Uiso   1.00
O501   O     0.27267   0.83333   0.31492   0.00000  Uiso   1.00
O502   O     0.06067   0.83333   0.18508   0.00000  Uiso   1.00
C503   C     0.30602   0.83381   0.33595   0.00000  Uiso   1.00
C504   C     0.02731   0.83286   0.16405   0.00000  Uiso   1.00
Cu505  Cu    0.04689   0.83334   0.25000   0.00000  Uiso   1.00
Cu506  Cu    0.28645   0.83333   0.25000   0.00000  Uiso   1.00
C507   C     0.29088   0.83697   0.38474   0.00000  Uiso   1.00
C508   C     0.04247   0.82966   0.11526   0.00000  Uiso   1.00
C509   C     0.30666   0.85730   0.45370   0.00000  Uiso   1.00
C510   C     0.02681   0.80907   0.04634   0.00000  Uiso   1.00
C511   C     0.32330   0.84963   0.40825   0.00000  Uiso   1.00
C512   C     0.01012   0.81680   0.09177   0.00000  Uiso   1.00
C513   C     0.24236   0.82972   0.40751   0.00000  Uiso   1.00
C514   C     0.09097   0.83701   0.09250   0.00000  Uiso   1.00
C515   C     0.22465   0.83610   0.45371   0.00000  Uiso   1.00
C516   C     0.10877   0.83046   0.04634   0.00000  Uiso   1.00
C517   C     0.25706   0.85279   0.47639   0.00000  Uiso   1.00
C518   C     0.07640   0.81365   0.02366   0.00000  Uiso   1.00
C519   C     0.17533   0.82775   0.47729   0.00000  Uiso   1.00
C520   C     0.15811   0.83878   0.02278   0.00000  Uiso   1.00
C521   C     0.19042   0.85862   0.04311   0.00000  Uiso   1.00
C522   C     0.14307   0.80782   0.45697   0.00000  Uiso   1.00
C523   C     0.23917   0.86521   0.02089   0.00000  Uiso   1.00
C524   C     0.09434   0.80118   0.47918   0.00000  Uiso   1.00
H525   H     0.11455   0.84615   0.11222   0.00000  Uiso   1.00
H526   H     0.21867   0.82084   0.38779   0.00000  Uiso   1.00
H527   H     0.30561   0.81117   0.10880   0.00000  Uiso   1.00
H528   H     0.02782   0.85517   0.39122   0.00000  Uiso   1.00
H529   H     0.33294   0.86723   0.47061   0.00000  Uiso   1.00
H530   H     0.00057   0.79900   0.02944   0.00000  Uiso   1.00
H531   H     0.17861   0.87121   0.07604   0.00000  Uiso   1.00
H532   H     0.15496   0.79517   0.42407   0.00000  Uiso   1.00
C533   C     0.29079   0.68819   0.26891   0.00000  Uiso   1.00
C534   C     0.04255   0.97848   0.23109   0.00000  Uiso   1.00
H535   H     0.25822   0.70485   0.28471   0.00000  Uiso   1.00
H536   H     0.07512   0.96182   0.21528   0.00000  Uiso   1.00
C537   C     0.28965   0.97867   0.26974   0.00000  Uiso   1.00
C538   C     0.04368   0.68799   0.23026   0.00000  Uiso   1.00
C539   C     0.33280   0.95719   0.25100   0.00000  Uiso   1.00
C540   C     0.00054   0.70947   0.24899   0.00000  Uiso   1.00
C541   C     0.18255   0.80972   0.28069   0.00000  Uiso   1.00
C542   C     0.15078   0.85695   0.21931   0.00000  Uiso   1.00
C543   C     0.13250   0.81050   0.28070   0.00000  Uiso   1.00
C544   C     0.20083   0.85617   0.21930   0.00000  Uiso   1.00
H545   H     0.10538   0.79328   0.30534   0.00000  Uiso   1.00
H546   H     0.22795   0.87340   0.19466   0.00000  Uiso   1.00
N547   N     0.11736   0.83334   0.24999   0.00000  Uiso   1.00
N548   N     0.21597   0.83332   0.25001   0.00000  Uiso   1.00
N549   N     0.26901   0.88721   0.04334   0.00000  Uiso   1.00
O550   O     0.29376   0.91933   0.02422   0.00000  Uiso   1.00
O551   O     0.26406   0.88034   0.08566   0.00000  Uiso   1.00
N552   N     0.06455   0.77911   0.45675   0.00000  Uiso   1.00
O553   O     0.06940   0.78602   0.41446   0.00000  Uiso   1.00
O554   O     0.03994   0.74691   0.47585   0.00000  Uiso   1.00
O555   O     0.24790   0.95767   0.29250   0.00000  Uiso   1.00
C556   C     0.21227   0.96280   0.26930   0.00000  Uiso   1.00
H557   H     0.18252   0.94037   0.28306   0.00000  Uiso   1.00
H558   H     0.22691   0.95658   0.23300   0.00000  Uiso   1.00
H559   H     0.19641   0.99411   0.27419   0.00000  Uiso   1.00
O560   O     0.08544   0.70900   0.20749   0.00000  Uiso   1.00
C561   C     0.12107   0.70386   0.23069   0.00000  Uiso   1.00
H562   H     0.10644   0.71008   0.26699   0.00000  Uiso   1.00
H563   H     0.15083   0.72629   0.21692   0.00000  Uiso   1.00
H564   H     0.13692   0.67255   0.22580   0.00000  Uiso   1.00
O565   O     0.19851   0.78818   0.31299   0.00000  Uiso   1.00
C566   C     0.17402   0.75036   0.32565   0.00000  Uiso   1.00
H567   H     0.17143   0.73264   0.29615   0.00000  Uiso   1.00
H568   H     0.13784   0.75508   0.34929   0.00000  Uiso   1.00
H569   H     0.19496   0.73160   0.34391   0.00000  Uiso   1.00
O570   O     0.13481   0.87850   0.18702   0.00000  Uiso   1.00
C571   C     0.15935   0.91628   0.17430   0.00000  Uiso   1.00
H572   H     0.19550   0.91152   0.15064   0.00000  Uiso   1.00
H573   H     0.16201   0.93402   0.20377   0.00000  Uiso   1.00
H574   H     0.13841   0.93507   0.15606   0.00000  Uiso   1.00
O575   O     0.37291   0.77322   0.25000   0.00000  Uiso   1.00
O576   O     0.62709   0.89345   0.25000   0.00000  Uiso   1.00
O577   O     0.62706   0.77321   0.25000   0.00000  Uiso   1.00
O578   O     0.37294   0.89346   0.25000   0.00000  Uiso   1.00
C579   C     0.33356   0.75411   0.24938   0.00000  Uiso   1.00
C580   C     0.66644   0.91256   0.25062   0.00000  Uiso   1.00
O581   O     0.35186   0.83334   0.31492   0.00000  Uiso   1.00
O582   O     0.64814   0.83332   0.18508   0.00000  Uiso   1.00
O583   O     0.60600   0.83333   0.31492   0.00000  Uiso   1.00
O584   O     0.39400   0.83333   0.18508   0.00000  Uiso   1.00
C585   C     0.63935   0.83381   0.33595   0.00000  Uiso   1.00
C586   C     0.36065   0.83286   0.16405   0.00000  Uiso   1.00
Cu587  Cu    0.38022   0.83334   0.25000   0.00000  Uiso   1.00
Cu588  Cu    0.61978   0.83333   0.25000   0.00000  Uiso   1.00
C589   C     0.62421   0.83697   0.38474   0.00000  Uiso   1.00
C590   C     0.37580   0.82966   0.11526   0.00000  Uiso   1.00
C591   C     0.64000   0.85730   0.45370   0.00000  Uiso   1.00
C592   C     0.36014   0.80907   0.04634   0.00000  Uiso   1.00
C593   C     0.65663   0.84963   0.40825   0.00000  Uiso   1.00
C594   C     0.34345   0.81680   0.09177   0.00000  Uiso   1.00
C595   C     0.57569   0.82972   0.40751   0.00000  Uiso   1.00
C596   C     0.42430   0.83701   0.09250   0.00000  Uiso   1.00
C597   C     0.55798   0.83610   0.45371   0.00000  Uiso   1.00
C598   C     0.44210   0.83046   0.04634   0.00000  Uiso   1.00
C599   C     0.59040   0.85279   0.47639   0.00000  Uiso   1.00
C600   C     0.40974   0.81365   0.02366   0.00000  Uiso   1.00
C601   C     0.50867   0.82775   0.47729   0.00000  Uiso   1.00
C602   C     0.49144   0.83878   0.02278   0.00000  Uiso   1.00
C603   C     0.52376   0.85862   0.04311   0.00000  Uiso   1.00
C604   C     0.47641   0.80782   0.45697   0.00000  Uiso   1.00
C605   C     0.57251   0.86521   0.02089   0.00000  Uiso   1.00
C606   C     0.42767   0.80118   0.47918   0.00000  Uiso   1.00
H607   H     0.44789   0.84615   0.11222   0.00000  Uiso   1.00
H608   H     0.55200   0.82084   0.38779   0.00000  Uiso   1.00
H609   H     0.63895   0.81117   0.10880   0.00000  Uiso   1.00
H610   H     0.36116   0.85517   0.39122   0.00000  Uiso   1.00
H611   H     0.66628   0.86723   0.47061   0.00000  Uiso   1.00
H612   H     0.33391   0.79900   0.02944   0.00000  Uiso   1.00
H613   H     0.51194   0.87121   0.07604   0.00000  Uiso   1.00
H614   H     0.48830   0.79517   0.42407   0.00000  Uiso   1.00
C615   C     0.62412   0.68819   0.26891   0.00000  Uiso   1.00
C616   C     0.37588   0.97848   0.23109   0.00000  Uiso   1.00
H617   H     0.59156   0.70485   0.28471   0.00000  Uiso   1.00
H618   H     0.40845   0.96182   0.21528   0.00000  Uiso   1.00
C619   C     0.62299   0.97867   0.26974   0.00000  Uiso   1.00
C620   C     0.37702   0.68799   0.23026   0.00000  Uiso   1.00
C621   C     0.66613   0.95719   0.25100   0.00000  Uiso   1.00
C622   C     0.33387   0.70947   0.24899   0.00000  Uiso   1.00
C623   C     0.51588   0.80972   0.28069   0.00000  Uiso   1.00
C624   C     0.48411   0.85695   0.21931   0.00000  Uiso   1.00
C625   C     0.46584   0.81050   0.28070   0.00000  Uiso   1.00
C626   C     0.53416   0.85617   0.21930   0.00000  Uiso   1.00
H627   H     0.43871   0.79328   0.30534   0.00000  Uiso   1.00
H628   H     0.56129   0.87340   0.19466   0.00000  Uiso   1.00
N629   N     0.45069   0.83334   0.24999   0.00000  Uiso   1.00
N630   N     0.54931   0.83332   0.25001   0.00000  Uiso   1.00
N631   N     0.60234   0.88721   0.04334   0.00000  Uiso   1.00
O632   O     0.62710   0.91933   0.02422   0.00000  Uiso   1.00
O633   O     0.59739   0.88034   0.08566   0.00000  Uiso   1.00
N634   N     0.39788   0.77911   0.45675   0.00000  Uiso   1.00
O635   O     0.40273   0.78602   0.41446   0.00000  Uiso   1.00
O636   O     0.37328   0.74691   0.47585   0.00000  Uiso   1.00
O637   O     0.58123   0.95767   0.29250   0.00000  Uiso   1.00
C638   C     0.54561   0.96280   0.26930   0.00000  Uiso   1.00
H639   H     0.51585   0.94037   0.28306   0.00000  Uiso   1.00
H640   H     0.56024   0.95658   0.23300   0.00000  Uiso   1.00
H641   H     0.52975   0.99411   0.27419   0.00000  Uiso   1.00
O642   O     0.41878   0.70900   0.20749   0.00000  Uiso   1.00
C643   C     0.45440   0.70386   0.23069   0.00000  Uiso   1.00
H644   H     0.43978   0.71008   0.26699   0.00000  Uiso   1.00
H645   H     0.48416   0.72629   0.21692   0.00000  Uiso   1.00
H646   H     0.47025   0.67255   0.22580   0.00000  Uiso   1.00
O647   O     0.53184   0.78818   0.31299   0.00000  Uiso   1.00
C648   C     0.50736   0.75036   0.32565   0.00000  Uiso   1.00
H649   H     0.50476   0.73264   0.29615   0.00000  Uiso   1.00
H650   H     0.47118   0.75508   0.34929   0.00000  Uiso   1.00
H651   H     0.52829   0.73160   0.34391   0.00000  Uiso   1.00
O652   O     0.46815   0.87850   0.18702   0.00000  Uiso   1.00
C653   C     0.49268   0.91628   0.17430   0.00000  Uiso   1.00
H654   H     0.52884   0.91152   0.15064   0.00000  Uiso   1.00
H655   H     0.49534   0.93402   0.20377   0.00000  Uiso   1.00
H656   H     0.47174   0.93507   0.15606   0.00000  Uiso   1.00
O657   O     0.70625   0.77322   0.25000   0.00000  Uiso   1.00
O658   O     0.96042   0.89345   0.25000   0.00000  Uiso   1.00
O659   O     0.96039   0.77321   0.25000   0.00000  Uiso   1.00
O660   O     0.70628   0.89346   0.25000   0.00000  Uiso   1.00
C661   C     0.66689   0.75411   0.24938   0.00000  Uiso   1.00
C662   C     0.99978   0.91256   0.25062   0.00000  Uiso   1.00
O663   O     0.68519   0.83334   0.31492   0.00000  Uiso   1.00
O664   O     0.98148   0.83332   0.18508   0.00000  Uiso   1.00
O665   O     0.93933   0.83333   0.31492   0.00000  Uiso   1.00
O666   O     0.72733   0.83333   0.18508   0.00000  Uiso   1.00
C667   C     0.97269   0.83381   0.33595   0.00000  Uiso   1.00
C668   C     0.69398   0.83286   0.16405   0.00000  Uiso   1.00
Cu669  Cu    0.71355   0.83334   0.25000   0.00000  Uiso   1.00
Cu670  Cu    0.95311   0.83333   0.25000   0.00000  Uiso   1.00
C671   C     0.95755   0.83697   0.38474   0.00000  Uiso   1.00
C672   C     0.70914   0.82966   0.11526   0.00000  Uiso   1.00
C673   C     0.97333   0.85730   0.45370   0.00000  Uiso   1.00
C674   C     0.69348   0.80907   0.04634   0.00000  Uiso   1.00
C675   C     0.98997   0.84963   0.40825   0.00000  Uiso   1.00
C676   C     0.67679   0.81680   0.09177   0.00000  Uiso   1.00
C677   C     0.90903   0.82972   0.40751   0.00000  Uiso   1.00
C678   C     0.75764   0.83701   0.09250   0.00000  Uiso   1.00
C679   C     0.89132   0.83610   0.45371   0.00000  Uiso   1.00
C680   C     0.77544   0.83046   0.04634   0.00000  Uiso   1.00
C681   C     0.92373   0.85279   0.47639   0.00000  Uiso   1.00
C682   C     0.74307   0.81365   0.02366   0.00000  Uiso   1.00
C683   C     0.84200   0.82775   0.47729   0.00000  Uiso   1.00
C684   C     0.82478   0.83878   0.02278   0.00000  Uiso   1.00
C685   C     0.85709   0.85862   0.04311   0.00000  Uiso   1.00
C686   C     0.80974   0.80782   0.45697   0.00000  Uiso   1.00
C687   C     0.90584   0.86521   0.02089   0.00000  Uiso   1.00
C688   C     0.76101   0.80118   0.47918   0.00000  Uiso   1.00
H689   H     0.78122   0.84615   0.11222   0.00000  Uiso   1.00
H690   H     0.88533   0.82084   0.38779   0.00000  Uiso   1.00
H691   H     0.97228   0.81117   0.10880   0.00000  Uiso   1.00
H692   H     0.69449   0.85517   0.39122   0.00000  Uiso   1.00
H693   H     0.99961   0.86723   0.47061   0.00000  Uiso   1.00
H694   H     0.66724   0.79900   0.02944   0.00000  Uiso   1.00
H695   H     0.84527   0.87121   0.07604   0.00000  Uiso   1.00
H696   H     0.82163   0.79517   0.42407   0.00000  Uiso   1.00
C697   C     0.95746   0.68819   0.26891   0.00000  Uiso   1.00
C698   C     0.70922   0.97848   0.23109   0.00000  Uiso   1.00
H699   H     0.92489   0.70485   0.28471   0.00000  Uiso   1.00
H700   H     0.74178   0.96182   0.21528   0.00000  Uiso   1.00
C701   C     0.95632   0.97867   0.26974   0.00000  Uiso   1.00
C702   C     0.71035   0.68799   0.23026   0.00000  Uiso   1.00
C703   C     0.99946   0.95719   0.25100   0.00000  Uiso   1.00
C704   C     0.66721   0.70947   0.24899   0.00000  Uiso   1.00
C705   C     0.84922   0.80972   0.28069   0.00000  Uiso   1.00
C706   C     0.81745   0.85695   0.21931   0.00000  Uiso   1.00
C707   C     0.79917   0.81050   0.28070   0.00000  Uiso   1.00
C708   C     0.86750   0.85617   0.21930   0.00000  Uiso   1.00
H709   H     0.77205   0.79328   0.30534   0.00000  Uiso   1.00
H710   H     0.89462   0.87340   0.19466   0.00000  Uiso   1.00
N711   N     0.78403   0.83334   0.24999   0.00000  Uiso   1.00
N712   N     0.88264   0.83332   0.25001   0.00000  Uiso   1.00
N713   N     0.93568   0.88721   0.04334   0.00000  Uiso   1.00
O714   O     0.96043   0.91933   0.02422   0.00000  Uiso   1.00
O715   O     0.93073   0.88034   0.08566   0.00000  Uiso   1.00
N716   N     0.73122   0.77911   0.45675   0.00000  Uiso   1.00
O717   O     0.73606   0.78602   0.41446   0.00000  Uiso   1.00
O718   O     0.70661   0.74691   0.47585   0.00000  Uiso   1.00
O719   O     0.91456   0.95767   0.29250   0.00000  Uiso   1.00
C720   C     0.87894   0.96280   0.26930   0.00000  Uiso   1.00
H721   H     0.84918   0.94037   0.28306   0.00000  Uiso   1.00
H722   H     0.89357   0.95658   0.23300   0.00000  Uiso   1.00
H723   H     0.86308   0.99411   0.27419   0.00000  Uiso   1.00
O724   O     0.75211   0.70900   0.20749   0.00000  Uiso   1.00
C725   C     0.78774   0.70386   0.23069   0.00000  Uiso   1.00
H726   H     0.77311   0.71008   0.26699   0.00000  Uiso   1.00
H727   H     0.81750   0.72629   0.21692   0.00000  Uiso   1.00
H728   H     0.80359   0.67255   0.22580   0.00000  Uiso   1.00
O729   O     0.86517   0.78818   0.31299   0.00000  Uiso   1.00
C730   C     0.84069   0.75036   0.32565   0.00000  Uiso   1.00
H731   H     0.83810   0.73264   0.29615   0.00000  Uiso   1.00
H732   H     0.80451   0.75508   0.34929   0.00000  Uiso   1.00
H733   H     0.86163   0.73160   0.34391   0.00000  Uiso   1.00
O734   O     0.80148   0.87850   0.18702   0.00000  Uiso   1.00
C735   C     0.82601   0.91628   0.17430   0.00000  Uiso   1.00
H736   H     0.86217   0.91152   0.15064   0.00000  Uiso   1.00
H737   H     0.82867   0.93402   0.20377   0.00000  Uiso   1.00
H738   H     0.80507   0.93507   0.15606   0.00000  Uiso   1.00
O739   O     0.03958   0.10655   0.75000   0.00000  Uiso   1.00
O740   O     0.29375   0.22678   0.75000   0.00000  Uiso   1.00
O741   O     0.29372   0.10654   0.75000   0.00000  Uiso   1.00
O742   O     0.03961   0.22679   0.75000   0.00000  Uiso   1.00
C743   C     0.00022   0.08744   0.74938   0.00000  Uiso   1.00
C744   C     0.33311   0.24589   0.75062   0.00000  Uiso   1.00
O745   O     0.01852   0.16668   0.81492   0.00000  Uiso   1.00
O746   O     0.31481   0.16666   0.68508   0.00000  Uiso   1.00
O747   O     0.27267   0.16667   0.81492   0.00000  Uiso   1.00
O748   O     0.06067   0.16667   0.68508   0.00000  Uiso   1.00
C749   C     0.30602   0.16715   0.83595   0.00000  Uiso   1.00
C750   C     0.02731   0.16619   0.66405   0.00000  Uiso   1.00
Cu751  Cu    0.04689   0.16667   0.75000   0.00000  Uiso   1.00
Cu752  Cu    0.28645   0.16666   0.75000   0.00000  Uiso   1.00
C753   C     0.29088   0.17030   0.88474   0.00000  Uiso   1.00
C754   C     0.04247   0.16299   0.61526   0.00000  Uiso   1.00
C755   C     0.30666   0.19063   0.95370   0.00000  Uiso   1.00
C756   C     0.02681   0.14240   0.54634   0.00000  Uiso   1.00
C757   C     0.32330   0.18297   0.90825   0.00000  Uiso   1.00
C758   C     0.01012   0.15013   0.59177   0.00000  Uiso   1.00
C759   C     0.24236   0.16305   0.90751   0.00000  Uiso   1.00
C760   C     0.09097   0.17034   0.59250   0.00000  Uiso   1.00
C761   C     0.22465   0.16944   0.95371   0.00000  Uiso   1.00
C762   C     0.10877   0.16380   0.54634   0.00000  Uiso   1.00
C763   C     0.25706   0.18613   0.97639   0.00000  Uiso   1.00
C764   C     0.07640   0.14698   0.52366   0.00000  Uiso   1.00
C765   C     0.17533   0.16108   0.97729   0.00000  Uiso   1.00
C766   C     0.15811   0.17211   0.52278   0.00000  Uiso   1.00
C767   C     0.19042   0.19196   0.54311   0.00000  Uiso   1.00
C768   C     0.14307   0.14116   0.95697   0.00000  Uiso   1.00
C769   C     0.23917   0.19854   0.52089   0.00000  Uiso   1.00
C770   C     0.09434   0.13451   0.97918   0.00000  Uiso   1.00
H771   H     0.11455   0.17948   0.61222   0.00000  Uiso   1.00
H772   H     0.21867   0.15417   0.88779   0.00000  Uiso   1.00
H773   H     0.30561   0.14450   0.60880   0.00000  Uiso   1.00
H774   H     0.02782   0.18850   0.89122   0.00000  Uiso   1.00
H775   H     0.33294   0.20057   0.97061   0.00000  Uiso   1.00
H776   H     0.00057   0.13233   0.52944   0.00000  Uiso   1.00
H777   H     0.17861   0.20454   0.57604   0.00000  Uiso   1.00
H778   H     0.15496   0.12850   0.92407   0.00000  Uiso   1.00
C779   C     0.29079   0.02152   0.76891   0.00000  Uiso   1.00
C780   C     0.04255   0.31181   0.73109   0.00000  Uiso   1.00
H781   H     0.25822   0.03818   0.78471   0.00000  Uiso   1.00
H782   H     0.07512   0.29515   0.71528   0.00000  Uiso   1.00
C783   C     0.28965   0.31201   0.76974   0.00000  Uiso   1.00
C784   C     0.04368   0.02133   0.73026   0.00000  Uiso   1.00
C785   C     0.33280   0.29053   0.75100   0.00000  Uiso   1.00
C786   C     0.00054   0.04281   0.74899   0.00000  Uiso   1.00
C787   C     0.18255   0.14305   0.78069   0.00000  Uiso   1.00
C788   C     0.15078   0.19029   0.71931   0.00000  Uiso   1.00
C789   C     0.13250   0.14383   0.78070   0.00000  Uiso   1.00
C790   C     0.20083   0.18950   0.71930   0.00000  Uiso   1.00
H791   H     0.10538   0.12661   0.80534   0.00000  Uiso   1.00
H792   H     0.22795   0.20673   0.69466   0.00000  Uiso   1.00
N793   N     0.11736   0.16668   0.74999   0.00000  Uiso   1.00
N794   N     0.21597   0.16666   0.75001   0.00000  Uiso   1.00
N795   N     0.26901   0.22054   0.54334   0.00000  Uiso   1.00
O796   O     0.29376   0.25266   0.52422   0.00000  Uiso   1.00
O797   O     0.26406   0.21368   0.58566   0.00000  Uiso   1.00
N798   N     0.06455   0.11244   0.95675   0.00000  Uiso   1.00
O799   O     0.06940   0.11935   0.91446   0.00000  Uiso   1.00
O800   O     0.03994   0.08024   0.97585   0.00000  Uiso   1.00
O801   O     0.24790   0.29100   0.79250   0.00000  Uiso   1.00
C802   C     0.21227   0.29614   0.76930   0.00000  Uiso   1.00
H803   H     0.18252   0.27370   0.78306   0.00000  Uiso   1.00
H804   H     0.22691   0.28991   0.73300   0.00000  Uiso   1.00
H805   H     0.19641   0.32744   0.77419   0.00000  Uiso   1.00
O806   O     0.08544   0.04233   0.70749   0.00000  Uiso   1.00
C807   C     0.12107   0.03719   0.73069   0.00000  Uiso   1.00
H808   H     0.10644   0.04342   0.76699   0.00000  Uiso   1.00
H809   H     0.15083   0.05962   0.71692   0.00000  Uiso   1.00
H810   H     0.13692   0.00588   0.72580   0.00000  Uiso   1.00
O811   O     0.19851   0.12151   0.81299   0.00000  Uiso   1.00
C812   C     0.17402   0.08370   0.82565   0.00000  Uiso   1.00
H813   H     0.17143   0.06598   0.79615   0.00000  Uiso   1.00
H814   H     0.13784   0.08841   0.84929   0.00000  Uiso   1.00
H815   H     0.19496   0.06493   0.84391   0.00000  Uiso   1.00
O816   O     0.13481   0.21183   0.68702   0.00000  Uiso   1.00
C817   C     0.15935   0.24962   0.67430   0.00000  Uiso   1.00
H818   H     0.19550   0.24486   0.65064   0.00000  Uiso   1.00
H819   H     0.16201   0.26735   0.70377   0.00000  Uiso   1.00
H820   H     0.13841   0.26840   0.65606   0.00000  Uiso   1.00
O821   O     0.37291   0.10655   0.75000   0.00000  Uiso   1.00
O822   O     0.62709   0.22678   0.75000   0.00000  Uiso   1.00
O823   O     0.62706   0.10654   0.75000   0.00000  Uiso   1.00
O824   O     0.37294   0.22679   0.75000   0.00000  Uiso   1.00
C825   C     0.33356   0.08744   0.74938   0.00000  Uiso   1.00
C826   C     0.66644   0.24589   0.75062   0.00000  Uiso   1.00
O827   O     0.35186   0.16668   0.81492   0.00000  Uiso   1.00
O828   O     0.64814   0.16666   0.68508   0.00000  Uiso   1.00
O829   O     0.60600   0.16667   0.81492   0.00000  Uiso   1.00
O830   O     0.39400   0.16667   0.68508   0.00000  Uiso   1.00
C831   C     0.63935   0.16715   0.83595   0.00000  Uiso   1.00
C832   C     0.36065   0.16619   0.66405   0.00000  Uiso   1.00
Cu833  Cu    0.38022   0.16667   0.75000   0.00000  Uiso   1.00
Cu834  Cu    0.61978   0.16666   0.75000   0.00000  Uiso   1.00
C835   C     0.62421   0.17030   0.88474   0.00000  Uiso   1.00
C836   C     0.37580   0.16299   0.61526   0.00000  Uiso   1.00
C837   C     0.64000   0.19063   0.95370   0.00000  Uiso   1.00
C838   C     0.36014   0.14240   0.54634   0.00000  Uiso   1.00
C839   C     0.65663   0.18297   0.90825   0.00000  Uiso   1.00
C840   C     0.34345   0.15013   0.59177   0.00000  Uiso   1.00
C841   C     0.57569   0.16305   0.90751   0.00000  Uiso   1.00
C842   C     0.42430   0.17034   0.59250   0.00000  Uiso   1.00
C843   C     0.55798   0.16944   0.95371   0.00000  Uiso   1.00
C844   C     0.44210   0.16380   0.54634   0.00000  Uiso   1.00
C845   C     0.59040   0.18613   0.97639   0.00000  Uiso   1.00
C846   C     0.40974   0.14698   0.52366   0.00000  Uiso   1.00
C847   C     0.50867   0.16108   0.97729   0.00000  Uiso   1.00
C848   C     0.49144   0.17211   0.52278   0.00000  Uiso   1.00
C849   C     0.52376   0.19196   0.54311   0.00000  Uiso   1.00
C850   C     0.47641   0.14116   0.95697   0.00000  Uiso   1.00
C851   C     0.57251   0.19854   0.52089   0.00000  Uiso   1.00
C852   C     0.42767   0.13451   0.97918   0.00000  Uiso   1.00
H853   H     0.44789   0.17948   0.61222   0.00000  Uiso   1.00
H854   H     0.55200   0.15417   0.88779   0.00000  Uiso   1.00
H855   H     0.63895   0.14450   0.60880   0.00000  Uiso   1.00
H856   H     0.36116   0.18850   0.89122   0.00000  Uiso   1.00
H857   H     0.66628   0.20057   0.97061   0.00000  Uiso   1.00
H858   H     0.33391   0.13233   0.52944   0.00000  Uiso   1.00
H859   H     0.51194   0.20454   0.57604   0.00000  Uiso   1.00
H860   H     0.48830   0.12850   0.92407   0.00000  Uiso   1.00
C861   C     0.62412   0.02152   0.76891   0.00000  Uiso   1.00
C862   C     0.37588   0.31181   0.73109   0.00000  Uiso   1.00
H863   H     0.59156   0.03818   0.78471   0.00000  Uiso   1.00
H864   H     0.40845   0.29515   0.71528   0.00000  Uiso   1.00
C865   C     0.62299   0.31201   0.76974   0.00000  Uiso   1.00
C866   C     0.37702   0.02133   0.73026   0.00000  Uiso   1.00
C867   C     0.66613   0.29053   0.75100   0.00000  Uiso   1.00
C868   C     0.33387   0.04281   0.74899   0.00000  Uiso   1.00
C869   C     0.51588   0.14305   0.78069   0.00000  Uiso   1.00
C870   C     0.48411   0.19029   0.71931   0.00000  Uiso   1.00
C871   C     0.46584   0.14383   0.78070   0.00000  Uiso   1.00
C872   C     0.53416   0.18950   0.71930   0.00000  Uiso   1.00
H873   H     0.43871   0.12661   0.80534   0.00000  Uiso   1.00
H874   H     0.56129   0.20673   0.69466   0.00000  Uiso   1.00
N875   N     0.45069   0.16668   0.74999   0.00000  Uiso   1.00
N876   N     0.54931   0.16666   0.75001   0.00000  Uiso   1.00
N877   N     0.60234   0.22054   0.54334   0.00000  Uiso   1.00
O878   O     0.62710   0.25266   0.52422   0.00000  Uiso   1.00
O879   O     0.59739   0.21368   0.58566   0.00000  Uiso   1.00
N880   N     0.39788   0.11244   0.95675   0.00000  Uiso   1.00
O881   O     0.40273   0.11935   0.91446   0.00000  Uiso   1.00
O882   O     0.37328   0.08024   0.97585   0.00000  Uiso   1.00
O883   O     0.58123   0.29100   0.79250   0.00000  Uiso   1.00
C884   C     0.54561   0.29614   0.76930   0.00000  Uiso   1.00
H885   H     0.51585   0.27370   0.78306   0.00000  Uiso   1.00
H886   H     0.56024   0.28991   0.73300   0.00000  Uiso   1.00
H887   H     0.52975   0.32744   0.77419   0.00000  Uiso   1.00
O888   O     0.41878   0.04233   0.70749   0.00000  Uiso   1.00
C889   C     0.45440   0.03719   0.73069   0.00000  Uiso   1.00
H890   H     0.43978   0.04342   0.76699   0.00000  Uiso   1.00
H891   H     0.48416   0.05962   0.71692   0.00000  Uiso   1.00
H892   H     0.47025   0.00588   0.72580   0.00000  Uiso   1.00
O893   O     0.53184   0.12151   0.81299   0.00000  Uiso   1.00
C894   C     0.50736   0.08370   0.82565   0.00000  Uiso   1.00
H895   H     0.50476   0.06598   0.79615   0.00000  Uiso   1.00
H896   H     0.47118   0.08841   0.84929   0.00000  Uiso   1.00
H897   H     0.52829   0.06493   0.84391   0.00000  Uiso   1.00
O898   O     0.46815   0.21183   0.68702   0.00000  Uiso   1.00
C899   C     0.49268   0.24962   0.67430   0.00000  Uiso   1.00
H900   H     0.52884   0.24486   0.65064   0.00000  Uiso   1.00
H901   H     0.49534   0.26735   0.70377   0.00000  Uiso   1.00
H902   H     0.47174   0.26840   0.65606   0.00000  Uiso   1.00
O903   O     0.70625   0.10655   0.75000   0.00000  Uiso   1.00
O904   O     0.96042   0.22678   0.75000   0.00000  Uiso   1.00
O905   O     0.96039   0.10654   0.75000   0.00000  Uiso   1.00
O906   O     0.70628   0.22679   0.75000   0.00000  Uiso   1.00
C907   C     0.66689   0.08744   0.74938   0.00000  Uiso   1.00
C908   C     0.99978   0.24589   0.75062   0.00000  Uiso   1.00
O909   O     0.68519   0.16668   0.81492   0.00000  Uiso   1.00
O910   O     0.98148   0.16666   0.68508   0.00000  Uiso   1.00
O911   O     0.93933   0.16667   0.81492   0.00000  Uiso   1.00
O912   O     0.72733   0.16667   0.68508   0.00000  Uiso   1.00
C913   C     0.97269   0.16715   0.83595   0.00000  Uiso   1.00
C914   C     0.69398   0.16619   0.66405   0.00000  Uiso   1.00
Cu915  Cu    0.71355   0.16667   0.75000   0.00000  Uiso   1.00
Cu916  Cu    0.95311   0.16666   0.75000   0.00000  Uiso   1.00
C917   C     0.95755   0.17030   0.88474   0.00000  Uiso   1.00
C918   C     0.70914   0.16299   0.61526   0.00000  Uiso   1.00
C919   C     0.97333   0.19063   0.95370   0.00000  Uiso   1.00
C920   C     0.69348   0.14240   0.54634   0.00000  Uiso   1.00
C921   C     0.98997   0.18297   0.90825   0.00000  Uiso   1.00
C922   C     0.67679   0.15013   0.59177   0.00000  Uiso   1.00
C923   C     0.90903   0.16305   0.90751   0.00000  Uiso   1.00
C924   C     0.75764   0.17034   0.59250   0.00000  Uiso   1.00
C925   C     0.89132   0.16944   0.95371   0.00000  Uiso   1.00
C926   C     0.77544   0.16380   0.54634   0.00000  Uiso   1.00
C927   C     0.92373   0.18613   0.97639   0.00000  Uiso   1.00
C928   C     0.74307   0.14698   0.52366   0.00000  Uiso   1.00
C929   C     0.84200   0.16108   0.97729   0.00000  Uiso   1.00
C930   C     0.82478   0.17211   0.52278   0.00000  Uiso   1.00
C931   C     0.85709   0.19196   0.54311   0.00000  Uiso   1.00
C932   C     0.80974   0.14116   0.95697   0.00000  Uiso   1.00
C933   C     0.90584   0.19854   0.52089   0.00000  Uiso   1.00
C934   C     0.76101   0.13451   0.97918   0.00000  Uiso   1.00
H935   H     0.78122   0.17948   0.61222   0.00000  Uiso   1.00
H936   H     0.88533   0.15417   0.88779   0.00000  Uiso   1.00
H937   H     0.97228   0.14450   0.60880   0.00000  Uiso   1.00
H938   H     0.69449   0.18850   0.89122   0.00000  Uiso   1.00
H939   H     0.99961   0.20057   0.97061   0.00000  Uiso   1.00
H940   H     0.66724   0.13233   0.52944   0.00000  Uiso   1.00
H941   H     0.84527   0.20454   0.57604   0.00000  Uiso   1.00
H942   H     0.82163   0.12850   0.92407   0.00000  Uiso   1.00
C943   C     0.95746   0.02152   0.76891   0.00000  Uiso   1.00
C944   C     0.70922   0.31181   0.73109   0.00000  Uiso   1.00
H945   H     0.92489   0.03818   0.78471   0.00000  Uiso   1.00
H946   H     0.74178   0.29515   0.71528   0.00000  Uiso   1.00
C947   C     0.95632   0.31201   0.76974   0.00000  Uiso   1.00
C948   C     0.71035   0.02133   0.73026   0.00000  Uiso   1.00
C949   C     0.99946   0.29053   0.75100   0.00000  Uiso   1.00
C950   C     0.66721   0.04281   0.74899   0.00000  Uiso   1.00
C951   C     0.84922   0.14305   0.78069   0.00000  Uiso   1.00
C952   C     0.81745   0.19029   0.71931   0.00000  Uiso   1.00
C953   C     0.79917   0.14383   0.78070   0.00000  Uiso   1.00
C954   C     0.86750   0.18950   0.71930   0.00000  Uiso   1.00
H955   H     0.77205   0.12661   0.80534   0.00000  Uiso   1.00
H956   H     0.89462   0.20673   0.69466   0.00000  Uiso   1.00
N957   N     0.78403   0.16668   0.74999   0.00000  Uiso   1.00
N958   N     0.88264   0.16666   0.75001   0.00000  Uiso   1.00
N959   N     0.93568   0.22054   0.54334   0.00000  Uiso   1.00
O960   O     0.96043   0.25266   0.52422   0.00000  Uiso   1.00
O961   O     0.93073   0.21368   0.58566   0.00000  Uiso   1.00
N962   N     0.73122   0.11244   0.95675   0.00000  Uiso   1.00
O963   O     0.73606   0.11935   0.91446   0.00000  Uiso   1.00
O964   O     0.70661   0.08024   0.97585   0.00000  Uiso   1.00
O965   O     0.91456   0.29100   0.79250   0.00000  Uiso   1.00
C966   C     0.87894   0.29614   0.76930   0.00000  Uiso   1.00
H967   H     0.84918   0.27370   0.78306   0.00000  Uiso   1.00
H968   H     0.89357   0.28991   0.73300   0.00000  Uiso   1.00
H969   H     0.86308   0.32744   0.77419   0.00000  Uiso   1.00
O970   O     0.75211   0.04233   0.70749   0.00000  Uiso   1.00
C971   C     0.78774   0.03719   0.73069   0.00000  Uiso   1.00
H972   H     0.77311   0.04342   0.76699   0.00000  Uiso   1.00
H973   H     0.81750   0.05962   0.71692   0.00000  Uiso   1.00
H974   H     0.80359   0.00588   0.72580   0.00000  Uiso   1.00
O975   O     0.86517   0.12151   0.81299   0.00000  Uiso   1.00
C976   C     0.84069   0.08370   0.82565   0.00000  Uiso   1.00
H977   H     0.83810   0.06598   0.79615   0.00000  Uiso   1.00
H978   H     0.80451   0.08841   0.84929   0.00000  Uiso   1.00
H979   H     0.86163   0.06493   0.84391   0.00000  Uiso   1.00
O980   O     0.80148   0.21183   0.68702   0.00000  Uiso   1.00
C981   C     0.82601   0.24962   0.67430   0.00000  Uiso   1.00
H982   H     0.86217   0.24486   0.65064   0.00000  Uiso   1.00
H983   H     0.82867   0.26735   0.70377   0.00000  Uiso   1.00
H984   H     0.80507   0.26840   0.65606   0.00000  Uiso   1.00
O985   O     0.03958   0.43989   0.75000   0.00000  Uiso   1.00
O986   O     0.29375   0.56011   0.75000   0.00000  Uiso   1.00
O987   O     0.29372   0.43988   0.75000   0.00000  Uiso   1.00
O988   O     0.03961   0.56012   0.75000   0.00000  Uiso   1.00
C989   C     0.00022   0.42077   0.74938   0.00000  Uiso   1.00
C990   C     0.33311   0.57923   0.75062   0.00000  Uiso   1.00
O991   O     0.01852   0.50001   0.81492   0.00000  Uiso   1.00
O992   O     0.31481   0.49999   0.68508   0.00000  Uiso   1.00
O993   O     0.27267   0.50000   0.81492   0.00000  Uiso   1.00
O994   O     0.06067   0.50000   0.68508   0.00000  Uiso   1.00
C995   C     0.30602   0.50048   0.83595   0.00000  Uiso   1.00
C996   C     0.02731   0.49952   0.66405   0.00000  Uiso   1.00
Cu997  Cu    0.04689   0.50001   0.75000   0.00000  Uiso   1.00
Cu998  Cu    0.28645   0.49999   0.75000   0.00000  Uiso   1.00
C999   C     0.29088   0.50364   0.88474   0.00000  Uiso   1.00
C1000  C     0.04247   0.49632   0.61526   0.00000  Uiso   1.00
C1001  C     0.30666   0.52396   0.95370   0.00000  Uiso   1.00
C1002  C     0.02681   0.47573   0.54634   0.00000  Uiso   1.00
C1003  C     0.32330   0.51630   0.90825   0.00000  Uiso   1.00
C1004  C     0.01012   0.48346   0.59177   0.00000  Uiso   1.00
C1005  C     0.24236   0.49639   0.90751   0.00000  Uiso   1.00
C1006  C     0.09097   0.50368   0.59250   0.00000  Uiso   1.00
C1007  C     0.22465   0.50277   0.95371   0.00000  Uiso   1.00
C1008  C     0.10877   0.49713   0.54634   0.00000  Uiso   1.00
C1009  C     0.25706   0.51946   0.97639   0.00000  Uiso   1.00
C1010  C     0.07640   0.48031   0.52366   0.00000  Uiso   1.00
C1011  C     0.17533   0.49442   0.97729   0.00000  Uiso   1.00
C1012  C     0.15811   0.50545   0.52278   0.00000  Uiso   1.00
C1013  C     0.19042   0.52529   0.54311   0.00000  Uiso   1.00
C1014  C     0.14307   0.47449   0.95697   0.00000  Uiso   1.00
C1015  C     0.23917   0.53188   0.52089   0.00000  Uiso   1.00
C1016  C     0.09434   0.46785   0.97918   0.00000  Uiso   1.00
H1017  H     0.11455   0.51281   0.61222   0.00000  Uiso   1.00
H1018  H     0.21867   0.48750   0.88779   0.00000  Uiso   1.00
H1019  H     0.30561   0.47783   0.60880   0.00000  Uiso   1.00
H1020  H     0.02782   0.52184   0.89122   0.00000  Uiso   1.00
H1021  H     0.33294   0.53390   0.97061   0.00000  Uiso   1.00
H1022  H     0.00057   0.46567   0.52944   0.00000  Uiso   1.00
H1023  H     0.17861   0.53788   0.57604   0.00000  Uiso   1.00
H1024  H     0.15496   0.46184   0.92407   0.00000  Uiso   1.00
C1025  C     0.29079   0.35486   0.76891   0.00000  Uiso   1.00
C1026  C     0.04255   0.64514   0.73109   0.00000  Uiso   1.00
H1027  H     0.25822   0.37151   0.78471   0.00000  Uiso   1.00
H1028  H     0.07512   0.62848   0.71528   0.00000  Uiso   1.00
C1029  C     0.28965   0.64534   0.76974   0.00000  Uiso   1.00
C1030  C     0.04368   0.35466   0.73026   0.00000  Uiso   1.00
C1031  C     0.33280   0.62386   0.75100   0.00000  Uiso   1.00
C1032  C     0.00054   0.37614   0.74899   0.00000  Uiso   1.00
C1033  C     0.18255   0.47638   0.78069   0.00000  Uiso   1.00
C1034  C     0.15078   0.52362   0.71931   0.00000  Uiso   1.00
C1035  C     0.13250   0.47717   0.78070   0.00000  Uiso   1.00
C1036  C     0.20083   0.52284   0.71930   0.00000  Uiso   1.00
H1037  H     0.10538   0.45994   0.80534   0.00000  Uiso   1.00
H1038  H     0.22795   0.54006   0.69466   0.00000  Uiso   1.00
N1039  N     0.11736   0.50001   0.74999   0.00000  Uiso   1.00
N1040  N     0.21597   0.49999   0.75001   0.00000  Uiso   1.00
N1041  N     0.26901   0.55387   0.54334   0.00000  Uiso   1.00
O1042  O     0.29376   0.58600   0.52422   0.00000  Uiso   1.00
O1043  O     0.26406   0.54701   0.58566   0.00000  Uiso   1.00
N1044  N     0.06455   0.44577   0.95675   0.00000  Uiso   1.00
O1045  O     0.06940   0.45268   0.91446   0.00000  Uiso   1.00
O1046  O     0.03994   0.41358   0.97585   0.00000  Uiso   1.00
O1047  O     0.24790   0.62434   0.79250   0.00000  Uiso   1.00
C1048  C     0.21227   0.62947   0.76930   0.00000  Uiso   1.00
H1049  H     0.18252   0.60703   0.78306   0.00000  Uiso   1.00
H1050  H     0.22691   0.62324   0.73300   0.00000  Uiso   1.00
H1051  H     0.19641   0.66078   0.77419   0.00000  Uiso   1.00
O1052  O     0.08544   0.37567   0.70749   0.00000  Uiso   1.00
C1053  C     0.12107   0.37052   0.73069   0.00000  Uiso   1.00
H1054  H     0.10644   0.37675   0.76699   0.00000  Uiso   1.00
H1055  H     0.15083   0.39295   0.71692   0.00000  Uiso   1.00
H1056  H     0.13692   0.33922   0.72580   0.00000  Uiso   1.00
O1057  O     0.19851   0.45485   0.81299   0.00000  Uiso   1.00
C1058  C     0.17402   0.41703   0.82565   0.00000  Uiso   1.00
H1059  H     0.17143   0.39931   0.79615   0.00000  Uiso   1.00
H1060  H     0.13784   0.42174   0.84929   0.00000  Uiso   1.00
H1061  H     0.19496   0.39826   0.84391   0.00000  Uiso   1.00
O1062  O     0.13481   0.54517   0.68702   0.00000  Uiso   1.00
C1063  C     0.15935   0.58295   0.67430   0.00000  Uiso   1.00
H1064  H     0.19550   0.57819   0.65064   0.00000  Uiso   1.00
H1065  H     0.16201   0.60069   0.70377   0.00000  Uiso   1.00
H1066  H     0.13841   0.60173   0.65606   0.00000  Uiso   1.00
O1067  O     0.37291   0.43989   0.75000   0.00000  Uiso   1.00
O1068  O     0.62709   0.56011   0.75000   0.00000  Uiso   1.00
O1069  O     0.62706   0.43988   0.75000   0.00000  Uiso   1.00
O1070  O     0.37294   0.56012   0.75000   0.00000  Uiso   1.00
C1071  C     0.33356   0.42077   0.74938   0.00000  Uiso   1.00
C1072  C     0.66644   0.57923   0.75062   0.00000  Uiso   1.00
O1073  O     0.35186   0.50001   0.81492   0.00000  Uiso   1.00
O1074  O     0.64814   0.49999   0.68508   0.00000  Uiso   1.00
O1075  O     0.60600   0.50000   0.81492   0.00000  Uiso   1.00
O1076  O     0.39400   0.50000   0.68508   0.00000  Uiso   1.00
C1077  C     0.63935   0.50048   0.83595   0.00000  Uiso   1.00
C1078  C     0.36065   0.49952   0.66405   0.00000  Uiso   1.00
Cu1079 Cu    0.38022   0.50001   0.75000   0.00000  Uiso   1.00
Cu1080 Cu    0.61978   0.49999   0.75000   0.00000  Uiso   1.00
C1081  C     0.62421   0.50364   0.88474   0.00000  Uiso   1.00
C1082  C     0.37580   0.49632   0.61526   0.00000  Uiso   1.00
C1083  C     0.64000   0.52396   0.95370   0.00000  Uiso   1.00
C1084  C     0.36014   0.47573   0.54634   0.00000  Uiso   1.00
C1085  C     0.65663   0.51630   0.90825   0.00000  Uiso   1.00
C1086  C     0.34345   0.48346   0.59177   0.00000  Uiso   1.00
C1087  C     0.57569   0.49639   0.90751   0.00000  Uiso   1.00
C1088  C     0.42430   0.50368   0.59250   0.00000  Uiso   1.00
C1089  C     0.55798   0.50277   0.95371   0.00000  Uiso   1.00
C1090  C     0.44210   0.49713   0.54634   0.00000  Uiso   1.00
C1091  C     0.59040   0.51946   0.97639   0.00000  Uiso   1.00
C1092  C     0.40974   0.48031   0.52366   0.00000  Uiso   1.00
C1093  C     0.50867   0.49442   0.97729   0.00000  Uiso   1.00
C1094  C     0.49144   0.50545   0.52278   0.00000  Uiso   1.00
C1095  C     0.52376   0.52529   0.54311   0.00000  Uiso   1.00
C1096  C     0.47641   0.47449   0.95697   0.00000  Uiso   1.00
C1097  C     0.57251   0.53188   0.52089   0.00000  Uiso   1.00
C1098  C     0.42767   0.46785   0.97918   0.00000  Uiso   1.00
H1099  H     0.44789   0.51281   0.61222   0.00000  Uiso   1.00
H1100  H     0.55200   0.48750   0.88779   0.00000  Uiso   1.00
H1101  H     0.63895   0.47783   0.60880   0.00000  Uiso   1.00
H1102  H     0.36116   0.52184   0.89122   0.00000  Uiso   1.00
H1103  H     0.66628   0.53390   0.97061   0.00000  Uiso   1.00
H1104  H     0.33391   0.46567   0.52944   0.00000  Uiso   1.00
H1105  H     0.51194   0.53788   0.57604   0.00000  Uiso   1.00
H1106  H     0.48830   0.46184   0.92407   0.00000  Uiso   1.00
C1107  C     0.62412   0.35486   0.76891   0.00000  Uiso   1.00
C1108  C     0.37588   0.64514   0.73109   0.00000  Uiso   1.00
H1109  H     0.59156   0.37151   0.78471   0.00000  Uiso   1.00
H1110  H     0.40845   0.62848   0.71528   0.00000  Uiso   1.00
C1111  C     0.62299   0.64534   0.76974   0.00000  Uiso   1.00
C1112  C     0.37702   0.35466   0.73026   0.00000  Uiso   1.00
C1113  C     0.66613   0.62386   0.75100   0.00000  Uiso   1.00
C1114  C     0.33387   0.37614   0.74899   0.00000  Uiso   1.00
C1115  C     0.51588   0.47638   0.78069   0.00000  Uiso   1.00
C1116  C     0.48411   0.52362   0.71931   0.00000  Uiso   1.00
C1117  C     0.46584   0.47717   0.78070   0.00000  Uiso   1.00
C1118  C     0.53416   0.52284   0.71930   0.00000  Uiso   1.00
H1119  H     0.43871   0.45994   0.80534   0.00000  Uiso   1.00
H1120  H     0.56129   0.54006   0.69466   0.00000  Uiso   1.00
N1121  N     0.45069   0.50001   0.74999   0.00000  Uiso   1.00
N1122  N     0.54931   0.49999   0.75001   0.00000  Uiso   1.00
N1123  N     0.60234   0.55387   0.54334   0.00000  Uiso   1.00
O1124  O     0.62710   0.58600   0.52422   0.00000  Uiso   1.00
O1125  O     0.59739   0.54701   0.58566   0.00000  Uiso   1.00
N1126  N     0.39788   0.44577   0.95675   0.00000  Uiso   1.00
O1127  O     0.40273   0.45268   0.91446   0.00000  Uiso   1.00
O1128  O     0.37328   0.41358   0.97585   0.00000  Uiso   1.00
O1129  O     0.58123   0.62434   0.79250   0.00000  Uiso   1.00
C1130  C     0.54561   0.62947   0.76930   0.00000  Uiso   1.00
H1131  H     0.51585   0.60703   0.78306   0.00000  Uiso   1.00
H1132  H     0.56024   0.62324   0.73300   0.00000  Uiso   1.00
H1133  H     0.52975   0.66078   0.77419   0.00000  Uiso   1.00
O1134  O     0.41878   0.37567   0.70749   0.00000  Uiso   1.00
C1135  C     0.45440   0.37052   0.73069   0.00000  Uiso   1.00
H1136  H     0.43978   0.37675   0.76699   0.00000  Uiso   1.00
H1137  H     0.48416   0.39295   0.71692   0.00000  Uiso   1.00
H1138  H     0.47025   0.33922   0.72580   0.00000  Uiso   1.00
O1139  O     0.53184   0.45485   0.81299   0.00000  Uiso   1.00
C1140  C     0.50736   0.41703   0.82565   0.00000  Uiso   1.00
H1141  H     0.50476   0.39931   0.79615   0.00000  Uiso   1.00
H1142  H     0.47118   0.42174   0.84929   0.00000  Uiso   1.00
H1143  H     0.52829   0.39826   0.84391   0.00000  Uiso   1.00
O1144  O     0.46815   0.54517   0.68702   0.00000  Uiso   1.00
C1145  C     0.49268   0.58295   0.67430   0.00000  Uiso   1.00
H1146  H     0.52884   0.57819   0.65064   0.00000  Uiso   1.00
H1147  H     0.49534   0.60069   0.70377   0.00000  Uiso   1.00
H1148  H     0.47174   0.60173   0.65606   0.00000  Uiso   1.00
O1149  O     0.70625   0.43989   0.75000   0.00000  Uiso   1.00
O1150  O     0.96042   0.56011   0.75000   0.00000  Uiso   1.00
O1151  O     0.96039   0.43988   0.75000   0.00000  Uiso   1.00
O1152  O     0.70628   0.56012   0.75000   0.00000  Uiso   1.00
C1153  C     0.66689   0.42077   0.74938   0.00000  Uiso   1.00
C1154  C     0.99978   0.57923   0.75062   0.00000  Uiso   1.00
O1155  O     0.68519   0.50001   0.81492   0.00000  Uiso   1.00
O1156  O     0.98148   0.49999   0.68508   0.00000  Uiso   1.00
O1157  O     0.93933   0.50000   0.81492   0.00000  Uiso   1.00
O1158  O     0.72733   0.50000   0.68508   0.00000  Uiso   1.00
C1159  C     0.97269   0.50048   0.83595   0.00000  Uiso   1.00
C1160  C     0.69398   0.49952   0.66405   0.00000  Uiso   1.00
Cu1161 Cu    0.71355   0.50001   0.75000   0.00000  Uiso   1.00
Cu1162 Cu    0.95311   0.49999   0.75000   0.00000  Uiso   1.00
C1163  C     0.95755   0.50364   0.88474   0.00000  Uiso   1.00
C1164  C     0.70914   0.49632   0.61526   0.00000  Uiso   1.00
C1165  C     0.97333   0.52396   0.95370   0.00000  Uiso   1.00
C1166  C     0.69348   0.47573   0.54634   0.00000  Uiso   1.00
C1167  C     0.98997   0.51630   0.90825   0.00000  Uiso   1.00
C1168  C     0.67679   0.48346   0.59177   0.00000  Uiso   1.00
C1169  C     0.90903   0.49639   0.90751   0.00000  Uiso   1.00
C1170  C     0.75764   0.50368   0.59250   0.00000  Uiso   1.00
C1171  C     0.89132   0.50277   0.95371   0.00000  Uiso   1.00
C1172  C     0.77544   0.49713   0.54634   0.00000  Uiso   1.00
C1173  C     0.92373   0.51946   0.97639   0.00000  Uiso   1.00
C1174  C     0.74307   0.48031   0.52366   0.00000  Uiso   1.00
C1175  C     0.84200   0.49442   0.97729   0.00000  Uiso   1.00
C1176  C     0.82478   0.50545   0.52278   0.00000  Uiso   1.00
C1177  C     0.85709   0.52529   0.54311   0.00000  Uiso   1.00
C1178  C     0.80974   0.47449   0.95697   0.00000  Uiso   1.00
C1179  C     0.90584   0.53188   0.52089   0.00000  Uiso   1.00
C1180  C     0.76101   0.46785   0.97918   0.00000  Uiso   1.00
H1181  H     0.78122   0.51281   0.61222   0.00000  Uiso   1.00
H1182  H     0.88533   0.48750   0.88779   0.00000  Uiso   1.00
H1183  H     0.97228   0.47783   0.60880   0.00000  Uiso   1.00
H1184  H     0.69449   0.52184   0.89122   0.00000  Uiso   1.00
H1185  H     0.99961   0.53390   0.97061   0.00000  Uiso   1.00
H1186  H     0.66724   0.46567   0.52944   0.00000  Uiso   1.00
H1187  H     0.84527   0.53788   0.57604   0.00000  Uiso   1.00
H1188  H     0.82163   0.46184   0.92407   0.00000  Uiso   1.00
C1189  C     0.95746   0.35486   0.76891   0.00000  Uiso   1.00
C1190  C     0.70922   0.64514   0.73109   0.00000  Uiso   1.00
H1191  H     0.92489   0.37151   0.78471   0.00000  Uiso   1.00
H1192  H     0.74178   0.62848   0.71528   0.00000  Uiso   1.00
C1193  C     0.95632   0.64534   0.76974   0.00000  Uiso   1.00
C1194  C     0.71035   0.35466   0.73026   0.00000  Uiso   1.00
C1195  C     0.99946   0.62386   0.75100   0.00000  Uiso   1.00
C1196  C     0.66721   0.37614   0.74899   0.00000  Uiso   1.00
C1197  C     0.84922   0.47638   0.78069   0.00000  Uiso   1.00
C1198  C     0.81745   0.52362   0.71931   0.00000  Uiso   1.00
C1199  C     0.79917   0.47717   0.78070   0.00000  Uiso   1.00
C1200  C     0.86750   0.52284   0.71930   0.00000  Uiso   1.00
H1201  H     0.77205   0.45994   0.80534   0.00000  Uiso   1.00
H1202  H     0.89462   0.54006   0.69466   0.00000  Uiso   1.00
N1203  N     0.78403   0.50001   0.74999   0.00000  Uiso   1.00
N1204  N     0.88264   0.49999   0.75001   0.00000  Uiso   1.00
N1205  N     0.93568   0.55387   0.54334   0.00000  Uiso   1.00
O1206  O     0.96043   0.58600   0.52422   0.00000  Uiso   1.00
O1207  O     0.93073   0.54701   0.58566   0.00000  Uiso   1.00
N1208  N     0.73122   0.44577   0.95675   0.00000  Uiso   1.00
O1209  O     0.73606   0.45268   0.91446   0.00000  Uiso   1.00
O1210  O     0.70661   0.41358   0.97585   0.00000  Uiso   1.00
O1211  O     0.91456   0.62434   0.79250   0.00000  Uiso   1.00
C1212  C     0.87894   0.62947   0.76930   0.00000  Uiso   1.00
H1213  H     0.84918   0.60703   0.78306   0.00000  Uiso   1.00
H1214  H     0.89357   0.62324   0.73300   0.00000  Uiso   1.00
H1215  H     0.86308   0.66078   0.77419   0.00000  Uiso   1.00
O1216  O     0.75211   0.37567   0.70749   0.00000  Uiso   1.00
C1217  C     0.78774   0.37052   0.73069   0.00000  Uiso   1.00
H1218  H     0.77311   0.37675   0.76699   0.00000  Uiso   1.00
H1219  H     0.81750   0.39295   0.71692   0.00000  Uiso   1.00
H1220  H     0.80359   0.33922   0.72580   0.00000  Uiso   1.00
O1221  O     0.86517   0.45485   0.81299   0.00000  Uiso   1.00
C1222  C     0.84069   0.41703   0.82565   0.00000  Uiso   1.00
H1223  H     0.83810   0.39931   0.79615   0.00000  Uiso   1.00
H1224  H     0.80451   0.42174   0.84929   0.00000  Uiso   1.00
H1225  H     0.86163   0.39826   0.84391   0.00000  Uiso   1.00
O1226  O     0.80148   0.54517   0.68702   0.00000  Uiso   1.00
C1227  C     0.82601   0.58295   0.67430   0.00000  Uiso   1.00
H1228  H     0.86217   0.57819   0.65064   0.00000  Uiso   1.00
H1229  H     0.82867   0.60069   0.70377   0.00000  Uiso   1.00
H1230  H     0.80507   0.60173   0.65606   0.00000  Uiso   1.00
O1231  O     0.03958   0.77322   0.75000   0.00000  Uiso   1.00
O1232  O     0.29375   0.89345   0.75000   0.00000  Uiso   1.00
O1233  O     0.29372   0.77321   0.75000   0.00000  Uiso   1.00
O1234  O     0.03961   0.89346   0.75000   0.00000  Uiso   1.00
C1235  C     0.00022   0.75411   0.74938   0.00000  Uiso   1.00
C1236  C     0.33311   0.91256   0.75062   0.00000  Uiso   1.00
O1237  O     0.01852   0.83334   0.81492   0.00000  Uiso   1.00
O1238  O     0.31481   0.83332   0.68508   0.00000  Uiso   1.00
O1239  O     0.27267   0.83333   0.81492   0.00000  Uiso   1.00
O1240  O     0.06067   0.83333   0.68508   0.00000  Uiso   1.00
C1241  C     0.30602   0.83381   0.83595   0.00000  Uiso   1.00
C1242  C     0.02731   0.83286   0.66405   0.00000  Uiso   1.00
Cu1243 Cu    0.04689   0.83334   0.75000   0.00000  Uiso   1.00
Cu1244 Cu    0.28645   0.83333   0.75000   0.00000  Uiso   1.00
C1245  C     0.29088   0.83697   0.88474   0.00000  Uiso   1.00
C1246  C     0.04247   0.82966   0.61526   0.00000  Uiso   1.00
C1247  C     0.30666   0.85730   0.95370   0.00000  Uiso   1.00
C1248  C     0.02681   0.80907   0.54634   0.00000  Uiso   1.00
C1249  C     0.32330   0.84963   0.90825   0.00000  Uiso   1.00
C1250  C     0.01012   0.81680   0.59177   0.00000  Uiso   1.00
C1251  C     0.24236   0.82972   0.90751   0.00000  Uiso   1.00
C1252  C     0.09097   0.83701   0.59250   0.00000  Uiso   1.00
C1253  C     0.22465   0.83610   0.95371   0.00000  Uiso   1.00
C1254  C     0.10877   0.83046   0.54634   0.00000  Uiso   1.00
C1255  C     0.25706   0.85279   0.97639   0.00000  Uiso   1.00
C1256  C     0.07640   0.81365   0.52366   0.00000  Uiso   1.00
C1257  C     0.17533   0.82775   0.97729   0.00000  Uiso   1.00
C1258  C     0.15811   0.83878   0.52278   0.00000  Uiso   1.00
C1259  C     0.19042   0.85862   0.54311   0.00000  Uiso   1.00
C1260  C     0.14307   0.80782   0.95697   0.00000  Uiso   1.00
C1261  C     0.23917   0.86521   0.52089   0.00000  Uiso   1.00
C1262  C     0.09434   0.80118   0.97918   0.00000  Uiso   1.00
H1263  H     0.11455   0.84615   0.61222   0.00000  Uiso   1.00
H1264  H     0.21867   0.82084   0.88779   0.00000  Uiso   1.00
H1265  H     0.30561   0.81117   0.60880   0.00000  Uiso   1.00
H1266  H     0.02782   0.85517   0.89122   0.00000  Uiso   1.00
H1267  H     0.33294   0.86723   0.97061   0.00000  Uiso   1.00
H1268  H     0.00057   0.79900   0.52944   0.00000  Uiso   1.00
H1269  H     0.17861   0.87121   0.57604   0.00000  Uiso   1.00
H1270  H     0.15496   0.79517   0.92407   0.00000  Uiso   1.00
C1271  C     0.29079   0.68819   0.76891   0.00000  Uiso   1.00
C1272  C     0.04255   0.97848   0.73109   0.00000  Uiso   1.00
H1273  H     0.25822   0.70485   0.78471   0.00000  Uiso   1.00
H1274  H     0.07512   0.96182   0.71528   0.00000  Uiso   1.00
C1275  C     0.28965   0.97867   0.76974   0.00000  Uiso   1.00
C1276  C     0.04368   0.68799   0.73026   0.00000  Uiso   1.00
C1277  C     0.33280   0.95719   0.75100   0.00000  Uiso   1.00
C1278  C     0.00054   0.70947   0.74899   0.00000  Uiso   1.00
C1279  C     0.18255   0.80972   0.78069   0.00000  Uiso   1.00
C1280  C     0.15078   0.85695   0.71931   0.00000  Uiso   1.00
C1281  C     0.13250   0.81050   0.78070   0.00000  Uiso   1.00
C1282  C     0.20083   0.85617   0.71930   0.00000  Uiso   1.00
H1283  H     0.10538   0.79328   0.80534   0.00000  Uiso   1.00
H1284  H     0.22795   0.87340   0.69466   0.00000  Uiso   1.00
N1285  N     0.11736   0.83334   0.74999   0.00000  Uiso   1.00
N1286  N     0.21597   0.83332   0.75001   0.00000  Uiso   1.00
N1287  N     0.26901   0.88721   0.54334   0.00000  Uiso   1.00
O1288  O     0.29376   0.91933   0.52422   0.00000  Uiso   1.00
O1289  O     0.26406   0.88034   0.58566   0.00000  Uiso   1.00
N1290  N     0.06455   0.77911   0.95675   0.00000  Uiso   1.00
O1291  O     0.06940   0.78602   0.91446   0.00000  Uiso   1.00
O1292  O     0.03994   0.74691   0.97585   0.00000  Uiso   1.00
O1293  O     0.24790   0.95767   0.79250   0.00000  Uiso   1.00
C1294  C     0.21227   0.96280   0.76930   0.00000  Uiso   1.00
H1295  H     0.18252   0.94037   0.78306   0.00000  Uiso   1.00
H1296  H     0.22691   0.95658   0.73300   0.00000  Uiso   1.00
H1297  H     0.19641   0.99411   0.77419   0.00000  Uiso   1.00
O1298  O     0.08544   0.70900   0.70749   0.00000  Uiso   1.00
C1299  C     0.12107   0.70386   0.73069   0.00000  Uiso   1.00
H1300  H     0.10644   0.71008   0.76699   0.00000  Uiso   1.00
H1301  H     0.15083   0.72629   0.71692   0.00000  Uiso   1.00
H1302  H     0.13692   0.67255   0.72580   0.00000  Uiso   1.00
O1303  O     0.19851   0.78818   0.81299   0.00000  Uiso   1.00
C1304  C     0.17402   0.75036   0.82565   0.00000  Uiso   1.00
H1305  H     0.17143   0.73264   0.79615   0.00000  Uiso   1.00
H1306  H     0.13784   0.75508   0.84929   0.00000  Uiso   1.00
H1307  H     0.19496   0.73160   0.84391   0.00000  Uiso   1.00
O1308  O     0.13481   0.87850   0.68702   0.00000  Uiso   1.00
C1309  C     0.15935   0.91628   0.67430   0.00000  Uiso   1.00
H1310  H     0.19550   0.91152   0.65064   0.00000  Uiso   1.00
H1311  H     0.16201   0.93402   0.70377   0.00000  Uiso   1.00
H1312  H     0.13841   0.93507   0.65606   0.00000  Uiso   1.00
O1313  O     0.37291   0.77322   0.75000   0.00000  Uiso   1.00
O1314  O     0.62709   0.89345   0.75000   0.00000  Uiso   1.00
O1315  O     0.62706   0.77321   0.75000   0.00000  Uiso   1.00
O1316  O     0.37294   0.89346   0.75000   0.00000  Uiso   1.00
C1317  C     0.33356   0.75411   0.74938   0.00000  Uiso   1.00
C1318  C     0.66644   0.91256   0.75062   0.00000  Uiso   1.00
O1319  O     0.35186   0.83334   0.81492   0.00000  Uiso   1.00
O1320  O     0.64814   0.83332   0.68508   0.00000  Uiso   1.00
O1321  O     0.60600   0.83333   0.81492   0.00000  Uiso   1.00
O1322  O     0.39400   0.83333   0.68508   0.00000  Uiso   1.00
C1323  C     0.63935   0.83381   0.83595   0.00000  Uiso   1.00
C1324  C     0.36065   0.83286   0.66405   0.00000  Uiso   1.00
Cu1325 Cu    0.38022   0.83334   0.75000   0.00000  Uiso   1.00
Cu1326 Cu    0.61978   0.83333   0.75000   0.00000  Uiso   1.00
C1327  C     0.62421   0.83697   0.88474   0.00000  Uiso   1.00
C1328  C     0.37580   0.82966   0.61526   0.00000  Uiso   1.00
C1329  C     0.64000   0.85730   0.95370   0.00000  Uiso   1.00
C1330  C     0.36014   0.80907   0.54634   0.00000  Uiso   1.00
C1331  C     0.65663   0.84963   0.90825   0.00000  Uiso   1.00
C1332  C     0.34345   0.81680   0.59177   0.00000  Uiso   1.00
C1333  C     0.57569   0.82972   0.90751   0.00000  Uiso   1.00
C1334  C     0.42430   0.83701   0.59250   0.00000  Uiso   1.00
C1335  C     0.55798   0.83610   0.95371   0.00000  Uiso   1.00
C1336  C     0.44210   0.83046   0.54634   0.00000  Uiso   1.00
C1337  C     0.59040   0.85279   0.97639   0.00000  Uiso   1.00
C1338  C     0.40974   0.81365   0.52366   0.00000  Uiso   1.00
C1339  C     0.50867   0.82775   0.97729   0.00000  Uiso   1.00
C1340  C     0.49144   0.83878   0.52278   0.00000  Uiso   1.00
C1341  C     0.52376   0.85862   0.54311   0.00000  Uiso   1.00
C1342  C     0.47641   0.80782   0.95697   0.00000  Uiso   1.00
C1343  C     0.57251   0.86521   0.52089   0.00000  Uiso   1.00
C1344  C     0.42767   0.80118   0.97918   0.00000  Uiso   1.00
H1345  H     0.44789   0.84615   0.61222   0.00000  Uiso   1.00
H1346  H     0.55200   0.82084   0.88779   0.00000  Uiso   1.00
H1347  H     0.63895   0.81117   0.60880   0.00000  Uiso   1.00
H1348  H     0.36116   0.85517   0.89122   0.00000  Uiso   1.00
H1349  H     0.66628   0.86723   0.97061   0.00000  Uiso   1.00
H1350  H     0.33391   0.79900   0.52944   0.00000  Uiso   1.00
H1351  H     0.51194   0.87121   0.57604   0.00000  Uiso   1.00
H1352  H     0.48830   0.79517   0.92407   0.00000  Uiso   1.00
C1353  C     0.62412   0.68819   0.76891   0.00000  Uiso   1.00
C1354  C     0.37588   0.97848   0.73109   0.00000  Uiso   1.00
H1355  H     0.59156   0.70485   0.78471   0.00000  Uiso   1.00
H1356  H     0.40845   0.96182   0.71528   0.00000  Uiso   1.00
C1357  C     0.62299   0.97867   0.76974   0.00000  Uiso   1.00
C1358  C     0.37702   0.68799   0.73026   0.00000  Uiso   1.00
C1359  C     0.66613   0.95719   0.75100   0.00000  Uiso   1.00
C1360  C     0.33387   0.70947   0.74899   0.00000  Uiso   1.00
C1361  C     0.51588   0.80972   0.78069   0.00000  Uiso   1.00
C1362  C     0.48411   0.85695   0.71931   0.00000  Uiso   1.00
C1363  C     0.46584   0.81050   0.78070   0.00000  Uiso   1.00
C1364  C     0.53416   0.85617   0.71930   0.00000  Uiso   1.00
H1365  H     0.43871   0.79328   0.80534   0.00000  Uiso   1.00
H1366  H     0.56129   0.87340   0.69466   0.00000  Uiso   1.00
N1367  N     0.45069   0.83334   0.74999   0.00000  Uiso   1.00
N1368  N     0.54931   0.83332   0.75001   0.00000  Uiso   1.00
N1369  N     0.60234   0.88721   0.54334   0.00000  Uiso   1.00
O1370  O     0.62710   0.91933   0.52422   0.00000  Uiso   1.00
O1371  O     0.59739   0.88034   0.58566   0.00000  Uiso   1.00
N1372  N     0.39788   0.77911   0.95675   0.00000  Uiso   1.00
O1373  O     0.40273   0.78602   0.91446   0.00000  Uiso   1.00
O1374  O     0.37328   0.74691   0.97585   0.00000  Uiso   1.00
O1375  O     0.58123   0.95767   0.79250   0.00000  Uiso   1.00
C1376  C     0.54561   0.96280   0.76930   0.00000  Uiso   1.00
H1377  H     0.51585   0.94037   0.78306   0.00000  Uiso   1.00
H1378  H     0.56024   0.95658   0.73300   0.00000  Uiso   1.00
H1379  H     0.52975   0.99411   0.77419   0.00000  Uiso   1.00
O1380  O     0.41878   0.70900   0.70749   0.00000  Uiso   1.00
C1381  C     0.45440   0.70386   0.73069   0.00000  Uiso   1.00
H1382  H     0.43978   0.71008   0.76699   0.00000  Uiso   1.00
H1383  H     0.48416   0.72629   0.71692   0.00000  Uiso   1.00
H1384  H     0.47025   0.67255   0.72580   0.00000  Uiso   1.00
O1385  O     0.53184   0.78818   0.81299   0.00000  Uiso   1.00
C1386  C     0.50736   0.75036   0.82565   0.00000  Uiso   1.00
H1387  H     0.50476   0.73264   0.79615   0.00000  Uiso   1.00
H1388  H     0.47118   0.75508   0.84929   0.00000  Uiso   1.00
H1389  H     0.52829   0.73160   0.84391   0.00000  Uiso   1.00
O1390  O     0.46815   0.87850   0.68702   0.00000  Uiso   1.00
C1391  C     0.49268   0.91628   0.67430   0.00000  Uiso   1.00
H1392  H     0.52884   0.91152   0.65064   0.00000  Uiso   1.00
H1393  H     0.49534   0.93402   0.70377   0.00000  Uiso   1.00
H1394  H     0.47174   0.93507   0.65606   0.00000  Uiso   1.00
O1395  O     0.70625   0.77322   0.75000   0.00000  Uiso   1.00
O1396  O     0.96042   0.89345   0.75000   0.00000  Uiso   1.00
O1397  O     0.96039   0.77321   0.75000   0.00000  Uiso   1.00
O1398  O     0.70628   0.89346   0.75000   0.00000  Uiso   1.00
C1399  C     0.66689   0.75411   0.74938   0.00000  Uiso   1.00
C1400  C     0.99978   0.91256   0.75062   0.00000  Uiso   1.00
O1401  O     0.68519   0.83334   0.81492   0.00000  Uiso   1.00
O1402  O     0.98148   0.83332   0.68508   0.00000  Uiso   1.00
O1403  O     0.93933   0.83333   0.81492   0.00000  Uiso   1.00
O1404  O     0.72733   0.83333   0.68508   0.00000  Uiso   1.00
C1405  C     0.97269   0.83381   0.83595   0.00000  Uiso   1.00
C1406  C     0.69398   0.83286   0.66405   0.00000  Uiso   1.00
Cu1407 Cu    0.71355   0.83334   0.75000   0.00000  Uiso   1.00
Cu1408 Cu    0.95311   0.83333   0.75000   0.00000  Uiso   1.00
C1409  C     0.95755   0.83697   0.88474   0.00000  Uiso   1.00
C1410  C     0.70914   0.82966   0.61526   0.00000  Uiso   1.00
C1411  C     0.97333   0.85730   0.95370   0.00000  Uiso   1.00
C1412  C     0.69348   0.80907   0.54634   0.00000  Uiso   1.00
C1413  C     0.98997   0.84963   0.90825   0.00000  Uiso   1.00
C1414  C     0.67679   0.81680   0.59177   0.00000  Uiso   1.00
C1415  C     0.90903   0.82972   0.90751   0.00000  Uiso   1.00
C1416  C     0.75764   0.83701   0.59250   0.00000  Uiso   1.00
C1417  C     0.89132   0.83610   0.95371   0.00000  Uiso   1.00
C1418  C     0.77544   0.83046   0.54634   0.00000  Uiso   1.00
C1419  C     0.92373   0.85279   0.97639   0.00000  Uiso   1.00
C1420  C     0.74307   0.81365   0.52366   0.00000  Uiso   1.00
C1421  C     0.84200   0.82775   0.97729   0.00000  Uiso   1.00
C1422  C     0.82478   0.83878   0.52278   0.00000  Uiso   1.00
C1423  C     0.85709   0.85862   0.54311   0.00000  Uiso   1.00
C1424  C     0.80974   0.80782   0.95697   0.00000  Uiso   1.00
C1425  C     0.90584   0.86521   0.52089   0.00000  Uiso   1.00
C1426  C     0.76101   0.80118   0.97918   0.00000  Uiso   1.00
H1427  H     0.78122   0.84615   0.61222   0.00000  Uiso   1.00
H1428  H     0.88533   0.82084   0.88779   0.00000  Uiso   1.00
H1429  H     0.97228   0.81117   0.60880   0.00000  Uiso   1.00
H1430  H     0.69449   0.85517   0.89122   0.00000  Uiso   1.00
H1431  H     0.99961   0.86723   0.97061   0.00000  Uiso   1.00
H1432  H     0.66724   0.79900   0.52944   0.00000  Uiso   1.00
H1433  H     0.84527   0.87121   0.57604   0.00000  Uiso   1.00
H1434  H     0.82163   0.79517   0.92407   0.00000  Uiso   1.00
C1435  C     0.95746   0.68819   0.76891   0.00000  Uiso   1.00
C1436  C     0.70922   0.97848   0.73109   0.00000  Uiso   1.00
H1437  H     0.92489   0.70485   0.78471   0.00000  Uiso   1.00
H1438  H     0.74178   0.96182   0.71528   0.00000  Uiso   1.00
C1439  C     0.95632   0.97867   0.76974   0.00000  Uiso   1.00
C1440  C     0.71035   0.68799   0.73026   0.00000  Uiso   1.00
C1441  C     0.99946   0.95719   0.75100   0.00000  Uiso   1.00
C1442  C     0.66721   0.70947   0.74899   0.00000  Uiso   1.00
C1443  C     0.84922   0.80972   0.78069   0.00000  Uiso   1.00
C1444  C     0.81745   0.85695   0.71931   0.00000  Uiso   1.00
C1445  C     0.79917   0.81050   0.78070   0.00000  Uiso   1.00
C1446  C     0.86750   0.85617   0.71930   0.00000  Uiso   1.00
H1447  H     0.77205   0.79328   0.80534   0.00000  Uiso   1.00
H1448  H     0.89462   0.87340   0.69466   0.00000  Uiso   1.00
N1449  N     0.78403   0.83334   0.74999   0.00000  Uiso   1.00
N1450  N     0.88264   0.83332   0.75001   0.00000  Uiso   1.00
N1451  N     0.93568   0.88721   0.54334   0.00000  Uiso   1.00
O1452  O     0.96043   0.91933   0.52422   0.00000  Uiso   1.00
O1453  O     0.93073   0.88034   0.58566   0.00000  Uiso   1.00
N1454  N     0.73122   0.77911   0.95675   0.00000  Uiso   1.00
O1455  O     0.73606   0.78602   0.91446   0.00000  Uiso   1.00
O1456  O     0.70661   0.74691   0.97585   0.00000  Uiso   1.00
O1457  O     0.91456   0.95767   0.79250   0.00000  Uiso   1.00
C1458  C     0.87894   0.96280   0.76930   0.00000  Uiso   1.00
H1459  H     0.84918   0.94037   0.78306   0.00000  Uiso   1.00
H1460  H     0.89357   0.95658   0.73300   0.00000  Uiso   1.00
H1461  H     0.86308   0.99411   0.77419   0.00000  Uiso   1.00
O1462  O     0.75211   0.70900   0.70749   0.00000  Uiso   1.00
C1463  C     0.78774   0.70386   0.73069   0.00000  Uiso   1.00
H1464  H     0.77311   0.71008   0.76699   0.00000  Uiso   1.00
H1465  H     0.81750   0.72629   0.71692   0.00000  Uiso   1.00
H1466  H     0.80359   0.67255   0.72580   0.00000  Uiso   1.00
O1467  O     0.86517   0.78818   0.81299   0.00000  Uiso   1.00
C1468  C     0.84069   0.75036   0.82565   0.00000  Uiso   1.00
H1469  H     0.83810   0.73264   0.79615   0.00000  Uiso   1.00
H1470  H     0.80451   0.75508   0.84929   0.00000  Uiso   1.00
H1471  H     0.86163   0.73160   0.84391   0.00000  Uiso   1.00
O1472  O     0.80148   0.87850   0.68702   0.00000  Uiso   1.00
C1473  C     0.82601   0.91628   0.67430   0.00000  Uiso   1.00
H1474  H     0.86217   0.91152   0.65064   0.00000  Uiso   1.00
H1475  H     0.82867   0.93402   0.70377   0.00000  Uiso   1.00
H1476  H     0.80507   0.93507   0.65606   0.00000  Uiso   1.00
loop_
_geom_bond_atom_site_label_1
_geom_bond_atom_site_label_2
_geom_bond_distance
_geom_bond_site_symmetry_2
_ccdc_geom_bond_type
O1     C5      1.292   .     A
O1     Cu13    1.964   .     S
O2     C6      1.292   .     A
O2     Cu14    1.964   .     S
O3     Cu14    1.964   .     S
O3     C87     1.295   .     S
O4     Cu13    1.964   .     S
O4     C170    1.295   1_455 S
C5     C48     1.450   .     S
C5     O167    1.295   1_455 S
C6     C47     1.450   .     S
C6     O86     1.295   .     S
O7     Cu13    1.961   .     S
O7     C175    1.298   1_455 S
O8     Cu14    1.961   .     S
O8     C94     1.298   .     S
O9     Cu14    1.950   .     S
O9     C11     1.297   .     A
O10    C12     1.297   .     A
O10    Cu13    1.950   .     S
C11    C15     1.466   .     S
C11    O89     1.298   .     S
C12    C16     1.466   .     S
C12    O172    1.298   1_455 S
Cu13   N55     2.019   .     S
Cu13   Cu178   2.687   1_455 S
Cu14   N56     2.019   .     S
Cu14   Cu95    2.687   .     S
C15    C19     1.395   .     A
C15    C21     1.395   .     A
C16    C20     1.395   .     A
C16    C22     1.395   .     A
C17    H37     1.081   .     S
C17    C25     1.410   .     A
C17    C19     1.390   .     A
C18    C26     1.410   .     A
C18    C20     1.390   .     A
C18    H38     1.081   .     S
C19    H118    1.083   .     S
C20    H199    1.083   1_455 S
C21    H34     1.074   .     S
C21    C23     1.407   .     A
C22    C24     1.407   .     A
C22    H33     1.074   .     S
C23    C27     1.427   .     A
C23    C25     1.423   .     A
C24    C26     1.423   .     A
C24    C28     1.427   .     A
C25    C769    1.405   .     S
C26    C770    1.405   1_554 S
C27    C30     1.416   .     A
C27    C766    1.418   .     S
C28    C29     1.416   .     A
C28    C765    1.418   1_554 S
C29    H39     1.076   .     S
C29    C31     1.394   .     A
C30    H40     1.076   .     S
C30    C32     1.394   .     A
C31    N57     1.439   .     S
C31    C763    1.405   1_554 S
C32    N60     1.439   .     S
C32    C764    1.405   .     S
H35    C102    1.083   .     S
H36    C183    1.083   1_455 S
C41    H43     1.079   .     S
C41    C537    1.392   1_545 S
C41    C130    1.398   .     S
C42    H44     1.079   .     S
C42    C292    1.392   .     S
C42    C211    1.398   1_455 S
C45    C47     1.406   .     A
C45    O63     1.385   .     S
C45    C287    1.392   .     S
C46    C48     1.406   .     A
C46    O68     1.385   .     S
C46    C534    1.392   1_545 S
C47    C124    1.398   .     S
C48    C205    1.398   1_455 S
C49    C51     1.434   .     A
C49    O73     1.391   .     S
C49    N56     1.376   .     A
C50    C52     1.434   .     A
C50    O78     1.391   .     S
C50    N55     1.376   .     A
C51    H53     1.079   .     S
C51    N55     1.362   .     A
C52    H54     1.079   .     S
C52    N56     1.362   .     A
N57    O59     1.301   .     A
N57    O58     1.301   .     A
N60    O62     1.301   .     A
N60    O61     1.301   .     A
O63    C64     1.410   .     S
C64    H67     1.110   .     S
C64    H66     1.114   .     S
C64    H65     1.109   .     S
O68    C69     1.410   .     S
C69    H71     1.109   .     S
C69    H72     1.110   .     S
C69    H70     1.114   .     S
O73    C74     1.410   .     S
C74    H76     1.108   .     S
C74    H77     1.109   .     S
C74    H75     1.111   .     S
O78    C79     1.410   .     S
C79    H81     1.111   .     S
C79    H80     1.108   .     S
C79    H82     1.109   .     S
O83    C87     1.292   .     A
O83    Cu95    1.964   .     S
O84    C88     1.292   .     A
O84    Cu96    1.964   .     S
O85    Cu96    1.964   .     S
O85    C169    1.295   .     S
O86    Cu95    1.964   .     S
C87    C130    1.450   .     S
C88    C129    1.450   .     S
C88    O168    1.295   .     S
O89    Cu95    1.961   .     S
O90    Cu96    1.961   .     S
O90    C176    1.298   .     S
O91    Cu96    1.950   .     S
O91    C93     1.297   .     A
O92    C94     1.297   .     A
O92    Cu95    1.950   .     S
C93    C97     1.466   .     S
C93    O171    1.298   .     S
C94    C98     1.466   .     S
Cu95   N137    2.019   .     S
Cu96   N138    2.019   .     S
Cu96   Cu177   2.687   .     S
C97    C101    1.395   .     A
C97    C103    1.395   .     A
C98    C102    1.395   .     A
C98    C104    1.395   .     A
C99    H119    1.081   .     S
C99    C107    1.410   .     A
C99    C101    1.390   .     A
C100   C108    1.410   .     A
C100   C102    1.390   .     A
C100   H120    1.081   .     S
C101   H200    1.083   .     S
C103   H116    1.074   .     S
C103   C105    1.407   .     A
C104   C106    1.407   .     A
C104   H115    1.074   .     S
C105   C109    1.427   .     A
C105   C107    1.423   .     A
C106   C108    1.423   .     A
C106   C110    1.427   .     A
C107   C851    1.405   .     S
C108   C852    1.405   1_554 S
C109   C112    1.416   .     A
C109   C848    1.418   .     S
C110   C111    1.416   .     A
C110   C847    1.418   1_554 S
C111   H121    1.076   .     S
C111   C113    1.394   .     A
C112   H122    1.076   .     S
C112   C114    1.394   .     A
C113   N139    1.439   .     S
C113   C845    1.405   1_554 S
C114   N142    1.439   .     S
C114   C846    1.405   .     S
H117   C184    1.083   .     S
C123   H125    1.079   .     S
C123   C619    1.392   1_545 S
C123   C212    1.398   .     S
C124   H126    1.079   .     S
C124   C374    1.392   .     S
C127   C129    1.406   .     A
C127   O145    1.385   .     S
C127   C369    1.392   .     S
C128   C130    1.406   .     A
C128   O150    1.385   .     S
C128   C616    1.392   1_545 S
C129   C206    1.398   .     S
C131   C133    1.434   .     A
C131   O155    1.391   .     S
C131   N138    1.376   .     A
C132   C134    1.434   .     A
C132   O160    1.391   .     S
C132   N137    1.376   .     A
C133   H135    1.079   .     S
C133   N137    1.362   .     A
C134   H136    1.079   .     S
C134   N138    1.362   .     A
N139   O141    1.301   .     A
N139   O140    1.301   .     A
N142   O144    1.301   .     A
N142   O143    1.301   .     A
O145   C146    1.410   .     S
C146   H149    1.110   .     S
C146   H148    1.114   .     S
C146   H147    1.109   .     S
O150   C151    1.410   .     S
C151   H153    1.109   .     S
C151   H154    1.110   .     S
C151   H152    1.114   .     S
O155   C156    1.410   .     S
C156   H158    1.108   .     S
C156   H159    1.109   .     S
C156   H157    1.111   .     S
O160   C161    1.410   .     S
C161   H163    1.111   .     S
C161   H162    1.108   .     S
C161   H164    1.109   .     S
O165   C169    1.292   .     A
O165   Cu177   1.964   .     S
O166   C170    1.292   .     A
O166   Cu178   1.964   .     S
O167   Cu178   1.964   .     S
O167   C5      1.295   1_655 S
O168   Cu177   1.964   .     S
C169   C212    1.450   .     S
C170   C211    1.450   .     S
C170   O4      1.295   1_655 S
O171   Cu177   1.961   .     S
O172   Cu178   1.961   .     S
O172   C12     1.298   1_655 S
O173   Cu178   1.950   .     S
O173   C175    1.297   .     A
O174   C176    1.297   .     A
O174   Cu177   1.950   .     S
C175   C179    1.466   .     S
C175   O7      1.298   1_655 S
C176   C180    1.466   .     S
Cu177  N219    2.019   .     S
Cu178  N220    2.019   .     S
Cu178  Cu13    2.687   1_655 S
C179   C183    1.395   .     A
C179   C185    1.395   .     A
C180   C184    1.395   .     A
C180   C186    1.395   .     A
C181   H201    1.081   .     S
C181   C189    1.410   .     A
C181   C183    1.390   .     A
C182   C190    1.410   .     A
C182   C184    1.390   .     A
C182   H202    1.081   .     S
C183   H36     1.083   1_655 S
C185   H198    1.074   .     S
C185   C187    1.407   .     A
C186   C188    1.407   .     A
C186   H197    1.074   .     S
C187   C191    1.427   .     A
C187   C189    1.423   .     A
C188   C190    1.423   .     A
C188   C192    1.427   .     A
C189   C933    1.405   .     S
C190   C934    1.405   1_554 S
C191   C194    1.416   .     A
C191   C930    1.418   .     S
C192   C193    1.416   .     A
C192   C929    1.418   1_554 S
C193   H203    1.076   .     S
C193   C195    1.394   .     A
C194   H204    1.076   .     S
C194   C196    1.394   .     A
C195   N221    1.439   .     S
C195   C927    1.405   1_554 S
C196   N224    1.439   .     S
C196   C928    1.405   .     S
H199   C20     1.083   1_655 S
C205   H207    1.079   .     S
C205   C701    1.392   1_545 S
C205   C48     1.398   1_655 S
C206   H208    1.079   .     S
C206   C456    1.392   .     S
C209   C211    1.406   .     A
C209   O227    1.385   .     S
C209   C451    1.392   .     S
C210   C212    1.406   .     A
C210   O232    1.385   .     S
C210   C698    1.392   1_545 S
C211   C42     1.398   1_655 S
C213   C215    1.434   .     A
C213   O237    1.391   .     S
C213   N220    1.376   .     A
C214   C216    1.434   .     A
C214   O242    1.391   .     S
C214   N219    1.376   .     A
C215   H217    1.079   .     S
C215   N219    1.362   .     A
C216   H218    1.079   .     S
C216   N220    1.362   .     A
N221   O223    1.301   .     A
N221   O222    1.301   .     A
N224   O226    1.301   .     A
N224   O225    1.301   .     A
O227   C228    1.410   .     S
C228   H231    1.110   .     S
C228   H230    1.114   .     S
C228   H229    1.109   .     S
O232   C233    1.410   .     S
C233   H235    1.109   .     S
C233   H236    1.110   .     S
C233   H234    1.114   .     S
O237   C238    1.410   .     S
C238   H240    1.108   .     S
C238   H241    1.109   .     S
C238   H239    1.111   .     S
O242   C243    1.410   .     S
C243   H245    1.111   .     S
C243   H244    1.108   .     S
C243   H246    1.109   .     S
O247   C251    1.292   .     A
O247   Cu259   1.964   .     S
O248   C252    1.292   .     A
O248   Cu260   1.964   .     S
O249   Cu260   1.964   .     S
O249   C333    1.295   .     S
O250   Cu259   1.964   .     S
O250   C416    1.295   1_455 S
C251   C294    1.450   .     S
C251   O413    1.295   1_455 S
C252   C293    1.450   .     S
C252   O332    1.295   .     S
O253   Cu259   1.961   .     S
O253   C421    1.298   1_455 S
O254   Cu260   1.961   .     S
O254   C340    1.298   .     S
O255   Cu260   1.950   .     S
O255   C257    1.297   .     A
O256   C258    1.297   .     A
O256   Cu259   1.950   .     S
C257   C261    1.466   .     S
C257   O335    1.298   .     S
C258   C262    1.466   .     S
C258   O418    1.298   1_455 S
Cu259  N301    2.019   .     S
Cu259  Cu424   2.687   1_455 S
Cu260  N302    2.019   .     S
Cu260  Cu341   2.687   .     S
C261   C265    1.395   .     A
C261   C267    1.395   .     A
C262   C266    1.395   .     A
C262   C268    1.395   .     A
C263   H283    1.081   .     S
C263   C271    1.410   .     A
C263   C265    1.390   .     A
C264   C272    1.410   .     A
C264   C266    1.390   .     A
C264   H284    1.081   .     S
C265   H364    1.083   .     S
C266   H445    1.083   1_455 S
C267   H280    1.074   .     S
C267   C269    1.407   .     A
C268   C270    1.407   .     A
C268   H279    1.074   .     S
C269   C273    1.427   .     A
C269   C271    1.423   .     A
C270   C272    1.423   .     A
C270   C274    1.427   .     A
C271   C1015   1.405   .     S
C272   C1016   1.405   1_554 S
C273   C276    1.416   .     A
C273   C1012   1.418   .     S
C274   C275    1.416   .     A
C274   C1011   1.418   1_554 S
C275   H285    1.076   .     S
C275   C277    1.394   .     A
C276   H286    1.076   .     S
C276   C278    1.394   .     A
C277   N303    1.439   .     S
C277   C1009   1.405   1_554 S
C278   N306    1.439   .     S
C278   C1010   1.405   .     S
H281   C348    1.083   .     S
H282   C429    1.083   1_455 S
C287   H289    1.079   .     S
C287   C376    1.398   .     S
C288   H290    1.079   .     S
C288   C538    1.392   .     S
C288   C457    1.398   1_455 S
C291   C293    1.406   .     A
C291   O309    1.385   .     S
C291   C533    1.392   .     S
C292   C294    1.406   .     A
C292   O314    1.385   .     S
C293   C370    1.398   .     S
C294   C451    1.398   1_455 S
C295   C297    1.434   .     A
C295   O319    1.391   .     S
C295   N302    1.376   .     A
C296   C298    1.434   .     A
C296   O324    1.391   .     S
C296   N301    1.376   .     A
C297   H299    1.079   .     S
C297   N301    1.362   .     A
C298   H300    1.079   .     S
C298   N302    1.362   .     A
N303   O305    1.301   .     A
N303   O304    1.301   .     A
N306   O308    1.301   .     A
N306   O307    1.301   .     A
O309   C310    1.410   .     S
C310   H313    1.110   .     S
C310   H312    1.114   .     S
C310   H311    1.109   .     S
O314   C315    1.410   .     S
C315   H317    1.109   .     S
C315   H318    1.110   .     S
C315   H316    1.114   .     S
O319   C320    1.410   .     S
C320   H322    1.108   .     S
C320   H323    1.109   .     S
C320   H321    1.111   .     S
O324   C325    1.410   .     S
C325   H327    1.111   .     S
C325   H326    1.108   .     S
C325   H328    1.109   .     S
O329   C333    1.292   .     A
O329   Cu341   1.964   .     S
O330   C334    1.292   .     A
O330   Cu342   1.964   .     S
O331   Cu342   1.964   .     S
O331   C415    1.295   .     S
O332   Cu341   1.964   .     S
C333   C376    1.450   .     S
C334   C375    1.450   .     S
C334   O414    1.295   .     S
O335   Cu341   1.961   .     S
O336   Cu342   1.961   .     S
O336   C422    1.298   .     S
O337   Cu342   1.950   .     S
O337   C339    1.297   .     A
O338   C340    1.297   .     A
O338   Cu341   1.950   .     S
C339   C343    1.466   .     S
C339   O417    1.298   .     S
C340   C344    1.466   .     S
Cu341  N383    2.019   .     S
Cu342  N384    2.019   .     S
Cu342  Cu423   2.687   .     S
C343   C347    1.395   .     A
C343   C349    1.395   .     A
C344   C348    1.395   .     A
C344   C350    1.395   .     A
C345   H365    1.081   .     S
C345   C353    1.410   .     A
C345   C347    1.390   .     A
C346   C354    1.410   .     A
C346   C348    1.390   .     A
C346   H366    1.081   .     S
C347   H446    1.083   .     S
C349   H362    1.074   .     S
C349   C351    1.407   .     A
C350   C352    1.407   .     A
C350   H361    1.074   .     S
C351   C355    1.427   .     A
C351   C353    1.423   .     A
C352   C354    1.423   .     A
C352   C356    1.427   .     A
C353   C1097   1.405   .     S
C354   C1098   1.405   1_554 S
C355   C358    1.416   .     A
C355   C1094   1.418   .     S
C356   C357    1.416   .     A
C356   C1093   1.418   1_554 S
C357   H367    1.076   .     S
C357   C359    1.394   .     A
C358   H368    1.076   .     S
C358   C360    1.394   .     A
C359   N385    1.439   .     S
C359   C1091   1.405   1_554 S
C360   N388    1.439   .     S
C360   C1092   1.405   .     S
H363   C430    1.083   .     S
C369   H371    1.079   .     S
C369   C458    1.398   .     S
C370   H372    1.079   .     S
C370   C620    1.392   .     S
C373   C375    1.406   .     A
C373   O391    1.385   .     S
C373   C615    1.392   .     S
C374   C376    1.406   .     A
C374   O396    1.385   .     S
C375   C452    1.398   .     S
C377   C379    1.434   .     A
C377   O401    1.391   .     S
C377   N384    1.376   .     A
C378   C380    1.434   .     A
C378   O406    1.391   .     S
C378   N383    1.376   .     A
C379   H381    1.079   .     S
C379   N383    1.362   .     A
C380   H382    1.079   .     S
C380   N384    1.362   .     A
N385   O387    1.301   .     A
N385   O386    1.301   .     A
N388   O390    1.301   .     A
N388   O389    1.301   .     A
O391   C392    1.410   .     S
C392   H395    1.110   .     S
C392   H394    1.114   .     S
C392   H393    1.109   .     S
O396   C397    1.410   .     S
C397   H399    1.109   .     S
C397   H400    1.110   .     S
C397   H398    1.114   .     S
O401   C402    1.410   .     S
C402   H404    1.108   .     S
C402   H405    1.109   .     S
C402   H403    1.111   .     S
O406   C407    1.410   .     S
C407   H409    1.111   .     S
C407   H408    1.108   .     S
C407   H410    1.109   .     S
O411   C415    1.292   .     A
O411   Cu423   1.964   .     S
O412   C416    1.292   .     A
O412   Cu424   1.964   .     S
O413   Cu424   1.964   .     S
O413   C251    1.295   1_655 S
O414   Cu423   1.964   .     S
C415   C458    1.450   .     S
C416   C457    1.450   .     S
C416   O250    1.295   1_655 S
O417   Cu423   1.961   .     S
O418   Cu424   1.961   .     S
O418   C258    1.298   1_655 S
O419   Cu424   1.950   .     S
O419   C421    1.297   .     A
O420   C422    1.297   .     A
O420   Cu423   1.950   .     S
C421   C425    1.466   .     S
C421   O253    1.298   1_655 S
C422   C426    1.466   .     S
Cu423  N465    2.019   .     S
Cu424  N466    2.019   .     S
Cu424  Cu259   2.687   1_655 S
C425   C429    1.395   .     A
C425   C431    1.395   .     A
C426   C430    1.395   .     A
C426   C432    1.395   .     A
C427   H447    1.081   .     S
C427   C435    1.410   .     A
C427   C429    1.390   .     A
C428   C436    1.410   .     A
C428   C430    1.390   .     A
C428   H448    1.081   .     S
C429   H282    1.083   1_655 S
C431   H444    1.074   .     S
C431   C433    1.407   .     A
C432   C434    1.407   .     A
C432   H443    1.074   .     S
C433   C437    1.427   .     A
C433   C435    1.423   .     A
C434   C436    1.423   .     A
C434   C438    1.427   .     A
C435   C1179   1.405   .     S
C436   C1180   1.405   1_554 S
C437   C440    1.416   .     A
C437   C1176   1.418   .     S
C438   C439    1.416   .     A
C438   C1175   1.418   1_554 S
C439   H449    1.076   .     S
C439   C441    1.394   .     A
C440   H450    1.076   .     S
C440   C442    1.394   .     A
C441   N467    1.439   .     S
C441   C1173   1.405   1_554 S
C442   N470    1.439   .     S
C442   C1174   1.405   .     S
H445   C266    1.083   1_655 S
C451   H453    1.079   .     S
C451   C294    1.398   1_655 S
C452   H454    1.079   .     S
C452   C702    1.392   .     S
C455   C457    1.406   .     A
C455   O473    1.385   .     S
C455   C697    1.392   .     S
C456   C458    1.406   .     A
C456   O478    1.385   .     S
C457   C288    1.398   1_655 S
C459   C461    1.434   .     A
C459   O483    1.391   .     S
C459   N466    1.376   .     A
C460   C462    1.434   .     A
C460   O488    1.391   .     S
C460   N465    1.376   .     A
C461   H463    1.079   .     S
C461   N465    1.362   .     A
C462   H464    1.079   .     S
C462   N466    1.362   .     A
N467   O469    1.301   .     A
N467   O468    1.301   .     A
N470   O472    1.301   .     A
N470   O471    1.301   .     A
O473   C474    1.410   .     S
C474   H477    1.110   .     S
C474   H476    1.114   .     S
C474   H475    1.109   .     S
O478   C479    1.410   .     S
C479   H481    1.109   .     S
C479   H482    1.110   .     S
C479   H480    1.114   .     S
O483   C484    1.410   .     S
C484   H486    1.108   .     S
C484   H487    1.109   .     S
C484   H485    1.111   .     S
O488   C489    1.410   .     S
C489   H491    1.111   .     S
C489   H490    1.108   .     S
C489   H492    1.109   .     S
O493   C497    1.292   .     A
O493   Cu505   1.964   .     S
O494   C498    1.292   .     A
O494   Cu506   1.964   .     S
O495   Cu506   1.964   .     S
O495   C579    1.295   .     S
O496   Cu505   1.964   .     S
O496   C662    1.295   1_455 S
C497   C540    1.450   .     S
C497   O659    1.295   1_455 S
C498   C539    1.450   .     S
C498   O578    1.295   .     S
O499   Cu505   1.961   .     S
O499   C667    1.298   1_455 S
O500   Cu506   1.961   .     S
O500   C586    1.298   .     S
O501   Cu506   1.950   .     S
O501   C503    1.297   .     A
O502   C504    1.297   .     A
O502   Cu505   1.950   .     S
C503   C507    1.466   .     S
C503   O581    1.298   .     S
C504   C508    1.466   .     S
C504   O664    1.298   1_455 S
Cu505  N547    2.019   .     S
Cu505  Cu670   2.687   1_455 S
Cu506  N548    2.019   .     S
Cu506  Cu587   2.687   .     S
C507   C511    1.395   .     A
C507   C513    1.395   .     A
C508   C512    1.395   .     A
C508   C514    1.395   .     A
C509   H529    1.081   .     S
C509   C517    1.410   .     A
C509   C511    1.390   .     A
C510   C518    1.410   .     A
C510   C512    1.390   .     A
C510   H530    1.081   .     S
C511   H610    1.083   .     S
C512   H691    1.083   1_455 S
C513   H526    1.074   .     S
C513   C515    1.407   .     A
C514   C516    1.407   .     A
C514   H525    1.074   .     S
C515   C519    1.427   .     A
C515   C517    1.423   .     A
C516   C518    1.423   .     A
C516   C520    1.427   .     A
C517   C1261   1.405   .     S
C518   C1262   1.405   1_554 S
C519   C522    1.416   .     A
C519   C1258   1.418   .     S
C520   C521    1.416   .     A
C520   C1257   1.418   1_554 S
C521   H531    1.076   .     S
C521   C523    1.394   .     A
C522   H532    1.076   .     S
C522   C524    1.394   .     A
C523   N549    1.439   .     S
C523   C1255   1.405   1_554 S
C524   N552    1.439   .     S
C524   C1256   1.405   .     S
H527   C594    1.083   .     S
H528   C675    1.083   1_455 S
C533   H535    1.079   .     S
C533   C622    1.398   .     S
C534   H536    1.079   .     S
C534   C46     1.392   1_565 S
C534   C703    1.398   1_455 S
C537   C539    1.406   .     A
C537   O555    1.385   .     S
C537   C41     1.392   1_565 S
C538   C540    1.406   .     A
C538   O560    1.385   .     S
C539   C616    1.398   .     S
C540   C697    1.398   1_455 S
C541   C543    1.434   .     A
C541   O565    1.391   .     S
C541   N548    1.376   .     A
C542   C544    1.434   .     A
C542   O570    1.391   .     S
C542   N547    1.376   .     A
C543   H545    1.079   .     S
C543   N547    1.362   .     A
C544   H546    1.079   .     S
C544   N548    1.362   .     A
N549   O551    1.301   .     A
N549   O550    1.301   .     A
N552   O554    1.301   .     A
N552   O553    1.301   .     A
O555   C556    1.410   .     S
C556   H559    1.110   .     S
C556   H558    1.114   .     S
C556   H557    1.109   .     S
O560   C561    1.410   .     S
C561   H563    1.109   .     S
C561   H564    1.110   .     S
C561   H562    1.114   .     S
O565   C566    1.410   .     S
C566   H568    1.108   .     S
C566   H569    1.109   .     S
C566   H567    1.111   .     S
O570   C571    1.410   .     S
C571   H573    1.111   .     S
C571   H572    1.108   .     S
C571   H574    1.109   .     S
O575   C579    1.292   .     A
O575   Cu587   1.964   .     S
O576   C580    1.292   .     A
O576   Cu588   1.964   .     S
O577   Cu588   1.964   .     S
O577   C661    1.295   .     S
O578   Cu587   1.964   .     S
C579   C622    1.450   .     S
C580   C621    1.450   .     S
C580   O660    1.295   .     S
O581   Cu587   1.961   .     S
O582   Cu588   1.961   .     S
O582   C668    1.298   .     S
O583   Cu588   1.950   .     S
O583   C585    1.297   .     A
O584   C586    1.297   .     A
O584   Cu587   1.950   .     S
C585   C589    1.466   .     S
C585   O663    1.298   .     S
C586   C590    1.466   .     S
Cu587  N629    2.019   .     S
Cu588  N630    2.019   .     S
Cu588  Cu669   2.687   .     S
C589   C593    1.395   .     A
C589   C595    1.395   .     A
C590   C594    1.395   .     A
C590   C596    1.395   .     A
C591   H611    1.081   .     S
C591   C599    1.410   .     A
C591   C593    1.390   .     A
C592   C600    1.410   .     A
C592   C594    1.390   .     A
C592   H612    1.081   .     S
C593   H692    1.083   .     S
C595   H608    1.074   .     S
C595   C597    1.407   .     A
C596   C598    1.407   .     A
C596   H607    1.074   .     S
C597   C601    1.427   .     A
C597   C599    1.423   .     A
C598   C600    1.423   .     A
C598   C602    1.427   .     A
C599   C1343   1.405   .     S
C600   C1344   1.405   1_554 S
C601   C604    1.416   .     A
C601   C1340   1.418   .     S
C602   C603    1.416   .     A
C602   C1339   1.418   1_554 S
C603   H613    1.076   .     S
C603   C605    1.394   .     A
C604   H614    1.076   .     S
C604   C606    1.394   .     A
C605   N631    1.439   .     S
C605   C1337   1.405   1_554 S
C606   N634    1.439   .     S
C606   C1338   1.405   .     S
H609   C676    1.083   .     S
C615   H617    1.079   .     S
C615   C704    1.398   .     S
C616   H618    1.079   .     S
C616   C128    1.392   1_565 S
C619   C621    1.406   .     A
C619   O637    1.385   .     S
C619   C123    1.392   1_565 S
C620   C622    1.406   .     A
C620   O642    1.385   .     S
C621   C698    1.398   .     S
C623   C625    1.434   .     A
C623   O647    1.391   .     S
C623   N630    1.376   .     A
C624   C626    1.434   .     A
C624   O652    1.391   .     S
C624   N629    1.376   .     A
C625   H627    1.079   .     S
C625   N629    1.362   .     A
C626   H628    1.079   .     S
C626   N630    1.362   .     A
N631   O633    1.301   .     A
N631   O632    1.301   .     A
N634   O636    1.301   .     A
N634   O635    1.301   .     A
O637   C638    1.410   .     S
C638   H641    1.110   .     S
C638   H640    1.114   .     S
C638   H639    1.109   .     S
O642   C643    1.410   .     S
C643   H645    1.109   .     S
C643   H646    1.110   .     S
C643   H644    1.114   .     S
O647   C648    1.410   .     S
C648   H650    1.108   .     S
C648   H651    1.109   .     S
C648   H649    1.111   .     S
O652   C653    1.410   .     S
C653   H655    1.111   .     S
C653   H654    1.108   .     S
C653   H656    1.109   .     S
O657   C661    1.292   .     A
O657   Cu669   1.964   .     S
O658   C662    1.292   .     A
O658   Cu670   1.964   .     S
O659   Cu670   1.964   .     S
O659   C497    1.295   1_655 S
O660   Cu669   1.964   .     S
C661   C704    1.450   .     S
C662   C703    1.450   .     S
C662   O496    1.295   1_655 S
O663   Cu669   1.961   .     S
O664   Cu670   1.961   .     S
O664   C504    1.298   1_655 S
O665   Cu670   1.950   .     S
O665   C667    1.297   .     A
O666   C668    1.297   .     A
O666   Cu669   1.950   .     S
C667   C671    1.466   .     S
C667   O499    1.298   1_655 S
C668   C672    1.466   .     S
Cu669  N711    2.019   .     S
Cu670  N712    2.019   .     S
Cu670  Cu505   2.687   1_655 S
C671   C675    1.395   .     A
C671   C677    1.395   .     A
C672   C676    1.395   .     A
C672   C678    1.395   .     A
C673   H693    1.081   .     S
C673   C681    1.410   .     A
C673   C675    1.390   .     A
C674   C682    1.410   .     A
C674   C676    1.390   .     A
C674   H694    1.081   .     S
C675   H528    1.083   1_655 S
C677   H690    1.074   .     S
C677   C679    1.407   .     A
C678   C680    1.407   .     A
C678   H689    1.074   .     S
C679   C683    1.427   .     A
C679   C681    1.423   .     A
C680   C682    1.423   .     A
C680   C684    1.427   .     A
C681   C1425   1.405   .     S
C682   C1426   1.405   1_554 S
C683   C686    1.416   .     A
C683   C1422   1.418   .     S
C684   C685    1.416   .     A
C684   C1421   1.418   1_554 S
C685   H695    1.076   .     S
C685   C687    1.394   .     A
C686   H696    1.076   .     S
C686   C688    1.394   .     A
C687   N713    1.439   .     S
C687   C1419   1.405   1_554 S
C688   N716    1.439   .     S
C688   C1420   1.405   .     S
H691   C512    1.083   1_655 S
C697   H699    1.079   .     S
C697   C540    1.398   1_655 S
C698   H700    1.079   .     S
C698   C210    1.392   1_565 S
C701   C703    1.406   .     A
C701   O719    1.385   .     S
C701   C205    1.392   1_565 S
C702   C704    1.406   .     A
C702   O724    1.385   .     S
C703   C534    1.398   1_655 S
C705   C707    1.434   .     A
C705   O729    1.391   .     S
C705   N712    1.376   .     A
C706   C708    1.434   .     A
C706   O734    1.391   .     S
C706   N711    1.376   .     A
C707   H709    1.079   .     S
C707   N711    1.362   .     A
C708   H710    1.079   .     S
C708   N712    1.362   .     A
N713   O715    1.301   .     A
N713   O714    1.301   .     A
N716   O718    1.301   .     A
N716   O717    1.301   .     A
O719   C720    1.410   .     S
C720   H723    1.110   .     S
C720   H722    1.114   .     S
C720   H721    1.109   .     S
O724   C725    1.410   .     S
C725   H727    1.109   .     S
C725   H728    1.110   .     S
C725   H726    1.114   .     S
O729   C730    1.410   .     S
C730   H732    1.108   .     S
C730   H733    1.109   .     S
C730   H731    1.111   .     S
O734   C735    1.410   .     S
C735   H737    1.111   .     S
C735   H736    1.108   .     S
C735   H738    1.109   .     S
O739   C743    1.292   .     A
O739   Cu751   1.964   .     S
O740   C744    1.292   .     A
O740   Cu752   1.964   .     S
O741   Cu752   1.964   .     S
O741   C825    1.295   .     S
O742   Cu751   1.964   .     S
O742   C908    1.295   1_455 S
C743   C786    1.450   .     S
C743   O905    1.295   1_455 S
C744   C785    1.450   .     S
C744   O824    1.295   .     S
O745   Cu751   1.961   .     S
O745   C913    1.298   1_455 S
O746   Cu752   1.961   .     S
O746   C832    1.298   .     S
O747   Cu752   1.950   .     S
O747   C749    1.297   .     A
O748   C750    1.297   .     A
O748   Cu751   1.950   .     S
C749   C753    1.466   .     S
C749   O827    1.298   .     S
C750   C754    1.466   .     S
C750   O910    1.298   1_455 S
Cu751  N793    2.019   .     S
Cu751  Cu916   2.687   1_455 S
Cu752  N794    2.019   .     S
Cu752  Cu833   2.687   .     S
C753   C757    1.395   .     A
C753   C759    1.395   .     A
C754   C758    1.395   .     A
C754   C760    1.395   .     A
C755   H775    1.081   .     S
C755   C763    1.410   .     A
C755   C757    1.390   .     A
C756   C764    1.410   .     A
C756   C758    1.390   .     A
C756   H776    1.081   .     S
C757   H856    1.083   .     S
C758   H937    1.083   1_455 S
C759   H772    1.074   .     S
C759   C761    1.407   .     A
C760   C762    1.407   .     A
C760   H771    1.074   .     S
C761   C765    1.427   .     A
C761   C763    1.423   .     A
C762   C764    1.423   .     A
C762   C766    1.427   .     A
C763   C31     1.405   1_556 S
C765   C768    1.416   .     A
C765   C28     1.418   1_556 S
C766   C767    1.416   .     A
C767   H777    1.076   .     S
C767   C769    1.394   .     A
C768   H778    1.076   .     S
C768   C770    1.394   .     A
C769   N795    1.439   .     S
C770   N798    1.439   .     S
C770   C26     1.405   1_556 S
H773   C840    1.083   .     S
H774   C921    1.083   1_455 S
C779   H781    1.079   .     S
C779   C1275   1.392   1_545 S
C779   C868    1.398   .     S
C780   H782    1.079   .     S
C780   C1030   1.392   .     S
C780   C949    1.398   1_455 S
C783   C785    1.406   .     A
C783   O801    1.385   .     S
C783   C1025   1.392   .     S
C784   C786    1.406   .     A
C784   O806    1.385   .     S
C784   C1272   1.392   1_545 S
C785   C862    1.398   .     S
C786   C943    1.398   1_455 S
C787   C789    1.434   .     A
C787   O811    1.391   .     S
C787   N794    1.376   .     A
C788   C790    1.434   .     A
C788   O816    1.391   .     S
C788   N793    1.376   .     A
C789   H791    1.079   .     S
C789   N793    1.362   .     A
C790   H792    1.079   .     S
C790   N794    1.362   .     A
N795   O797    1.301   .     A
N795   O796    1.301   .     A
N798   O800    1.301   .     A
N798   O799    1.301   .     A
O801   C802    1.410   .     S
C802   H805    1.110   .     S
C802   H804    1.114   .     S
C802   H803    1.109   .     S
O806   C807    1.410   .     S
C807   H809    1.109   .     S
C807   H810    1.110   .     S
C807   H808    1.114   .     S
O811   C812    1.410   .     S
C812   H814    1.108   .     S
C812   H815    1.109   .     S
C812   H813    1.111   .     S
O816   C817    1.410   .     S
C817   H819    1.111   .     S
C817   H818    1.108   .     S
C817   H820    1.109   .     S
O821   C825    1.292   .     A
O821   Cu833   1.964   .     S
O822   C826    1.292   .     A
O822   Cu834   1.964   .     S
O823   Cu834   1.964   .     S
O823   C907    1.295   .     S
O824   Cu833   1.964   .     S
C825   C868    1.450   .     S
C826   C867    1.450   .     S
C826   O906    1.295   .     S
O827   Cu833   1.961   .     S
O828   Cu834   1.961   .     S
O828   C914    1.298   .     S
O829   Cu834   1.950   .     S
O829   C831    1.297   .     A
O830   C832    1.297   .     A
O830   Cu833   1.950   .     S
C831   C835    1.466   .     S
C831   O909    1.298   .     S
C832   C836    1.466   .     S
Cu833  N875    2.019   .     S
Cu834  N876    2.019   .     S
Cu834  Cu915   2.687   .     S
C835   C839    1.395   .     A
C835   C841    1.395   .     A
C836   C840    1.395   .     A
C836   C842    1.395   .     A
C837   H857    1.081   .     S
C837   C845    1.410   .     A
C837   C839    1.390   .     A
C838   C846    1.410   .     A
C838   C840    1.390   .     A
C838   H858    1.081   .     S
C839   H938    1.083   .     S
C841   H854    1.074   .     S
C841   C843    1.407   .     A
C842   C844    1.407   .     A
C842   H853    1.074   .     S
C843   C847    1.427   .     A
C843   C845    1.423   .     A
C844   C846    1.423   .     A
C844   C848    1.427   .     A
C845   C113    1.405   1_556 S
C847   C850    1.416   .     A
C847   C110    1.418   1_556 S
C848   C849    1.416   .     A
C849   H859    1.076   .     S
C849   C851    1.394   .     A
C850   H860    1.076   .     S
C850   C852    1.394   .     A
C851   N877    1.439   .     S
C852   N880    1.439   .     S
C852   C108    1.405   1_556 S
H855   C922    1.083   .     S
C861   H863    1.079   .     S
C861   C1357   1.392   1_545 S
C861   C950    1.398   .     S
C862   H864    1.079   .     S
C862   C1112   1.392   .     S
C865   C867    1.406   .     A
C865   O883    1.385   .     S
C865   C1107   1.392   .     S
C866   C868    1.406   .     A
C866   O888    1.385   .     S
C866   C1354   1.392   1_545 S
C867   C944    1.398   .     S
C869   C871    1.434   .     A
C869   O893    1.391   .     S
C869   N876    1.376   .     A
C870   C872    1.434   .     A
C870   O898    1.391   .     S
C870   N875    1.376   .     A
C871   H873    1.079   .     S
C871   N875    1.362   .     A
C872   H874    1.079   .     S
C872   N876    1.362   .     A
N877   O879    1.301   .     A
N877   O878    1.301   .     A
N880   O882    1.301   .     A
N880   O881    1.301   .     A
O883   C884    1.410   .     S
C884   H887    1.110   .     S
C884   H886    1.114   .     S
C884   H885    1.109   .     S
O888   C889    1.410   .     S
C889   H891    1.109   .     S
C889   H892    1.110   .     S
C889   H890    1.114   .     S
O893   C894    1.410   .     S
C894   H896    1.108   .     S
C894   H897    1.109   .     S
C894   H895    1.111   .     S
O898   C899    1.410   .     S
C899   H901    1.111   .     S
C899   H900    1.108   .     S
C899   H902    1.109   .     S
O903   C907    1.292   .     A
O903   Cu915   1.964   .     S
O904   C908    1.292   .     A
O904   Cu916   1.964   .     S
O905   Cu916   1.964   .     S
O905   C743    1.295   1_655 S
O906   Cu915   1.964   .     S
C907   C950    1.450   .     S
C908   C949    1.450   .     S
C908   O742    1.295   1_655 S
O909   Cu915   1.961   .     S
O910   Cu916   1.961   .     S
O910   C750    1.298   1_655 S
O911   Cu916   1.950   .     S
O911   C913    1.297   .     A
O912   C914    1.297   .     A
O912   Cu915   1.950   .     S
C913   C917    1.466   .     S
C913   O745    1.298   1_655 S
C914   C918    1.466   .     S
Cu915  N957    2.019   .     S
Cu916  N958    2.019   .     S
Cu916  Cu751   2.687   1_655 S
C917   C921    1.395   .     A
C917   C923    1.395   .     A
C918   C922    1.395   .     A
C918   C924    1.395   .     A
C919   H939    1.081   .     S
C919   C927    1.410   .     A
C919   C921    1.390   .     A
C920   C928    1.410   .     A
C920   C922    1.390   .     A
C920   H940    1.081   .     S
C921   H774    1.083   1_655 S
C923   H936    1.074   .     S
C923   C925    1.407   .     A
C924   C926    1.407   .     A
C924   H935    1.074   .     S
C925   C929    1.427   .     A
C925   C927    1.423   .     A
C926   C928    1.423   .     A
C926   C930    1.427   .     A
C927   C195    1.405   1_556 S
C929   C932    1.416   .     A
C929   C192    1.418   1_556 S
C930   C931    1.416   .     A
C931   H941    1.076   .     S
C931   C933    1.394   .     A
C932   H942    1.076   .     S
C932   C934    1.394   .     A
C933   N959    1.439   .     S
C934   N962    1.439   .     S
C934   C190    1.405   1_556 S
H937   C758    1.083   1_655 S
C943   H945    1.079   .     S
C943   C1439   1.392   1_545 S
C943   C786    1.398   1_655 S
C944   H946    1.079   .     S
C944   C1194   1.392   .     S
C947   C949    1.406   .     A
C947   O965    1.385   .     S
C947   C1189   1.392   .     S
C948   C950    1.406   .     A
C948   O970    1.385   .     S
C948   C1436   1.392   1_545 S
C949   C780    1.398   1_655 S
C951   C953    1.434   .     A
C951   O975    1.391   .     S
C951   N958    1.376   .     A
C952   C954    1.434   .     A
C952   O980    1.391   .     S
C952   N957    1.376   .     A
C953   H955    1.079   .     S
C953   N957    1.362   .     A
C954   H956    1.079   .     S
C954   N958    1.362   .     A
N959   O961    1.301   .     A
N959   O960    1.301   .     A
N962   O964    1.301   .     A
N962   O963    1.301   .     A
O965   C966    1.410   .     S
C966   H969    1.110   .     S
C966   H968    1.114   .     S
C966   H967    1.109   .     S
O970   C971    1.410   .     S
C971   H973    1.109   .     S
C971   H974    1.110   .     S
C971   H972    1.114   .     S
O975   C976    1.410   .     S
C976   H978    1.108   .     S
C976   H979    1.109   .     S
C976   H977    1.111   .     S
O980   C981    1.410   .     S
C981   H983    1.111   .     S
C981   H982    1.108   .     S
C981   H984    1.109   .     S
O985   C989    1.292   .     A
O985   Cu997   1.964   .     S
O986   C990    1.292   .     A
O986   Cu998   1.964   .     S
O987   Cu998   1.964   .     S
O987   C1071   1.295   .     S
O988   Cu997   1.964   .     S
O988   C1154   1.295   1_455 S
C989   C1032   1.450   .     S
C989   O1151   1.295   1_455 S
C990   C1031   1.450   .     S
C990   O1070   1.295   .     S
O991   Cu997   1.961   .     S
O991   C1159   1.298   1_455 S
O992   Cu998   1.961   .     S
O992   C1078   1.298   .     S
O993   Cu998   1.950   .     S
O993   C995    1.297   .     A
O994   C996    1.297   .     A
O994   Cu997   1.950   .     S
C995   C999    1.466   .     S
C995   O1073   1.298   .     S
C996   C1000   1.466   .     S
C996   O1156   1.298   1_455 S
Cu997  N1039   2.019   .     S
Cu997  Cu1162  2.687   1_455 S
Cu998  N1040   2.019   .     S
Cu998  Cu1079  2.687   .     S
C999   C1003   1.395   .     A
C999   C1005   1.395   .     A
C1000  C1004   1.395   .     A
C1000  C1006   1.395   .     A
C1001  H1021   1.081   .     S
C1001  C1009   1.410   .     A
C1001  C1003   1.390   .     A
C1002  C1010   1.410   .     A
C1002  C1004   1.390   .     A
C1002  H1022   1.081   .     S
C1003  H1102   1.083   .     S
C1004  H1183   1.083   1_455 S
C1005  H1018   1.074   .     S
C1005  C1007   1.407   .     A
C1006  C1008   1.407   .     A
C1006  H1017   1.074   .     S
C1007  C1011   1.427   .     A
C1007  C1009   1.423   .     A
C1008  C1010   1.423   .     A
C1008  C1012   1.427   .     A
C1009  C277    1.405   1_556 S
C1011  C1014   1.416   .     A
C1011  C274    1.418   1_556 S
C1012  C1013   1.416   .     A
C1013  H1023   1.076   .     S
C1013  C1015   1.394   .     A
C1014  H1024   1.076   .     S
C1014  C1016   1.394   .     A
C1015  N1041   1.439   .     S
C1016  N1044   1.439   .     S
C1016  C272    1.405   1_556 S
H1019  C1086   1.083   .     S
H1020  C1167   1.083   1_455 S
C1025  H1027   1.079   .     S
C1025  C1114   1.398   .     S
C1026  H1028   1.079   .     S
C1026  C1276   1.392   .     S
C1026  C1195   1.398   1_455 S
C1029  C1031   1.406   .     A
C1029  O1047   1.385   .     S
C1029  C1271   1.392   .     S
C1030  C1032   1.406   .     A
C1030  O1052   1.385   .     S
C1031  C1108   1.398   .     S
C1032  C1189   1.398   1_455 S
C1033  C1035   1.434   .     A
C1033  O1057   1.391   .     S
C1033  N1040   1.376   .     A
C1034  C1036   1.434   .     A
C1034  O1062   1.391   .     S
C1034  N1039   1.376   .     A
C1035  H1037   1.079   .     S
C1035  N1039   1.362   .     A
C1036  H1038   1.079   .     S
C1036  N1040   1.362   .     A
N1041  O1043   1.301   .     A
N1041  O1042   1.301   .     A
N1044  O1046   1.301   .     A
N1044  O1045   1.301   .     A
O1047  C1048   1.410   .     S
C1048  H1051   1.110   .     S
C1048  H1050   1.114   .     S
C1048  H1049   1.109   .     S
O1052  C1053   1.410   .     S
C1053  H1055   1.109   .     S
C1053  H1056   1.110   .     S
C1053  H1054   1.114   .     S
O1057  C1058   1.410   .     S
C1058  H1060   1.108   .     S
C1058  H1061   1.109   .     S
C1058  H1059   1.111   .     S
O1062  C1063   1.410   .     S
C1063  H1065   1.111   .     S
C1063  H1064   1.108   .     S
C1063  H1066   1.109   .     S
O1067  C1071   1.292   .     A
O1067  Cu1079  1.964   .     S
O1068  C1072   1.292   .     A
O1068  Cu1080  1.964   .     S
O1069  Cu1080  1.964   .     S
O1069  C1153   1.295   .     S
O1070  Cu1079  1.964   .     S
C1071  C1114   1.450   .     S
C1072  C1113   1.450   .     S
C1072  O1152   1.295   .     S
O1073  Cu1079  1.961   .     S
O1074  Cu1080  1.961   .     S
O1074  C1160   1.298   .     S
O1075  Cu1080  1.950   .     S
O1075  C1077   1.297   .     A
O1076  C1078   1.297   .     A
O1076  Cu1079  1.950   .     S
C1077  C1081   1.466   .     S
C1077  O1155   1.298   .     S
C1078  C1082   1.466   .     S
Cu1079 N1121   2.019   .     S
Cu1080 N1122   2.019   .     S
Cu1080 Cu1161  2.687   .     S
C1081  C1085   1.395   .     A
C1081  C1087   1.395   .     A
C1082  C1086   1.395   .     A
C1082  C1088   1.395   .     A
C1083  H1103   1.081   .     S
C1083  C1091   1.410   .     A
C1083  C1085   1.390   .     A
C1084  C1092   1.410   .     A
C1084  C1086   1.390   .     A
C1084  H1104   1.081   .     S
C1085  H1184   1.083   .     S
C1087  H1100   1.074   .     S
C1087  C1089   1.407   .     A
C1088  C1090   1.407   .     A
C1088  H1099   1.074   .     S
C1089  C1093   1.427   .     A
C1089  C1091   1.423   .     A
C1090  C1092   1.423   .     A
C1090  C1094   1.427   .     A
C1091  C359    1.405   1_556 S
C1093  C1096   1.416   .     A
C1093  C356    1.418   1_556 S
C1094  C1095   1.416   .     A
C1095  H1105   1.076   .     S
C1095  C1097   1.394   .     A
C1096  H1106   1.076   .     S
C1096  C1098   1.394   .     A
C1097  N1123   1.439   .     S
C1098  N1126   1.439   .     S
C1098  C354    1.405   1_556 S
H1101  C1168   1.083   .     S
C1107  H1109   1.079   .     S
C1107  C1196   1.398   .     S
C1108  H1110   1.079   .     S
C1108  C1358   1.392   .     S
C1111  C1113   1.406   .     A
C1111  O1129   1.385   .     S
C1111  C1353   1.392   .     S
C1112  C1114   1.406   .     A
C1112  O1134   1.385   .     S
C1113  C1190   1.398   .     S
C1115  C1117   1.434   .     A
C1115  O1139   1.391   .     S
C1115  N1122   1.376   .     A
C1116  C1118   1.434   .     A
C1116  O1144   1.391   .     S
C1116  N1121   1.376   .     A
C1117  H1119   1.079   .     S
C1117  N1121   1.362   .     A
C1118  H1120   1.079   .     S
C1118  N1122   1.362   .     A
N1123  O1125   1.301   .     A
N1123  O1124   1.301   .     A
N1126  O1128   1.301   .     A
N1126  O1127   1.301   .     A
O1129  C1130   1.410   .     S
C1130  H1133   1.110   .     S
C1130  H1132   1.114   .     S
C1130  H1131   1.109   .     S
O1134  C1135   1.410   .     S
C1135  H1137   1.109   .     S
C1135  H1138   1.110   .     S
C1135  H1136   1.114   .     S
O1139  C1140   1.410   .     S
C1140  H1142   1.108   .     S
C1140  H1143   1.109   .     S
C1140  H1141   1.111   .     S
O1144  C1145   1.410   .     S
C1145  H1147   1.111   .     S
C1145  H1146   1.108   .     S
C1145  H1148   1.109   .     S
O1149  C1153   1.292   .     A
O1149  Cu1161  1.964   .     S
O1150  C1154   1.292   .     A
O1150  Cu1162  1.964   .     S
O1151  Cu1162  1.964   .     S
O1151  C989    1.295   1_655 S
O1152  Cu1161  1.964   .     S
C1153  C1196   1.450   .     S
C1154  C1195   1.450   .     S
C1154  O988    1.295   1_655 S
O1155  Cu1161  1.961   .     S
O1156  Cu1162  1.961   .     S
O1156  C996    1.298   1_655 S
O1157  Cu1162  1.950   .     S
O1157  C1159   1.297   .     A
O1158  C1160   1.297   .     A
O1158  Cu1161  1.950   .     S
C1159  C1163   1.466   .     S
C1159  O991    1.298   1_655 S
C1160  C1164   1.466   .     S
Cu1161 N1203   2.019   .     S
Cu1162 N1204   2.019   .     S
Cu1162 Cu997   2.687   1_655 S
C1163  C1167   1.395   .     A
C1163  C1169   1.395   .     A
C1164  C1168   1.395   .     A
C1164  C1170   1.395   .     A
C1165  H1185   1.081   .     S
C1165  C1173   1.410   .     A
C1165  C1167   1.390   .     A
C1166  C1174   1.410   .     A
C1166  C1168   1.390   .     A
C1166  H1186   1.081   .     S
C1167  H1020   1.083   1_655 S
C1169  H1182   1.074   .     S
C1169  C1171   1.407   .     A
C1170  C1172   1.407   .     A
C1170  H1181   1.074   .     S
C1171  C1175   1.427   .     A
C1171  C1173   1.423   .     A
C1172  C1174   1.423   .     A
C1172  C1176   1.427   .     A
C1173  C441    1.405   1_556 S
C1175  C1178   1.416   .     A
C1175  C438    1.418   1_556 S
C1176  C1177   1.416   .     A
C1177  H1187   1.076   .     S
C1177  C1179   1.394   .     A
C1178  H1188   1.076   .     S
C1178  C1180   1.394   .     A
C1179  N1205   1.439   .     S
C1180  N1208   1.439   .     S
C1180  C436    1.405   1_556 S
H1183  C1004   1.083   1_655 S
C1189  H1191   1.079   .     S
C1189  C1032   1.398   1_655 S
C1190  H1192   1.079   .     S
C1190  C1440   1.392   .     S
C1193  C1195   1.406   .     A
C1193  O1211   1.385   .     S
C1193  C1435   1.392   .     S
C1194  C1196   1.406   .     A
C1194  O1216   1.385   .     S
C1195  C1026   1.398   1_655 S
C1197  C1199   1.434   .     A
C1197  O1221   1.391   .     S
C1197  N1204   1.376   .     A
C1198  C1200   1.434   .     A
C1198  O1226   1.391   .     S
C1198  N1203   1.376   .     A
C1199  H1201   1.079   .     S
C1199  N1203   1.362   .     A
C1200  H1202   1.079   .     S
C1200  N1204   1.362   .     A
N1205  O1207   1.301   .     A
N1205  O1206   1.301   .     A
N1208  O1210   1.301   .     A
N1208  O1209   1.301   .     A
O1211  C1212   1.410   .     S
C1212  H1215   1.110   .     S
C1212  H1214   1.114   .     S
C1212  H1213   1.109   .     S
O1216  C1217   1.410   .     S
C1217  H1219   1.109   .     S
C1217  H1220   1.110   .     S
C1217  H1218   1.114   .     S
O1221  C1222   1.410   .     S
C1222  H1224   1.108   .     S
C1222  H1225   1.109   .     S
C1222  H1223   1.111   .     S
O1226  C1227   1.410   .     S
C1227  H1229   1.111   .     S
C1227  H1228   1.108   .     S
C1227  H1230   1.109   .     S
O1231  C1235   1.292   .     A
O1231  Cu1243  1.964   .     S
O1232  C1236   1.292   .     A
O1232  Cu1244  1.964   .     S
O1233  Cu1244  1.964   .     S
O1233  C1317   1.295   .     S
O1234  Cu1243  1.964   .     S
O1234  C1400   1.295   1_455 S
C1235  C1278   1.450   .     S
C1235  O1397   1.295   1_455 S
C1236  C1277   1.450   .     S
C1236  O1316   1.295   .     S
O1237  Cu1243  1.961   .     S
O1237  C1405   1.298   1_455 S
O1238  Cu1244  1.961   .     S
O1238  C1324   1.298   .     S
O1239  Cu1244  1.950   .     S
O1239  C1241   1.297   .     A
O1240  C1242   1.297   .     A
O1240  Cu1243  1.950   .     S
C1241  C1245   1.466   .     S
C1241  O1319   1.298   .     S
C1242  C1246   1.466   .     S
C1242  O1402   1.298   1_455 S
Cu1243 N1285   2.019   .     S
Cu1243 Cu1408  2.687   1_455 S
Cu1244 N1286   2.019   .     S
Cu1244 Cu1325  2.687   .     S
C1245  C1249   1.395   .     A
C1245  C1251   1.395   .     A
C1246  C1250   1.395   .     A
C1246  C1252   1.395   .     A
C1247  H1267   1.081   .     S
C1247  C1255   1.410   .     A
C1247  C1249   1.390   .     A
C1248  C1256   1.410   .     A
C1248  C1250   1.390   .     A
C1248  H1268   1.081   .     S
C1249  H1348   1.083   .     S
C1250  H1429   1.083   1_455 S
C1251  H1264   1.074   .     S
C1251  C1253   1.407   .     A
C1252  C1254   1.407   .     A
C1252  H1263   1.074   .     S
C1253  C1257   1.427   .     A
C1253  C1255   1.423   .     A
C1254  C1256   1.423   .     A
C1254  C1258   1.427   .     A
C1255  C523    1.405   1_556 S
C1257  C1260   1.416   .     A
C1257  C520    1.418   1_556 S
C1258  C1259   1.416   .     A
C1259  H1269   1.076   .     S
C1259  C1261   1.394   .     A
C1260  H1270   1.076   .     S
C1260  C1262   1.394   .     A
C1261  N1287   1.439   .     S
C1262  N1290   1.439   .     S
C1262  C518    1.405   1_556 S
H1265  C1332   1.083   .     S
H1266  C1413   1.083   1_455 S
C1271  H1273   1.079   .     S
C1271  C1360   1.398   .     S
C1272  H1274   1.079   .     S
C1272  C784    1.392   1_565 S
C1272  C1441   1.398   1_455 S
C1275  C1277   1.406   .     A
C1275  O1293   1.385   .     S
C1275  C779    1.392   1_565 S
C1276  C1278   1.406   .     A
C1276  O1298   1.385   .     S
C1277  C1354   1.398   .     S
C1278  C1435   1.398   1_455 S
C1279  C1281   1.434   .     A
C1279  O1303   1.391   .     S
C1279  N1286   1.376   .     A
C1280  C1282   1.434   .     A
C1280  O1308   1.391   .     S
C1280  N1285   1.376   .     A
C1281  H1283   1.079   .     S
C1281  N1285   1.362   .     A
C1282  H1284   1.079   .     S
C1282  N1286   1.362   .     A
N1287  O1289   1.301   .     A
N1287  O1288   1.301   .     A
N1290  O1292   1.301   .     A
N1290  O1291   1.301   .     A
O1293  C1294   1.410   .     S
C1294  H1297   1.110   .     S
C1294  H1296   1.114   .     S
C1294  H1295   1.109   .     S
O1298  C1299   1.410   .     S
C1299  H1301   1.109   .     S
C1299  H1302   1.110   .     S
C1299  H1300   1.114   .     S
O1303  C1304   1.410   .     S
C1304  H1306   1.108   .     S
C1304  H1307   1.109   .     S
C1304  H1305   1.111   .     S
O1308  C1309   1.410   .     S
C1309  H1311   1.111   .     S
C1309  H1310   1.108   .     S
C1309  H1312   1.109   .     S
O1313  C1317   1.292   .     A
O1313  Cu1325  1.964   .     S
O1314  C1318   1.292   .     A
O1314  Cu1326  1.964   .     S
O1315  Cu1326  1.964   .     S
O1315  C1399   1.295   .     S
O1316  Cu1325  1.964   .     S
C1317  C1360   1.450   .     S
C1318  C1359   1.450   .     S
C1318  O1398   1.295   .     S
O1319  Cu1325  1.961   .     S
O1320  Cu1326  1.961   .     S
O1320  C1406   1.298   .     S
O1321  Cu1326  1.950   .     S
O1321  C1323   1.297   .     A
O1322  C1324   1.297   .     A
O1322  Cu1325  1.950   .     S
C1323  C1327   1.466   .     S
C1323  O1401   1.298   .     S
C1324  C1328   1.466   .     S
Cu1325 N1367   2.019   .     S
Cu1326 N1368   2.019   .     S
Cu1326 Cu1407  2.687   .     S
C1327  C1331   1.395   .     A
C1327  C1333   1.395   .     A
C1328  C1332   1.395   .     A
C1328  C1334   1.395   .     A
C1329  H1349   1.081   .     S
C1329  C1337   1.410   .     A
C1329  C1331   1.390   .     A
C1330  C1338   1.410   .     A
C1330  C1332   1.390   .     A
C1330  H1350   1.081   .     S
C1331  H1430   1.083   .     S
C1333  H1346   1.074   .     S
C1333  C1335   1.407   .     A
C1334  C1336   1.407   .     A
C1334  H1345   1.074   .     S
C1335  C1339   1.427   .     A
C1335  C1337   1.423   .     A
C1336  C1338   1.423   .     A
C1336  C1340   1.427   .     A
C1337  C605    1.405   1_556 S
C1339  C1342   1.416   .     A
C1339  C602    1.418   1_556 S
C1340  C1341   1.416   .     A
C1341  H1351   1.076   .     S
C1341  C1343   1.394   .     A
C1342  H1352   1.076   .     S
C1342  C1344   1.394   .     A
C1343  N1369   1.439   .     S
C1344  N1372   1.439   .     S
C1344  C600    1.405   1_556 S
H1347  C1414   1.083   .     S
C1353  H1355   1.079   .     S
C1353  C1442   1.398   .     S
C1354  H1356   1.079   .     S
C1354  C866    1.392   1_565 S
C1357  C1359   1.406   .     A
C1357  O1375   1.385   .     S
C1357  C861    1.392   1_565 S
C1358  C1360   1.406   .     A
C1358  O1380   1.385   .     S
C1359  C1436   1.398   .     S
C1361  C1363   1.434   .     A
C1361  O1385   1.391   .     S
C1361  N1368   1.376   .     A
C1362  C1364   1.434   .     A
C1362  O1390   1.391   .     S
C1362  N1367   1.376   .     A
C1363  H1365   1.079   .     S
C1363  N1367   1.362   .     A
C1364  H1366   1.079   .     S
C1364  N1368   1.362   .     A
N1369  O1371   1.301   .     A
N1369  O1370   1.301   .     A
N1372  O1374   1.301   .     A
N1372  O1373   1.301   .     A
O1375  C1376   1.410   .     S
C1376  H1379   1.110   .     S
C1376  H1378   1.114   .     S
C1376  H1377   1.109   .     S
O1380  C1381   1.410   .     S
C1381  H1383   1.109   .     S
C1381  H1384   1.110   .     S
C1381  H1382   1.114   .     S
O1385  C1386   1.410   .     S
C1386  H1388   1.108   .     S
C1386  H1389   1.109   .     S
C1386  H1387   1.111   .     S
O1390  C1391   1.410   .     S
C1391  H1393   1.111   .     S
C1391  H1392   1.108   .     S
C1391  H1394   1.109   .     S
O1395  C1399   1.292   .     A
O1395  Cu1407  1.964   .     S
O1396  C1400   1.292   .     A
O1396  Cu1408  1.964   .     S
O1397  Cu1408  1.964   .     S
O1397  C1235   1.295   1_655 S
O1398  Cu1407  1.964   .     S
C1399  C1442   1.450   .     S
C1400  C1441   1.450   .     S
C1400  O1234   1.295   1_655 S
O1401  Cu1407  1.961   .     S
O1402  Cu1408  1.961   .     S
O1402  C1242   1.298   1_655 S
O1403  Cu1408  1.950   .     S
O1403  C1405   1.297   .     A
O1404  C1406   1.297   .     A
O1404  Cu1407  1.950   .     S
C1405  C1409   1.466   .     S
C1405  O1237   1.298   1_655 S
C1406  C1410   1.466   .     S
Cu1407 N1449   2.019   .     S
Cu1408 N1450   2.019   .     S
Cu1408 Cu1243  2.687   1_655 S
C1409  C1413   1.395   .     A
C1409  C1415   1.395   .     A
C1410  C1414   1.395   .     A
C1410  C1416   1.395   .     A
C1411  H1431   1.081   .     S
C1411  C1419   1.410   .     A
C1411  C1413   1.390   .     A
C1412  C1420   1.410   .     A
C1412  C1414   1.390   .     A
C1412  H1432   1.081   .     S
C1413  H1266   1.083   1_655 S
C1415  H1428   1.074   .     S
C1415  C1417   1.407   .     A
C1416  C1418   1.407   .     A
C1416  H1427   1.074   .     S
C1417  C1421   1.427   .     A
C1417  C1419   1.423   .     A
C1418  C1420   1.423   .     A
C1418  C1422   1.427   .     A
C1419  C687    1.405   1_556 S
C1421  C1424   1.416   .     A
C1421  C684    1.418   1_556 S
C1422  C1423   1.416   .     A
C1423  H1433   1.076   .     S
C1423  C1425   1.394   .     A
C1424  H1434   1.076   .     S
C1424  C1426   1.394   .     A
C1425  N1451   1.439   .     S
C1426  N1454   1.439   .     S
C1426  C682    1.405   1_556 S
H1429  C1250   1.083   1_655 S
C1435  H1437   1.079   .     S
C1435  C1278   1.398   1_655 S
C1436  H1438   1.079   .     S
C1436  C948    1.392   1_565 S
C1439  C1441   1.406   .     A
C1439  O1457   1.385   .     S
C1439  C943    1.392   1_565 S
C1440  C1442   1.406   .     A
C1440  O1462   1.385   .     S
C1441  C1272   1.398   1_655 S
C1443  C1445   1.434   .     A
C1443  O1467   1.391   .     S
C1443  N1450   1.376   .     A
C1444  C1446   1.434   .     A
C1444  O1472   1.391   .     S
C1444  N1449   1.376   .     A
C1445  H1447   1.079   .     S
C1445  N1449   1.362   .     A
C1446  H1448   1.079   .     S
C1446  N1450   1.362   .     A
N1451  O1453   1.301   .     A
N1451  O1452   1.301   .     A
N1454  O1456   1.301   .     A
N1454  O1455   1.301   .     A
O1457  C1458   1.410   .     S
C1458  H1461   1.110   .     S
C1458  H1460   1.114   .     S
C1458  H1459   1.109   .     S
O1462  C1463   1.410   .     S
C1463  H1465   1.109   .     S
C1463  H1466   1.110   .     S
C1463  H1464   1.114   .     S
O1467  C1468   1.410   .     S
C1468  H1470   1.108   .     S
C1468  H1471   1.109   .     S
C1468  H1469   1.111   .     S
O1472  C1473   1.410   .     S
C1473  H1475   1.111   .     S
C1473  H1474   1.108   .     S
C1473  H1476   1.109   .     S
