data_str_m2_o1_o18_pcu_sym.112
_audit_creation_date              2020-01-03
_audit_creation_method            'Materials Studio'
_symmetry_space_group_name_H-M    'P1'
_symmetry_Int_Tables_number       1
_symmetry_cell_setting            triclinic
loop_
_symmetry_equiv_pos_as_xyz
  x,y,z
_cell_length_a                    28.7981
_cell_length_b                    32.1903
_cell_length_c                    31.2501
_cell_angle_alpha                 88.2432
_cell_angle_beta                  73.7515
_cell_angle_gamma                 90.2148
loop_
_atom_site_label
_atom_site_type_symbol
_atom_site_fract_x
_atom_site_fract_y
_atom_site_fract_z
_atom_site_U_iso_or_equiv
_atom_site_adp_type
_atom_site_occupancy
C1     C     0.33321   0.08756   0.25015   0.00000  Uiso   1.00
C2     C     0.00012   0.24578   0.24985   0.00000  Uiso   1.00
C3     C     0.18796   0.20192   0.03721   0.00000  Uiso   1.00
C4     C     0.14537   0.13141   0.46279   0.00000  Uiso   1.00
C5     C     0.23822   0.20155   0.01817   0.00000  Uiso   1.00
C6     C     0.09512   0.13178   0.48183   0.00000  Uiso   1.00
C7     C     0.31791   0.02004   0.29087   0.00000  Uiso   1.00
C8     C     0.01542   0.31330   0.20913   0.00000  Uiso   1.00
C9     C     0.31818   0.31021   0.29033   0.00000  Uiso   1.00
C10    C     0.01515   0.02312   0.20967   0.00000  Uiso   1.00
C11    C     0.00028   0.29040   0.24964   0.00000  Uiso   1.00
C12    C     0.33306   0.04293   0.25036   0.00000  Uiso   1.00
C13    C     0.18282   0.13973   0.27746   0.00000  Uiso   1.00
C14    C     0.15051   0.19360   0.22254   0.00000  Uiso   1.00
C15    C     0.13335   0.14004   0.27779   0.00000  Uiso   1.00
C16    C     0.19998   0.19329   0.22221   0.00000  Uiso   1.00
C17    C     0.30575   0.16695   0.33596   0.00000  Uiso   1.00
C18    C     0.02758   0.16638   0.16404   0.00000  Uiso   1.00
C19    C     0.28992   0.16889   0.38495   0.00000  Uiso   1.00
C20    C     0.04342   0.16445   0.11505   0.00000  Uiso   1.00
C21    C     0.30678   0.18633   0.45392   0.00000  Uiso   1.00
C22    C     0.02655   0.14701   0.04608   0.00000  Uiso   1.00
C23    C     0.32317   0.17749   0.40882   0.00000  Uiso   1.00
C24    C     0.01016   0.15584   0.09118   0.00000  Uiso   1.00
C25    C     0.24054   0.16481   0.40796   0.00000  Uiso   1.00
C26    C     0.09279   0.16853   0.09204   0.00000  Uiso   1.00
C27    C     0.22472   0.16689   0.45459   0.00000  Uiso   1.00
C28    C     0.10861   0.16644   0.04541   0.00000  Uiso   1.00
C29    C     0.25709   0.18362   0.47653   0.00000  Uiso   1.00
C30    C     0.07624   0.14972   0.02347   0.00000  Uiso   1.00
C31    C     0.17596   0.15789   0.47887   0.00000  Uiso   1.00
C32    C     0.15737   0.17544   0.02113   0.00000  Uiso   1.00
Cu33   Cu    0.04689   0.16667   0.25000   0.00000  Uiso   1.00
Cu34   Cu    0.28645   0.16666   0.25000   0.00000  Uiso   1.00
H35    H     0.30523   0.15264   0.10802   0.00000  Uiso   1.00
H36    H     0.02811   0.18070   0.39198   0.00000  Uiso   1.00
H37    H     0.33306   0.19682   0.47021   0.00000  Uiso   1.00
H38    H     0.00028   0.13651   0.02979   0.00000  Uiso   1.00
N39    N     0.11736   0.16668   0.24999   0.00000  Uiso   1.00
N40    N     0.21597   0.16666   0.25001   0.00000  Uiso   1.00
O41    O     0.03958   0.10655   0.25000   0.00000  Uiso   1.00
O42    O     0.29375   0.22678   0.25000   0.00000  Uiso   1.00
O43    O     0.29372   0.10654   0.25001   0.00000  Uiso   1.00
O44    O     0.03961   0.22679   0.25000   0.00000  Uiso   1.00
O45    O     0.01852   0.16668   0.31492   0.00000  Uiso   1.00
O46    O     0.31481   0.16666   0.18509   0.00000  Uiso   1.00
O47    O     0.27267   0.16667   0.31492   0.00000  Uiso   1.00
O48    O     0.06067   0.16667   0.18508   0.00000  Uiso   1.00
Cl49   Cl    0.27602   0.22922   0.04369   0.00000  Uiso   1.00
Cl50   Cl    0.05732   0.10411   0.45631   0.00000  Uiso   1.00
F51    F     0.12633   0.16849   0.11518   0.00000  Uiso   1.00
F52    F     0.20701   0.16484   0.38482   0.00000  Uiso   1.00
Cl53   Cl    0.16388   0.24274   0.07338   0.00000  Uiso   1.00
Cl54   Cl    0.16945   0.09060   0.42662   0.00000  Uiso   1.00
Cl55   Cl    0.29906   0.04476   0.34239   0.00000  Uiso   1.00
Cl56   Cl    0.03427   0.28857   0.15761   0.00000  Uiso   1.00
F57    F     0.30365   0.28750   0.32926   0.00000  Uiso   1.00
F58    F     0.02968   0.04583   0.17074   0.00000  Uiso   1.00
Cl59   Cl    0.20106   0.10311   0.31227   0.00000  Uiso   1.00
Cl60   Cl    0.13228   0.23022   0.18773   0.00000  Uiso   1.00
Cl61   Cl    0.09249   0.10586   0.31530   0.00000  Uiso   1.00
Cl62   Cl    0.24085   0.22747   0.18470   0.00000  Uiso   1.00
C63    C     0.66655   0.08756   0.25015   0.00000  Uiso   1.00
C64    C     0.33345   0.24578   0.24985   0.00000  Uiso   1.00
C65    C     0.52129   0.20192   0.03721   0.00000  Uiso   1.00
C66    C     0.47871   0.13141   0.46279   0.00000  Uiso   1.00
C67    C     0.57155   0.20155   0.01817   0.00000  Uiso   1.00
C68    C     0.42845   0.13178   0.48183   0.00000  Uiso   1.00
C69    C     0.65125   0.02004   0.29087   0.00000  Uiso   1.00
C70    C     0.34876   0.31330   0.20913   0.00000  Uiso   1.00
C71    C     0.65152   0.31021   0.29033   0.00000  Uiso   1.00
C72    C     0.34848   0.02312   0.20967   0.00000  Uiso   1.00
C73    C     0.33361   0.29040   0.24964   0.00000  Uiso   1.00
C74    C     0.66639   0.04293   0.25036   0.00000  Uiso   1.00
C75    C     0.51615   0.13973   0.27746   0.00000  Uiso   1.00
C76    C     0.48385   0.19360   0.22254   0.00000  Uiso   1.00
C77    C     0.46669   0.14004   0.27779   0.00000  Uiso   1.00
C78    C     0.53331   0.19329   0.22221   0.00000  Uiso   1.00
C79    C     0.63908   0.16695   0.33596   0.00000  Uiso   1.00
C80    C     0.36092   0.16638   0.16404   0.00000  Uiso   1.00
C81    C     0.62325   0.16889   0.38495   0.00000  Uiso   1.00
C82    C     0.37675   0.16445   0.11505   0.00000  Uiso   1.00
C83    C     0.64011   0.18633   0.45392   0.00000  Uiso   1.00
C84    C     0.35989   0.14701   0.04608   0.00000  Uiso   1.00
C85    C     0.65651   0.17749   0.40882   0.00000  Uiso   1.00
C86    C     0.34349   0.15584   0.09118   0.00000  Uiso   1.00
C87    C     0.57388   0.16481   0.40796   0.00000  Uiso   1.00
C88    C     0.42612   0.16853   0.09204   0.00000  Uiso   1.00
C89    C     0.55806   0.16689   0.45459   0.00000  Uiso   1.00
C90    C     0.44194   0.16644   0.04541   0.00000  Uiso   1.00
C91    C     0.59042   0.18362   0.47653   0.00000  Uiso   1.00
C92    C     0.40958   0.14972   0.02347   0.00000  Uiso   1.00
C93    C     0.50929   0.15789   0.47887   0.00000  Uiso   1.00
C94    C     0.49071   0.17544   0.02113   0.00000  Uiso   1.00
Cu95   Cu    0.38022   0.16667   0.25000   0.00000  Uiso   1.00
Cu96   Cu    0.61978   0.16666   0.25000   0.00000  Uiso   1.00
H97    H     0.63856   0.15264   0.10802   0.00000  Uiso   1.00
H98    H     0.36144   0.18070   0.39198   0.00000  Uiso   1.00
H99    H     0.66639   0.19682   0.47021   0.00000  Uiso   1.00
H100   H     0.33361   0.13651   0.02979   0.00000  Uiso   1.00
N101   N     0.45069   0.16668   0.24999   0.00000  Uiso   1.00
N102   N     0.54931   0.16666   0.25001   0.00000  Uiso   1.00
O103   O     0.37291   0.10655   0.25000   0.00000  Uiso   1.00
O104   O     0.62709   0.22678   0.25000   0.00000  Uiso   1.00
O105   O     0.62706   0.10654   0.25001   0.00000  Uiso   1.00
O106   O     0.37294   0.22679   0.25000   0.00000  Uiso   1.00
O107   O     0.35186   0.16668   0.31492   0.00000  Uiso   1.00
O108   O     0.64814   0.16666   0.18509   0.00000  Uiso   1.00
O109   O     0.60600   0.16667   0.31492   0.00000  Uiso   1.00
O110   O     0.39400   0.16667   0.18508   0.00000  Uiso   1.00
Cl111  Cl    0.60935   0.22922   0.04369   0.00000  Uiso   1.00
Cl112  Cl    0.39065   0.10411   0.45631   0.00000  Uiso   1.00
F113   F     0.45966   0.16849   0.11518   0.00000  Uiso   1.00
F114   F     0.54034   0.16484   0.38482   0.00000  Uiso   1.00
Cl115  Cl    0.49721   0.24274   0.07338   0.00000  Uiso   1.00
Cl116  Cl    0.50279   0.09060   0.42662   0.00000  Uiso   1.00
Cl117  Cl    0.63239   0.04476   0.34239   0.00000  Uiso   1.00
Cl118  Cl    0.36761   0.28857   0.15761   0.00000  Uiso   1.00
F119   F     0.63699   0.28750   0.32926   0.00000  Uiso   1.00
F120   F     0.36301   0.04583   0.17074   0.00000  Uiso   1.00
Cl121  Cl    0.53439   0.10311   0.31227   0.00000  Uiso   1.00
Cl122  Cl    0.46561   0.23022   0.18773   0.00000  Uiso   1.00
Cl123  Cl    0.42582   0.10586   0.31530   0.00000  Uiso   1.00
Cl124  Cl    0.57418   0.22747   0.18470   0.00000  Uiso   1.00
C125   C     0.99988   0.08756   0.25015   0.00000  Uiso   1.00
C126   C     0.66679   0.24578   0.24985   0.00000  Uiso   1.00
C127   C     0.85463   0.20192   0.03721   0.00000  Uiso   1.00
C128   C     0.81204   0.13141   0.46279   0.00000  Uiso   1.00
C129   C     0.90488   0.20155   0.01817   0.00000  Uiso   1.00
C130   C     0.76178   0.13178   0.48183   0.00000  Uiso   1.00
C131   C     0.98458   0.02004   0.29087   0.00000  Uiso   1.00
C132   C     0.68209   0.31330   0.20913   0.00000  Uiso   1.00
C133   C     0.98485   0.31021   0.29033   0.00000  Uiso   1.00
C134   C     0.68182   0.02312   0.20967   0.00000  Uiso   1.00
C135   C     0.66694   0.29040   0.24964   0.00000  Uiso   1.00
C136   C     0.99972   0.04293   0.25036   0.00000  Uiso   1.00
C137   C     0.84949   0.13973   0.27746   0.00000  Uiso   1.00
C138   C     0.81718   0.19360   0.22254   0.00000  Uiso   1.00
C139   C     0.80002   0.14004   0.27779   0.00000  Uiso   1.00
C140   C     0.86665   0.19329   0.22221   0.00000  Uiso   1.00
C141   C     0.97242   0.16695   0.33596   0.00000  Uiso   1.00
C142   C     0.69425   0.16638   0.16404   0.00000  Uiso   1.00
C143   C     0.95658   0.16889   0.38495   0.00000  Uiso   1.00
C144   C     0.71008   0.16445   0.11505   0.00000  Uiso   1.00
C145   C     0.97345   0.18633   0.45392   0.00000  Uiso   1.00
C146   C     0.69322   0.14701   0.04608   0.00000  Uiso   1.00
C147   C     0.98984   0.17749   0.40882   0.00000  Uiso   1.00
C148   C     0.67683   0.15584   0.09118   0.00000  Uiso   1.00
C149   C     0.90721   0.16481   0.40796   0.00000  Uiso   1.00
C150   C     0.75946   0.16853   0.09204   0.00000  Uiso   1.00
C151   C     0.89139   0.16689   0.45459   0.00000  Uiso   1.00
C152   C     0.77528   0.16644   0.04541   0.00000  Uiso   1.00
C153   C     0.92376   0.18362   0.47653   0.00000  Uiso   1.00
C154   C     0.74291   0.14972   0.02347   0.00000  Uiso   1.00
C155   C     0.84263   0.15789   0.47887   0.00000  Uiso   1.00
C156   C     0.82404   0.17544   0.02113   0.00000  Uiso   1.00
Cu157  Cu    0.71355   0.16667   0.25000   0.00000  Uiso   1.00
Cu158  Cu    0.95311   0.16666   0.25000   0.00000  Uiso   1.00
H159   H     0.97189   0.15264   0.10802   0.00000  Uiso   1.00
H160   H     0.69477   0.18070   0.39198   0.00000  Uiso   1.00
H161   H     0.99972   0.19682   0.47021   0.00000  Uiso   1.00
H162   H     0.66694   0.13651   0.02979   0.00000  Uiso   1.00
N163   N     0.78403   0.16668   0.24999   0.00000  Uiso   1.00
N164   N     0.88264   0.16666   0.25001   0.00000  Uiso   1.00
O165   O     0.70625   0.10655   0.25000   0.00000  Uiso   1.00
O166   O     0.96042   0.22678   0.25000   0.00000  Uiso   1.00
O167   O     0.96039   0.10654   0.25001   0.00000  Uiso   1.00
O168   O     0.70628   0.22679   0.25000   0.00000  Uiso   1.00
O169   O     0.68519   0.16668   0.31492   0.00000  Uiso   1.00
O170   O     0.98148   0.16666   0.18509   0.00000  Uiso   1.00
O171   O     0.93933   0.16667   0.31492   0.00000  Uiso   1.00
O172   O     0.72733   0.16667   0.18508   0.00000  Uiso   1.00
Cl173  Cl    0.94268   0.22922   0.04369   0.00000  Uiso   1.00
Cl174  Cl    0.72398   0.10411   0.45631   0.00000  Uiso   1.00
F175   F     0.79299   0.16849   0.11518   0.00000  Uiso   1.00
F176   F     0.87367   0.16484   0.38482   0.00000  Uiso   1.00
Cl177  Cl    0.83055   0.24274   0.07338   0.00000  Uiso   1.00
Cl178  Cl    0.83612   0.09060   0.42662   0.00000  Uiso   1.00
Cl179  Cl    0.96573   0.04476   0.34239   0.00000  Uiso   1.00
Cl180  Cl    0.70094   0.28857   0.15761   0.00000  Uiso   1.00
F181   F     0.97032   0.28750   0.32926   0.00000  Uiso   1.00
F182   F     0.69635   0.04583   0.17074   0.00000  Uiso   1.00
Cl183  Cl    0.86772   0.10311   0.31227   0.00000  Uiso   1.00
Cl184  Cl    0.79894   0.23022   0.18773   0.00000  Uiso   1.00
Cl185  Cl    0.75915   0.10586   0.31530   0.00000  Uiso   1.00
Cl186  Cl    0.90751   0.22747   0.18470   0.00000  Uiso   1.00
C187   C     0.33321   0.42089   0.25015   0.00000  Uiso   1.00
C188   C     0.00012   0.57911   0.24985   0.00000  Uiso   1.00
C189   C     0.18796   0.53525   0.03721   0.00000  Uiso   1.00
C190   C     0.14537   0.46475   0.46279   0.00000  Uiso   1.00
C191   C     0.23822   0.53489   0.01817   0.00000  Uiso   1.00
C192   C     0.09512   0.46511   0.48183   0.00000  Uiso   1.00
C193   C     0.31791   0.35337   0.29087   0.00000  Uiso   1.00
C194   C     0.01542   0.64663   0.20913   0.00000  Uiso   1.00
C195   C     0.31818   0.64354   0.29033   0.00000  Uiso   1.00
C196   C     0.01515   0.35646   0.20967   0.00000  Uiso   1.00
C197   C     0.00028   0.62373   0.24964   0.00000  Uiso   1.00
C198   C     0.33306   0.37627   0.25036   0.00000  Uiso   1.00
C199   C     0.18282   0.47307   0.27746   0.00000  Uiso   1.00
C200   C     0.15051   0.52693   0.22254   0.00000  Uiso   1.00
C201   C     0.13335   0.47337   0.27779   0.00000  Uiso   1.00
C202   C     0.19998   0.52663   0.22221   0.00000  Uiso   1.00
C203   C     0.30575   0.50029   0.33596   0.00000  Uiso   1.00
C204   C     0.02758   0.49971   0.16404   0.00000  Uiso   1.00
C205   C     0.28992   0.50222   0.38495   0.00000  Uiso   1.00
C206   C     0.04342   0.49778   0.11505   0.00000  Uiso   1.00
C207   C     0.30678   0.51966   0.45392   0.00000  Uiso   1.00
C208   C     0.02655   0.48034   0.04608   0.00000  Uiso   1.00
C209   C     0.32317   0.51083   0.40882   0.00000  Uiso   1.00
C210   C     0.01016   0.48917   0.09118   0.00000  Uiso   1.00
C211   C     0.24054   0.49814   0.40796   0.00000  Uiso   1.00
C212   C     0.09279   0.50186   0.09204   0.00000  Uiso   1.00
C213   C     0.22472   0.50023   0.45459   0.00000  Uiso   1.00
C214   C     0.10861   0.49977   0.04541   0.00000  Uiso   1.00
C215   C     0.25709   0.51695   0.47653   0.00000  Uiso   1.00
C216   C     0.07624   0.48305   0.02347   0.00000  Uiso   1.00
C217   C     0.17596   0.49123   0.47887   0.00000  Uiso   1.00
C218   C     0.15737   0.50877   0.02113   0.00000  Uiso   1.00
Cu219  Cu    0.04689   0.50001   0.25000   0.00000  Uiso   1.00
Cu220  Cu    0.28645   0.49999   0.25000   0.00000  Uiso   1.00
H221   H     0.30523   0.48597   0.10802   0.00000  Uiso   1.00
H222   H     0.02811   0.51403   0.39198   0.00000  Uiso   1.00
H223   H     0.33306   0.53015   0.47021   0.00000  Uiso   1.00
H224   H     0.00028   0.46985   0.02979   0.00000  Uiso   1.00
N225   N     0.11736   0.50001   0.24999   0.00000  Uiso   1.00
N226   N     0.21597   0.49999   0.25001   0.00000  Uiso   1.00
O227   O     0.03958   0.43989   0.25000   0.00000  Uiso   1.00
O228   O     0.29375   0.56011   0.25000   0.00000  Uiso   1.00
O229   O     0.29372   0.43988   0.25001   0.00000  Uiso   1.00
O230   O     0.03961   0.56012   0.25000   0.00000  Uiso   1.00
O231   O     0.01852   0.50001   0.31492   0.00000  Uiso   1.00
O232   O     0.31481   0.49999   0.18509   0.00000  Uiso   1.00
O233   O     0.27267   0.50000   0.31492   0.00000  Uiso   1.00
O234   O     0.06067   0.50000   0.18508   0.00000  Uiso   1.00
Cl235  Cl    0.27602   0.56255   0.04369   0.00000  Uiso   1.00
Cl236  Cl    0.05732   0.43745   0.45631   0.00000  Uiso   1.00
F237   F     0.12633   0.50182   0.11518   0.00000  Uiso   1.00
F238   F     0.20701   0.49818   0.38482   0.00000  Uiso   1.00
Cl239  Cl    0.16388   0.57607   0.07338   0.00000  Uiso   1.00
Cl240  Cl    0.16945   0.42393   0.42662   0.00000  Uiso   1.00
Cl241  Cl    0.29906   0.37810   0.34239   0.00000  Uiso   1.00
Cl242  Cl    0.03427   0.62190   0.15761   0.00000  Uiso   1.00
F243   F     0.30365   0.62084   0.32926   0.00000  Uiso   1.00
F244   F     0.02968   0.37916   0.17074   0.00000  Uiso   1.00
Cl245  Cl    0.20106   0.43645   0.31227   0.00000  Uiso   1.00
Cl246  Cl    0.13228   0.56355   0.18773   0.00000  Uiso   1.00
Cl247  Cl    0.09249   0.43919   0.31530   0.00000  Uiso   1.00
Cl248  Cl    0.24085   0.56081   0.18470   0.00000  Uiso   1.00
C249   C     0.66655   0.42089   0.25015   0.00000  Uiso   1.00
C250   C     0.33345   0.57911   0.24985   0.00000  Uiso   1.00
C251   C     0.52129   0.53525   0.03721   0.00000  Uiso   1.00
C252   C     0.47871   0.46475   0.46279   0.00000  Uiso   1.00
C253   C     0.57155   0.53489   0.01817   0.00000  Uiso   1.00
C254   C     0.42845   0.46511   0.48183   0.00000  Uiso   1.00
C255   C     0.65125   0.35337   0.29087   0.00000  Uiso   1.00
C256   C     0.34876   0.64663   0.20913   0.00000  Uiso   1.00
C257   C     0.65152   0.64354   0.29033   0.00000  Uiso   1.00
C258   C     0.34848   0.35646   0.20967   0.00000  Uiso   1.00
C259   C     0.33361   0.62373   0.24964   0.00000  Uiso   1.00
C260   C     0.66639   0.37627   0.25036   0.00000  Uiso   1.00
C261   C     0.51615   0.47307   0.27746   0.00000  Uiso   1.00
C262   C     0.48385   0.52693   0.22254   0.00000  Uiso   1.00
C263   C     0.46669   0.47337   0.27779   0.00000  Uiso   1.00
C264   C     0.53331   0.52663   0.22221   0.00000  Uiso   1.00
C265   C     0.63908   0.50029   0.33596   0.00000  Uiso   1.00
C266   C     0.36092   0.49971   0.16404   0.00000  Uiso   1.00
C267   C     0.62325   0.50222   0.38495   0.00000  Uiso   1.00
C268   C     0.37675   0.49778   0.11505   0.00000  Uiso   1.00
C269   C     0.64011   0.51966   0.45392   0.00000  Uiso   1.00
C270   C     0.35989   0.48034   0.04608   0.00000  Uiso   1.00
C271   C     0.65651   0.51083   0.40882   0.00000  Uiso   1.00
C272   C     0.34349   0.48917   0.09118   0.00000  Uiso   1.00
C273   C     0.57388   0.49814   0.40796   0.00000  Uiso   1.00
C274   C     0.42612   0.50186   0.09204   0.00000  Uiso   1.00
C275   C     0.55806   0.50023   0.45459   0.00000  Uiso   1.00
C276   C     0.44194   0.49977   0.04541   0.00000  Uiso   1.00
C277   C     0.59042   0.51695   0.47653   0.00000  Uiso   1.00
C278   C     0.40958   0.48305   0.02347   0.00000  Uiso   1.00
C279   C     0.50929   0.49123   0.47887   0.00000  Uiso   1.00
C280   C     0.49071   0.50877   0.02113   0.00000  Uiso   1.00
Cu281  Cu    0.38022   0.50001   0.25000   0.00000  Uiso   1.00
Cu282  Cu    0.61978   0.49999   0.25000   0.00000  Uiso   1.00
H283   H     0.63856   0.48597   0.10802   0.00000  Uiso   1.00
H284   H     0.36144   0.51403   0.39198   0.00000  Uiso   1.00
H285   H     0.66639   0.53015   0.47021   0.00000  Uiso   1.00
H286   H     0.33361   0.46985   0.02979   0.00000  Uiso   1.00
N287   N     0.45069   0.50001   0.24999   0.00000  Uiso   1.00
N288   N     0.54931   0.49999   0.25001   0.00000  Uiso   1.00
O289   O     0.37291   0.43989   0.25000   0.00000  Uiso   1.00
O290   O     0.62709   0.56011   0.25000   0.00000  Uiso   1.00
O291   O     0.62706   0.43988   0.25001   0.00000  Uiso   1.00
O292   O     0.37294   0.56012   0.25000   0.00000  Uiso   1.00
O293   O     0.35186   0.50001   0.31492   0.00000  Uiso   1.00
O294   O     0.64814   0.49999   0.18509   0.00000  Uiso   1.00
O295   O     0.60600   0.50000   0.31492   0.00000  Uiso   1.00
O296   O     0.39400   0.50000   0.18508   0.00000  Uiso   1.00
Cl297  Cl    0.60935   0.56255   0.04369   0.00000  Uiso   1.00
Cl298  Cl    0.39065   0.43745   0.45631   0.00000  Uiso   1.00
F299   F     0.45966   0.50182   0.11518   0.00000  Uiso   1.00
F300   F     0.54034   0.49818   0.38482   0.00000  Uiso   1.00
Cl301  Cl    0.49721   0.57607   0.07338   0.00000  Uiso   1.00
Cl302  Cl    0.50279   0.42393   0.42662   0.00000  Uiso   1.00
Cl303  Cl    0.63239   0.37810   0.34239   0.00000  Uiso   1.00
Cl304  Cl    0.36761   0.62190   0.15761   0.00000  Uiso   1.00
F305   F     0.63699   0.62084   0.32926   0.00000  Uiso   1.00
F306   F     0.36301   0.37916   0.17074   0.00000  Uiso   1.00
Cl307  Cl    0.53439   0.43645   0.31227   0.00000  Uiso   1.00
Cl308  Cl    0.46561   0.56355   0.18773   0.00000  Uiso   1.00
Cl309  Cl    0.42582   0.43919   0.31530   0.00000  Uiso   1.00
Cl310  Cl    0.57418   0.56081   0.18470   0.00000  Uiso   1.00
C311   C     0.99988   0.42089   0.25015   0.00000  Uiso   1.00
C312   C     0.66679   0.57911   0.24985   0.00000  Uiso   1.00
C313   C     0.85463   0.53525   0.03721   0.00000  Uiso   1.00
C314   C     0.81204   0.46475   0.46279   0.00000  Uiso   1.00
C315   C     0.90488   0.53489   0.01817   0.00000  Uiso   1.00
C316   C     0.76178   0.46511   0.48183   0.00000  Uiso   1.00
C317   C     0.98458   0.35337   0.29087   0.00000  Uiso   1.00
C318   C     0.68209   0.64663   0.20913   0.00000  Uiso   1.00
C319   C     0.98485   0.64354   0.29033   0.00000  Uiso   1.00
C320   C     0.68182   0.35646   0.20967   0.00000  Uiso   1.00
C321   C     0.66694   0.62373   0.24964   0.00000  Uiso   1.00
C322   C     0.99972   0.37627   0.25036   0.00000  Uiso   1.00
C323   C     0.84949   0.47307   0.27746   0.00000  Uiso   1.00
C324   C     0.81718   0.52693   0.22254   0.00000  Uiso   1.00
C325   C     0.80002   0.47337   0.27779   0.00000  Uiso   1.00
C326   C     0.86665   0.52663   0.22221   0.00000  Uiso   1.00
C327   C     0.97242   0.50029   0.33596   0.00000  Uiso   1.00
C328   C     0.69425   0.49971   0.16404   0.00000  Uiso   1.00
C329   C     0.95658   0.50222   0.38495   0.00000  Uiso   1.00
C330   C     0.71008   0.49778   0.11505   0.00000  Uiso   1.00
C331   C     0.97345   0.51966   0.45392   0.00000  Uiso   1.00
C332   C     0.69322   0.48034   0.04608   0.00000  Uiso   1.00
C333   C     0.98984   0.51083   0.40882   0.00000  Uiso   1.00
C334   C     0.67683   0.48917   0.09118   0.00000  Uiso   1.00
C335   C     0.90721   0.49814   0.40796   0.00000  Uiso   1.00
C336   C     0.75946   0.50186   0.09204   0.00000  Uiso   1.00
C337   C     0.89139   0.50023   0.45459   0.00000  Uiso   1.00
C338   C     0.77528   0.49977   0.04541   0.00000  Uiso   1.00
C339   C     0.92376   0.51695   0.47653   0.00000  Uiso   1.00
C340   C     0.74291   0.48305   0.02347   0.00000  Uiso   1.00
C341   C     0.84263   0.49123   0.47887   0.00000  Uiso   1.00
C342   C     0.82404   0.50877   0.02113   0.00000  Uiso   1.00
Cu343  Cu    0.71355   0.50001   0.25000   0.00000  Uiso   1.00
Cu344  Cu    0.95311   0.49999   0.25000   0.00000  Uiso   1.00
H345   H     0.97189   0.48597   0.10802   0.00000  Uiso   1.00
H346   H     0.69477   0.51403   0.39198   0.00000  Uiso   1.00
H347   H     0.99972   0.53015   0.47021   0.00000  Uiso   1.00
H348   H     0.66694   0.46985   0.02979   0.00000  Uiso   1.00
N349   N     0.78403   0.50001   0.24999   0.00000  Uiso   1.00
N350   N     0.88264   0.49999   0.25001   0.00000  Uiso   1.00
O351   O     0.70625   0.43989   0.25000   0.00000  Uiso   1.00
O352   O     0.96042   0.56011   0.25000   0.00000  Uiso   1.00
O353   O     0.96039   0.43988   0.25001   0.00000  Uiso   1.00
O354   O     0.70628   0.56012   0.25000   0.00000  Uiso   1.00
O355   O     0.68519   0.50001   0.31492   0.00000  Uiso   1.00
O356   O     0.98148   0.49999   0.18509   0.00000  Uiso   1.00
O357   O     0.93933   0.50000   0.31492   0.00000  Uiso   1.00
O358   O     0.72733   0.50000   0.18508   0.00000  Uiso   1.00
Cl359  Cl    0.94268   0.56255   0.04369   0.00000  Uiso   1.00
Cl360  Cl    0.72398   0.43745   0.45631   0.00000  Uiso   1.00
F361   F     0.79299   0.50182   0.11518   0.00000  Uiso   1.00
F362   F     0.87367   0.49818   0.38482   0.00000  Uiso   1.00
Cl363  Cl    0.83055   0.57607   0.07338   0.00000  Uiso   1.00
Cl364  Cl    0.83612   0.42393   0.42662   0.00000  Uiso   1.00
Cl365  Cl    0.96573   0.37810   0.34239   0.00000  Uiso   1.00
Cl366  Cl    0.70094   0.62190   0.15761   0.00000  Uiso   1.00
F367   F     0.97032   0.62084   0.32926   0.00000  Uiso   1.00
F368   F     0.69635   0.37916   0.17074   0.00000  Uiso   1.00
Cl369  Cl    0.86772   0.43645   0.31227   0.00000  Uiso   1.00
Cl370  Cl    0.79894   0.56355   0.18773   0.00000  Uiso   1.00
Cl371  Cl    0.75915   0.43919   0.31530   0.00000  Uiso   1.00
Cl372  Cl    0.90751   0.56081   0.18470   0.00000  Uiso   1.00
C373   C     0.33321   0.75422   0.25015   0.00000  Uiso   1.00
C374   C     0.00012   0.91244   0.24985   0.00000  Uiso   1.00
C375   C     0.18796   0.86859   0.03721   0.00000  Uiso   1.00
C376   C     0.14537   0.79808   0.46279   0.00000  Uiso   1.00
C377   C     0.23822   0.86822   0.01817   0.00000  Uiso   1.00
C378   C     0.09512   0.79845   0.48183   0.00000  Uiso   1.00
C379   C     0.31791   0.68670   0.29087   0.00000  Uiso   1.00
C380   C     0.01542   0.97996   0.20913   0.00000  Uiso   1.00
C381   C     0.31818   0.97688   0.29033   0.00000  Uiso   1.00
C382   C     0.01515   0.68979   0.20967   0.00000  Uiso   1.00
C383   C     0.00028   0.95707   0.24964   0.00000  Uiso   1.00
C384   C     0.33306   0.70960   0.25036   0.00000  Uiso   1.00
C385   C     0.18282   0.80640   0.27746   0.00000  Uiso   1.00
C386   C     0.15051   0.86027   0.22254   0.00000  Uiso   1.00
C387   C     0.13335   0.80671   0.27779   0.00000  Uiso   1.00
C388   C     0.19998   0.85996   0.22221   0.00000  Uiso   1.00
C389   C     0.30575   0.83362   0.33596   0.00000  Uiso   1.00
C390   C     0.02758   0.83305   0.16404   0.00000  Uiso   1.00
C391   C     0.28992   0.83555   0.38495   0.00000  Uiso   1.00
C392   C     0.04342   0.83111   0.11505   0.00000  Uiso   1.00
C393   C     0.30678   0.85299   0.45392   0.00000  Uiso   1.00
C394   C     0.02655   0.81367   0.04608   0.00000  Uiso   1.00
C395   C     0.32317   0.84416   0.40882   0.00000  Uiso   1.00
C396   C     0.01016   0.82251   0.09118   0.00000  Uiso   1.00
C397   C     0.24054   0.83147   0.40796   0.00000  Uiso   1.00
C398   C     0.09279   0.83519   0.09204   0.00000  Uiso   1.00
C399   C     0.22472   0.83356   0.45459   0.00000  Uiso   1.00
C400   C     0.10861   0.83311   0.04541   0.00000  Uiso   1.00
C401   C     0.25709   0.85028   0.47653   0.00000  Uiso   1.00
C402   C     0.07624   0.81638   0.02347   0.00000  Uiso   1.00
C403   C     0.17596   0.82456   0.47887   0.00000  Uiso   1.00
C404   C     0.15737   0.84211   0.02113   0.00000  Uiso   1.00
Cu405  Cu    0.04689   0.83334   0.25000   0.00000  Uiso   1.00
Cu406  Cu    0.28645   0.83333   0.25000   0.00000  Uiso   1.00
H407   H     0.30523   0.81930   0.10802   0.00000  Uiso   1.00
H408   H     0.02811   0.84736   0.39198   0.00000  Uiso   1.00
H409   H     0.33306   0.86349   0.47021   0.00000  Uiso   1.00
H410   H     0.00028   0.80318   0.02979   0.00000  Uiso   1.00
N411   N     0.11736   0.83334   0.24999   0.00000  Uiso   1.00
N412   N     0.21597   0.83332   0.25001   0.00000  Uiso   1.00
O413   O     0.03958   0.77322   0.25000   0.00000  Uiso   1.00
O414   O     0.29375   0.89345   0.25000   0.00000  Uiso   1.00
O415   O     0.29372   0.77321   0.25001   0.00000  Uiso   1.00
O416   O     0.03961   0.89346   0.25000   0.00000  Uiso   1.00
O417   O     0.01852   0.83334   0.31492   0.00000  Uiso   1.00
O418   O     0.31481   0.83332   0.18509   0.00000  Uiso   1.00
O419   O     0.27267   0.83333   0.31492   0.00000  Uiso   1.00
O420   O     0.06067   0.83333   0.18508   0.00000  Uiso   1.00
Cl421  Cl    0.27602   0.89589   0.04369   0.00000  Uiso   1.00
Cl422  Cl    0.05732   0.77078   0.45631   0.00000  Uiso   1.00
F423   F     0.12633   0.83516   0.11518   0.00000  Uiso   1.00
F424   F     0.20701   0.83151   0.38482   0.00000  Uiso   1.00
Cl425  Cl    0.16388   0.90940   0.07338   0.00000  Uiso   1.00
Cl426  Cl    0.16945   0.75726   0.42662   0.00000  Uiso   1.00
Cl427  Cl    0.29906   0.71143   0.34239   0.00000  Uiso   1.00
Cl428  Cl    0.03427   0.95524   0.15761   0.00000  Uiso   1.00
F429   F     0.30365   0.95417   0.32926   0.00000  Uiso   1.00
F430   F     0.02968   0.71250   0.17074   0.00000  Uiso   1.00
Cl431  Cl    0.20106   0.76978   0.31227   0.00000  Uiso   1.00
Cl432  Cl    0.13228   0.89689   0.18773   0.00000  Uiso   1.00
Cl433  Cl    0.09249   0.77253   0.31530   0.00000  Uiso   1.00
Cl434  Cl    0.24085   0.89414   0.18470   0.00000  Uiso   1.00
C435   C     0.66655   0.75422   0.25015   0.00000  Uiso   1.00
C436   C     0.33345   0.91244   0.24985   0.00000  Uiso   1.00
C437   C     0.52129   0.86859   0.03721   0.00000  Uiso   1.00
C438   C     0.47871   0.79808   0.46279   0.00000  Uiso   1.00
C439   C     0.57155   0.86822   0.01817   0.00000  Uiso   1.00
C440   C     0.42845   0.79845   0.48183   0.00000  Uiso   1.00
C441   C     0.65125   0.68670   0.29087   0.00000  Uiso   1.00
C442   C     0.34876   0.97996   0.20913   0.00000  Uiso   1.00
C443   C     0.65152   0.97688   0.29033   0.00000  Uiso   1.00
C444   C     0.34848   0.68979   0.20967   0.00000  Uiso   1.00
C445   C     0.33361   0.95707   0.24964   0.00000  Uiso   1.00
C446   C     0.66639   0.70960   0.25036   0.00000  Uiso   1.00
C447   C     0.51615   0.80640   0.27746   0.00000  Uiso   1.00
C448   C     0.48385   0.86027   0.22254   0.00000  Uiso   1.00
C449   C     0.46669   0.80671   0.27779   0.00000  Uiso   1.00
C450   C     0.53331   0.85996   0.22221   0.00000  Uiso   1.00
C451   C     0.63908   0.83362   0.33596   0.00000  Uiso   1.00
C452   C     0.36092   0.83305   0.16404   0.00000  Uiso   1.00
C453   C     0.62325   0.83555   0.38495   0.00000  Uiso   1.00
C454   C     0.37675   0.83111   0.11505   0.00000  Uiso   1.00
C455   C     0.64011   0.85299   0.45392   0.00000  Uiso   1.00
C456   C     0.35989   0.81367   0.04608   0.00000  Uiso   1.00
C457   C     0.65651   0.84416   0.40882   0.00000  Uiso   1.00
C458   C     0.34349   0.82251   0.09118   0.00000  Uiso   1.00
C459   C     0.57388   0.83147   0.40796   0.00000  Uiso   1.00
C460   C     0.42612   0.83519   0.09204   0.00000  Uiso   1.00
C461   C     0.55806   0.83356   0.45459   0.00000  Uiso   1.00
C462   C     0.44194   0.83311   0.04541   0.00000  Uiso   1.00
C463   C     0.59042   0.85028   0.47653   0.00000  Uiso   1.00
C464   C     0.40958   0.81638   0.02347   0.00000  Uiso   1.00
C465   C     0.50929   0.82456   0.47887   0.00000  Uiso   1.00
C466   C     0.49071   0.84211   0.02113   0.00000  Uiso   1.00
Cu467  Cu    0.38022   0.83334   0.25000   0.00000  Uiso   1.00
Cu468  Cu    0.61978   0.83333   0.25000   0.00000  Uiso   1.00
H469   H     0.63856   0.81930   0.10802   0.00000  Uiso   1.00
H470   H     0.36144   0.84736   0.39198   0.00000  Uiso   1.00
H471   H     0.66639   0.86349   0.47021   0.00000  Uiso   1.00
H472   H     0.33361   0.80318   0.02979   0.00000  Uiso   1.00
N473   N     0.45069   0.83334   0.24999   0.00000  Uiso   1.00
N474   N     0.54931   0.83332   0.25001   0.00000  Uiso   1.00
O475   O     0.37291   0.77322   0.25000   0.00000  Uiso   1.00
O476   O     0.62709   0.89345   0.25000   0.00000  Uiso   1.00
O477   O     0.62706   0.77321   0.25001   0.00000  Uiso   1.00
O478   O     0.37294   0.89346   0.25000   0.00000  Uiso   1.00
O479   O     0.35186   0.83334   0.31492   0.00000  Uiso   1.00
O480   O     0.64814   0.83332   0.18509   0.00000  Uiso   1.00
O481   O     0.60600   0.83333   0.31492   0.00000  Uiso   1.00
O482   O     0.39400   0.83333   0.18508   0.00000  Uiso   1.00
Cl483  Cl    0.60935   0.89589   0.04369   0.00000  Uiso   1.00
Cl484  Cl    0.39065   0.77078   0.45631   0.00000  Uiso   1.00
F485   F     0.45966   0.83516   0.11518   0.00000  Uiso   1.00
F486   F     0.54034   0.83151   0.38482   0.00000  Uiso   1.00
Cl487  Cl    0.49721   0.90940   0.07338   0.00000  Uiso   1.00
Cl488  Cl    0.50279   0.75726   0.42662   0.00000  Uiso   1.00
Cl489  Cl    0.63239   0.71143   0.34239   0.00000  Uiso   1.00
Cl490  Cl    0.36761   0.95524   0.15761   0.00000  Uiso   1.00
F491   F     0.63699   0.95417   0.32926   0.00000  Uiso   1.00
F492   F     0.36301   0.71250   0.17074   0.00000  Uiso   1.00
Cl493  Cl    0.53439   0.76978   0.31227   0.00000  Uiso   1.00
Cl494  Cl    0.46561   0.89689   0.18773   0.00000  Uiso   1.00
Cl495  Cl    0.42582   0.77253   0.31530   0.00000  Uiso   1.00
Cl496  Cl    0.57418   0.89414   0.18470   0.00000  Uiso   1.00
C497   C     0.99988   0.75422   0.25015   0.00000  Uiso   1.00
C498   C     0.66679   0.91244   0.24985   0.00000  Uiso   1.00
C499   C     0.85463   0.86859   0.03721   0.00000  Uiso   1.00
C500   C     0.81204   0.79808   0.46279   0.00000  Uiso   1.00
C501   C     0.90488   0.86822   0.01817   0.00000  Uiso   1.00
C502   C     0.76178   0.79845   0.48183   0.00000  Uiso   1.00
C503   C     0.98458   0.68670   0.29087   0.00000  Uiso   1.00
C504   C     0.68209   0.97996   0.20913   0.00000  Uiso   1.00
C505   C     0.98485   0.97688   0.29033   0.00000  Uiso   1.00
C506   C     0.68182   0.68979   0.20967   0.00000  Uiso   1.00
C507   C     0.66694   0.95707   0.24964   0.00000  Uiso   1.00
C508   C     0.99972   0.70960   0.25036   0.00000  Uiso   1.00
C509   C     0.84949   0.80640   0.27746   0.00000  Uiso   1.00
C510   C     0.81718   0.86027   0.22254   0.00000  Uiso   1.00
C511   C     0.80002   0.80671   0.27779   0.00000  Uiso   1.00
C512   C     0.86665   0.85996   0.22221   0.00000  Uiso   1.00
C513   C     0.97242   0.83362   0.33596   0.00000  Uiso   1.00
C514   C     0.69425   0.83305   0.16404   0.00000  Uiso   1.00
C515   C     0.95658   0.83555   0.38495   0.00000  Uiso   1.00
C516   C     0.71008   0.83111   0.11505   0.00000  Uiso   1.00
C517   C     0.97345   0.85299   0.45392   0.00000  Uiso   1.00
C518   C     0.69322   0.81367   0.04608   0.00000  Uiso   1.00
C519   C     0.98984   0.84416   0.40882   0.00000  Uiso   1.00
C520   C     0.67683   0.82251   0.09118   0.00000  Uiso   1.00
C521   C     0.90721   0.83147   0.40796   0.00000  Uiso   1.00
C522   C     0.75946   0.83519   0.09204   0.00000  Uiso   1.00
C523   C     0.89139   0.83356   0.45459   0.00000  Uiso   1.00
C524   C     0.77528   0.83311   0.04541   0.00000  Uiso   1.00
C525   C     0.92376   0.85028   0.47653   0.00000  Uiso   1.00
C526   C     0.74291   0.81638   0.02347   0.00000  Uiso   1.00
C527   C     0.84263   0.82456   0.47887   0.00000  Uiso   1.00
C528   C     0.82404   0.84211   0.02113   0.00000  Uiso   1.00
Cu529  Cu    0.71355   0.83334   0.25000   0.00000  Uiso   1.00
Cu530  Cu    0.95311   0.83333   0.25000   0.00000  Uiso   1.00
H531   H     0.97189   0.81930   0.10802   0.00000  Uiso   1.00
H532   H     0.69477   0.84736   0.39198   0.00000  Uiso   1.00
H533   H     0.99972   0.86349   0.47021   0.00000  Uiso   1.00
H534   H     0.66694   0.80318   0.02979   0.00000  Uiso   1.00
N535   N     0.78403   0.83334   0.24999   0.00000  Uiso   1.00
N536   N     0.88264   0.83332   0.25001   0.00000  Uiso   1.00
O537   O     0.70625   0.77322   0.25000   0.00000  Uiso   1.00
O538   O     0.96042   0.89345   0.25000   0.00000  Uiso   1.00
O539   O     0.96039   0.77321   0.25001   0.00000  Uiso   1.00
O540   O     0.70628   0.89346   0.25000   0.00000  Uiso   1.00
O541   O     0.68519   0.83334   0.31492   0.00000  Uiso   1.00
O542   O     0.98148   0.83332   0.18509   0.00000  Uiso   1.00
O543   O     0.93933   0.83333   0.31492   0.00000  Uiso   1.00
O544   O     0.72733   0.83333   0.18508   0.00000  Uiso   1.00
Cl545  Cl    0.94268   0.89589   0.04369   0.00000  Uiso   1.00
Cl546  Cl    0.72398   0.77078   0.45631   0.00000  Uiso   1.00
F547   F     0.79299   0.83516   0.11518   0.00000  Uiso   1.00
F548   F     0.87367   0.83151   0.38482   0.00000  Uiso   1.00
Cl549  Cl    0.83055   0.90940   0.07338   0.00000  Uiso   1.00
Cl550  Cl    0.83612   0.75726   0.42662   0.00000  Uiso   1.00
Cl551  Cl    0.96573   0.71143   0.34239   0.00000  Uiso   1.00
Cl552  Cl    0.70094   0.95524   0.15761   0.00000  Uiso   1.00
F553   F     0.97032   0.95417   0.32926   0.00000  Uiso   1.00
F554   F     0.69635   0.71250   0.17074   0.00000  Uiso   1.00
Cl555  Cl    0.86772   0.76978   0.31227   0.00000  Uiso   1.00
Cl556  Cl    0.79894   0.89689   0.18773   0.00000  Uiso   1.00
Cl557  Cl    0.75915   0.77253   0.31530   0.00000  Uiso   1.00
Cl558  Cl    0.90751   0.89414   0.18470   0.00000  Uiso   1.00
C559   C     0.33321   0.08756   0.75015   0.00000  Uiso   1.00
C560   C     0.00012   0.24578   0.74985   0.00000  Uiso   1.00
C561   C     0.18796   0.20192   0.53721   0.00000  Uiso   1.00
C562   C     0.14537   0.13141   0.96279   0.00000  Uiso   1.00
C563   C     0.23822   0.20155   0.51817   0.00000  Uiso   1.00
C564   C     0.09512   0.13178   0.98183   0.00000  Uiso   1.00
C565   C     0.31791   0.02004   0.79087   0.00000  Uiso   1.00
C566   C     0.01542   0.31330   0.70913   0.00000  Uiso   1.00
C567   C     0.31818   0.31021   0.79033   0.00000  Uiso   1.00
C568   C     0.01515   0.02312   0.70967   0.00000  Uiso   1.00
C569   C     0.00028   0.29040   0.74964   0.00000  Uiso   1.00
C570   C     0.33306   0.04293   0.75036   0.00000  Uiso   1.00
C571   C     0.18282   0.13973   0.77746   0.00000  Uiso   1.00
C572   C     0.15051   0.19360   0.72254   0.00000  Uiso   1.00
C573   C     0.13335   0.14004   0.77779   0.00000  Uiso   1.00
C574   C     0.19998   0.19329   0.72221   0.00000  Uiso   1.00
C575   C     0.30575   0.16695   0.83596   0.00000  Uiso   1.00
C576   C     0.02758   0.16638   0.66404   0.00000  Uiso   1.00
C577   C     0.28992   0.16889   0.88495   0.00000  Uiso   1.00
C578   C     0.04342   0.16445   0.61505   0.00000  Uiso   1.00
C579   C     0.30678   0.18633   0.95392   0.00000  Uiso   1.00
C580   C     0.02655   0.14701   0.54608   0.00000  Uiso   1.00
C581   C     0.32317   0.17749   0.90882   0.00000  Uiso   1.00
C582   C     0.01016   0.15584   0.59118   0.00000  Uiso   1.00
C583   C     0.24054   0.16481   0.90796   0.00000  Uiso   1.00
C584   C     0.09279   0.16853   0.59204   0.00000  Uiso   1.00
C585   C     0.22472   0.16689   0.95459   0.00000  Uiso   1.00
C586   C     0.10861   0.16644   0.54541   0.00000  Uiso   1.00
C587   C     0.25709   0.18362   0.97653   0.00000  Uiso   1.00
C588   C     0.07624   0.14972   0.52347   0.00000  Uiso   1.00
C589   C     0.17596   0.15789   0.97887   0.00000  Uiso   1.00
C590   C     0.15737   0.17544   0.52113   0.00000  Uiso   1.00
Cu591  Cu    0.04689   0.16667   0.75000   0.00000  Uiso   1.00
Cu592  Cu    0.28645   0.16666   0.75000   0.00000  Uiso   1.00
H593   H     0.30523   0.15264   0.60802   0.00000  Uiso   1.00
H594   H     0.02811   0.18070   0.89198   0.00000  Uiso   1.00
H595   H     0.33306   0.19682   0.97021   0.00000  Uiso   1.00
H596   H     0.00028   0.13651   0.52979   0.00000  Uiso   1.00
N597   N     0.11736   0.16668   0.74999   0.00000  Uiso   1.00
N598   N     0.21597   0.16666   0.75001   0.00000  Uiso   1.00
O599   O     0.03958   0.10655   0.75000   0.00000  Uiso   1.00
O600   O     0.29375   0.22678   0.75000   0.00000  Uiso   1.00
O601   O     0.29372   0.10654   0.75001   0.00000  Uiso   1.00
O602   O     0.03961   0.22679   0.75000   0.00000  Uiso   1.00
O603   O     0.01852   0.16668   0.81492   0.00000  Uiso   1.00
O604   O     0.31481   0.16666   0.68509   0.00000  Uiso   1.00
O605   O     0.27267   0.16667   0.81492   0.00000  Uiso   1.00
O606   O     0.06067   0.16667   0.68508   0.00000  Uiso   1.00
Cl607  Cl    0.27602   0.22922   0.54369   0.00000  Uiso   1.00
Cl608  Cl    0.05732   0.10411   0.95631   0.00000  Uiso   1.00
F609   F     0.12633   0.16849   0.61518   0.00000  Uiso   1.00
F610   F     0.20701   0.16484   0.88482   0.00000  Uiso   1.00
Cl611  Cl    0.16388   0.24274   0.57338   0.00000  Uiso   1.00
Cl612  Cl    0.16945   0.09060   0.92662   0.00000  Uiso   1.00
Cl613  Cl    0.29906   0.04476   0.84239   0.00000  Uiso   1.00
Cl614  Cl    0.03427   0.28857   0.65761   0.00000  Uiso   1.00
F615   F     0.30365   0.28750   0.82926   0.00000  Uiso   1.00
F616   F     0.02968   0.04583   0.67074   0.00000  Uiso   1.00
Cl617  Cl    0.20106   0.10311   0.81227   0.00000  Uiso   1.00
Cl618  Cl    0.13228   0.23022   0.68773   0.00000  Uiso   1.00
Cl619  Cl    0.09249   0.10586   0.81530   0.00000  Uiso   1.00
Cl620  Cl    0.24085   0.22747   0.68470   0.00000  Uiso   1.00
C621   C     0.66655   0.08756   0.75015   0.00000  Uiso   1.00
C622   C     0.33345   0.24578   0.74985   0.00000  Uiso   1.00
C623   C     0.52129   0.20192   0.53721   0.00000  Uiso   1.00
C624   C     0.47871   0.13141   0.96279   0.00000  Uiso   1.00
C625   C     0.57155   0.20155   0.51817   0.00000  Uiso   1.00
C626   C     0.42845   0.13178   0.98183   0.00000  Uiso   1.00
C627   C     0.65125   0.02004   0.79087   0.00000  Uiso   1.00
C628   C     0.34876   0.31330   0.70913   0.00000  Uiso   1.00
C629   C     0.65152   0.31021   0.79033   0.00000  Uiso   1.00
C630   C     0.34848   0.02312   0.70967   0.00000  Uiso   1.00
C631   C     0.33361   0.29040   0.74964   0.00000  Uiso   1.00
C632   C     0.66639   0.04293   0.75036   0.00000  Uiso   1.00
C633   C     0.51615   0.13973   0.77746   0.00000  Uiso   1.00
C634   C     0.48385   0.19360   0.72254   0.00000  Uiso   1.00
C635   C     0.46669   0.14004   0.77779   0.00000  Uiso   1.00
C636   C     0.53331   0.19329   0.72221   0.00000  Uiso   1.00
C637   C     0.63908   0.16695   0.83596   0.00000  Uiso   1.00
C638   C     0.36092   0.16638   0.66404   0.00000  Uiso   1.00
C639   C     0.62325   0.16889   0.88495   0.00000  Uiso   1.00
C640   C     0.37675   0.16445   0.61505   0.00000  Uiso   1.00
C641   C     0.64011   0.18633   0.95392   0.00000  Uiso   1.00
C642   C     0.35989   0.14701   0.54608   0.00000  Uiso   1.00
C643   C     0.65651   0.17749   0.90882   0.00000  Uiso   1.00
C644   C     0.34349   0.15584   0.59118   0.00000  Uiso   1.00
C645   C     0.57388   0.16481   0.90796   0.00000  Uiso   1.00
C646   C     0.42612   0.16853   0.59204   0.00000  Uiso   1.00
C647   C     0.55806   0.16689   0.95459   0.00000  Uiso   1.00
C648   C     0.44194   0.16644   0.54541   0.00000  Uiso   1.00
C649   C     0.59042   0.18362   0.97653   0.00000  Uiso   1.00
C650   C     0.40958   0.14972   0.52347   0.00000  Uiso   1.00
C651   C     0.50929   0.15789   0.97887   0.00000  Uiso   1.00
C652   C     0.49071   0.17544   0.52113   0.00000  Uiso   1.00
Cu653  Cu    0.38022   0.16667   0.75000   0.00000  Uiso   1.00
Cu654  Cu    0.61978   0.16666   0.75000   0.00000  Uiso   1.00
H655   H     0.63856   0.15264   0.60802   0.00000  Uiso   1.00
H656   H     0.36144   0.18070   0.89198   0.00000  Uiso   1.00
H657   H     0.66639   0.19682   0.97021   0.00000  Uiso   1.00
H658   H     0.33361   0.13651   0.52979   0.00000  Uiso   1.00
N659   N     0.45069   0.16668   0.74999   0.00000  Uiso   1.00
N660   N     0.54931   0.16666   0.75001   0.00000  Uiso   1.00
O661   O     0.37291   0.10655   0.75000   0.00000  Uiso   1.00
O662   O     0.62709   0.22678   0.75000   0.00000  Uiso   1.00
O663   O     0.62706   0.10654   0.75001   0.00000  Uiso   1.00
O664   O     0.37294   0.22679   0.75000   0.00000  Uiso   1.00
O665   O     0.35186   0.16668   0.81492   0.00000  Uiso   1.00
O666   O     0.64814   0.16666   0.68509   0.00000  Uiso   1.00
O667   O     0.60600   0.16667   0.81492   0.00000  Uiso   1.00
O668   O     0.39400   0.16667   0.68508   0.00000  Uiso   1.00
Cl669  Cl    0.60935   0.22922   0.54369   0.00000  Uiso   1.00
Cl670  Cl    0.39065   0.10411   0.95631   0.00000  Uiso   1.00
F671   F     0.45966   0.16849   0.61518   0.00000  Uiso   1.00
F672   F     0.54034   0.16484   0.88482   0.00000  Uiso   1.00
Cl673  Cl    0.49721   0.24274   0.57338   0.00000  Uiso   1.00
Cl674  Cl    0.50279   0.09060   0.92662   0.00000  Uiso   1.00
Cl675  Cl    0.63239   0.04476   0.84239   0.00000  Uiso   1.00
Cl676  Cl    0.36761   0.28857   0.65761   0.00000  Uiso   1.00
F677   F     0.63699   0.28750   0.82926   0.00000  Uiso   1.00
F678   F     0.36301   0.04583   0.67074   0.00000  Uiso   1.00
Cl679  Cl    0.53439   0.10311   0.81227   0.00000  Uiso   1.00
Cl680  Cl    0.46561   0.23022   0.68773   0.00000  Uiso   1.00
Cl681  Cl    0.42582   0.10586   0.81530   0.00000  Uiso   1.00
Cl682  Cl    0.57418   0.22747   0.68470   0.00000  Uiso   1.00
C683   C     0.99988   0.08756   0.75015   0.00000  Uiso   1.00
C684   C     0.66679   0.24578   0.74985   0.00000  Uiso   1.00
C685   C     0.85463   0.20192   0.53721   0.00000  Uiso   1.00
C686   C     0.81204   0.13141   0.96279   0.00000  Uiso   1.00
C687   C     0.90488   0.20155   0.51817   0.00000  Uiso   1.00
C688   C     0.76178   0.13178   0.98183   0.00000  Uiso   1.00
C689   C     0.98458   0.02004   0.79087   0.00000  Uiso   1.00
C690   C     0.68209   0.31330   0.70913   0.00000  Uiso   1.00
C691   C     0.98485   0.31021   0.79033   0.00000  Uiso   1.00
C692   C     0.68182   0.02312   0.70967   0.00000  Uiso   1.00
C693   C     0.66694   0.29040   0.74964   0.00000  Uiso   1.00
C694   C     0.99972   0.04293   0.75036   0.00000  Uiso   1.00
C695   C     0.84949   0.13973   0.77746   0.00000  Uiso   1.00
C696   C     0.81718   0.19360   0.72254   0.00000  Uiso   1.00
C697   C     0.80002   0.14004   0.77779   0.00000  Uiso   1.00
C698   C     0.86665   0.19329   0.72221   0.00000  Uiso   1.00
C699   C     0.97242   0.16695   0.83596   0.00000  Uiso   1.00
C700   C     0.69425   0.16638   0.66404   0.00000  Uiso   1.00
C701   C     0.95658   0.16889   0.88495   0.00000  Uiso   1.00
C702   C     0.71008   0.16445   0.61505   0.00000  Uiso   1.00
C703   C     0.97345   0.18633   0.95392   0.00000  Uiso   1.00
C704   C     0.69322   0.14701   0.54608   0.00000  Uiso   1.00
C705   C     0.98984   0.17749   0.90882   0.00000  Uiso   1.00
C706   C     0.67683   0.15584   0.59118   0.00000  Uiso   1.00
C707   C     0.90721   0.16481   0.90796   0.00000  Uiso   1.00
C708   C     0.75946   0.16853   0.59204   0.00000  Uiso   1.00
C709   C     0.89139   0.16689   0.95459   0.00000  Uiso   1.00
C710   C     0.77528   0.16644   0.54541   0.00000  Uiso   1.00
C711   C     0.92376   0.18362   0.97653   0.00000  Uiso   1.00
C712   C     0.74291   0.14972   0.52347   0.00000  Uiso   1.00
C713   C     0.84263   0.15789   0.97887   0.00000  Uiso   1.00
C714   C     0.82404   0.17544   0.52113   0.00000  Uiso   1.00
Cu715  Cu    0.71355   0.16667   0.75000   0.00000  Uiso   1.00
Cu716  Cu    0.95311   0.16666   0.75000   0.00000  Uiso   1.00
H717   H     0.97189   0.15264   0.60802   0.00000  Uiso   1.00
H718   H     0.69477   0.18070   0.89198   0.00000  Uiso   1.00
H719   H     0.99972   0.19682   0.97021   0.00000  Uiso   1.00
H720   H     0.66694   0.13651   0.52979   0.00000  Uiso   1.00
N721   N     0.78403   0.16668   0.74999   0.00000  Uiso   1.00
N722   N     0.88264   0.16666   0.75001   0.00000  Uiso   1.00
O723   O     0.70625   0.10655   0.75000   0.00000  Uiso   1.00
O724   O     0.96042   0.22678   0.75000   0.00000  Uiso   1.00
O725   O     0.96039   0.10654   0.75001   0.00000  Uiso   1.00
O726   O     0.70628   0.22679   0.75000   0.00000  Uiso   1.00
O727   O     0.68519   0.16668   0.81492   0.00000  Uiso   1.00
O728   O     0.98148   0.16666   0.68509   0.00000  Uiso   1.00
O729   O     0.93933   0.16667   0.81492   0.00000  Uiso   1.00
O730   O     0.72733   0.16667   0.68508   0.00000  Uiso   1.00
Cl731  Cl    0.94268   0.22922   0.54369   0.00000  Uiso   1.00
Cl732  Cl    0.72398   0.10411   0.95631   0.00000  Uiso   1.00
F733   F     0.79299   0.16849   0.61518   0.00000  Uiso   1.00
F734   F     0.87367   0.16484   0.88482   0.00000  Uiso   1.00
Cl735  Cl    0.83055   0.24274   0.57338   0.00000  Uiso   1.00
Cl736  Cl    0.83612   0.09060   0.92662   0.00000  Uiso   1.00
Cl737  Cl    0.96573   0.04476   0.84239   0.00000  Uiso   1.00
Cl738  Cl    0.70094   0.28857   0.65761   0.00000  Uiso   1.00
F739   F     0.97032   0.28750   0.82926   0.00000  Uiso   1.00
F740   F     0.69635   0.04583   0.67074   0.00000  Uiso   1.00
Cl741  Cl    0.86772   0.10311   0.81227   0.00000  Uiso   1.00
Cl742  Cl    0.79894   0.23022   0.68773   0.00000  Uiso   1.00
Cl743  Cl    0.75915   0.10586   0.81530   0.00000  Uiso   1.00
Cl744  Cl    0.90751   0.22747   0.68470   0.00000  Uiso   1.00
C745   C     0.33321   0.42089   0.75015   0.00000  Uiso   1.00
C746   C     0.00012   0.57911   0.74985   0.00000  Uiso   1.00
C747   C     0.18796   0.53525   0.53721   0.00000  Uiso   1.00
C748   C     0.14537   0.46475   0.96279   0.00000  Uiso   1.00
C749   C     0.23822   0.53489   0.51817   0.00000  Uiso   1.00
C750   C     0.09512   0.46511   0.98183   0.00000  Uiso   1.00
C751   C     0.31791   0.35337   0.79087   0.00000  Uiso   1.00
C752   C     0.01542   0.64663   0.70913   0.00000  Uiso   1.00
C753   C     0.31818   0.64354   0.79033   0.00000  Uiso   1.00
C754   C     0.01515   0.35646   0.70967   0.00000  Uiso   1.00
C755   C     0.00028   0.62373   0.74964   0.00000  Uiso   1.00
C756   C     0.33306   0.37627   0.75036   0.00000  Uiso   1.00
C757   C     0.18282   0.47307   0.77746   0.00000  Uiso   1.00
C758   C     0.15051   0.52693   0.72254   0.00000  Uiso   1.00
C759   C     0.13335   0.47337   0.77779   0.00000  Uiso   1.00
C760   C     0.19998   0.52663   0.72221   0.00000  Uiso   1.00
C761   C     0.30575   0.50029   0.83596   0.00000  Uiso   1.00
C762   C     0.02758   0.49971   0.66404   0.00000  Uiso   1.00
C763   C     0.28992   0.50222   0.88495   0.00000  Uiso   1.00
C764   C     0.04342   0.49778   0.61505   0.00000  Uiso   1.00
C765   C     0.30678   0.51966   0.95392   0.00000  Uiso   1.00
C766   C     0.02655   0.48034   0.54608   0.00000  Uiso   1.00
C767   C     0.32317   0.51083   0.90882   0.00000  Uiso   1.00
C768   C     0.01016   0.48917   0.59118   0.00000  Uiso   1.00
C769   C     0.24054   0.49814   0.90796   0.00000  Uiso   1.00
C770   C     0.09279   0.50186   0.59204   0.00000  Uiso   1.00
C771   C     0.22472   0.50023   0.95459   0.00000  Uiso   1.00
C772   C     0.10861   0.49977   0.54541   0.00000  Uiso   1.00
C773   C     0.25709   0.51695   0.97653   0.00000  Uiso   1.00
C774   C     0.07624   0.48305   0.52347   0.00000  Uiso   1.00
C775   C     0.17596   0.49123   0.97887   0.00000  Uiso   1.00
C776   C     0.15737   0.50877   0.52113   0.00000  Uiso   1.00
Cu777  Cu    0.04689   0.50001   0.75000   0.00000  Uiso   1.00
Cu778  Cu    0.28645   0.49999   0.75000   0.00000  Uiso   1.00
H779   H     0.30523   0.48597   0.60802   0.00000  Uiso   1.00
H780   H     0.02811   0.51403   0.89198   0.00000  Uiso   1.00
H781   H     0.33306   0.53015   0.97021   0.00000  Uiso   1.00
H782   H     0.00028   0.46985   0.52979   0.00000  Uiso   1.00
N783   N     0.11736   0.50001   0.74999   0.00000  Uiso   1.00
N784   N     0.21597   0.49999   0.75001   0.00000  Uiso   1.00
O785   O     0.03958   0.43989   0.75000   0.00000  Uiso   1.00
O786   O     0.29375   0.56011   0.75000   0.00000  Uiso   1.00
O787   O     0.29372   0.43988   0.75001   0.00000  Uiso   1.00
O788   O     0.03961   0.56012   0.75000   0.00000  Uiso   1.00
O789   O     0.01852   0.50001   0.81492   0.00000  Uiso   1.00
O790   O     0.31481   0.49999   0.68509   0.00000  Uiso   1.00
O791   O     0.27267   0.50000   0.81492   0.00000  Uiso   1.00
O792   O     0.06067   0.50000   0.68508   0.00000  Uiso   1.00
Cl793  Cl    0.27602   0.56255   0.54369   0.00000  Uiso   1.00
Cl794  Cl    0.05732   0.43745   0.95631   0.00000  Uiso   1.00
F795   F     0.12633   0.50182   0.61518   0.00000  Uiso   1.00
F796   F     0.20701   0.49818   0.88482   0.00000  Uiso   1.00
Cl797  Cl    0.16388   0.57607   0.57338   0.00000  Uiso   1.00
Cl798  Cl    0.16945   0.42393   0.92662   0.00000  Uiso   1.00
Cl799  Cl    0.29906   0.37810   0.84239   0.00000  Uiso   1.00
Cl800  Cl    0.03427   0.62190   0.65761   0.00000  Uiso   1.00
F801   F     0.30365   0.62084   0.82926   0.00000  Uiso   1.00
F802   F     0.02968   0.37916   0.67074   0.00000  Uiso   1.00
Cl803  Cl    0.20106   0.43645   0.81227   0.00000  Uiso   1.00
Cl804  Cl    0.13228   0.56355   0.68773   0.00000  Uiso   1.00
Cl805  Cl    0.09249   0.43919   0.81530   0.00000  Uiso   1.00
Cl806  Cl    0.24085   0.56081   0.68470   0.00000  Uiso   1.00
C807   C     0.66655   0.42089   0.75015   0.00000  Uiso   1.00
C808   C     0.33345   0.57911   0.74985   0.00000  Uiso   1.00
C809   C     0.52129   0.53525   0.53721   0.00000  Uiso   1.00
C810   C     0.47871   0.46475   0.96279   0.00000  Uiso   1.00
C811   C     0.57155   0.53489   0.51817   0.00000  Uiso   1.00
C812   C     0.42845   0.46511   0.98183   0.00000  Uiso   1.00
C813   C     0.65125   0.35337   0.79087   0.00000  Uiso   1.00
C814   C     0.34876   0.64663   0.70913   0.00000  Uiso   1.00
C815   C     0.65152   0.64354   0.79033   0.00000  Uiso   1.00
C816   C     0.34848   0.35646   0.70967   0.00000  Uiso   1.00
C817   C     0.33361   0.62373   0.74964   0.00000  Uiso   1.00
C818   C     0.66639   0.37627   0.75036   0.00000  Uiso   1.00
C819   C     0.51615   0.47307   0.77746   0.00000  Uiso   1.00
C820   C     0.48385   0.52693   0.72254   0.00000  Uiso   1.00
C821   C     0.46669   0.47337   0.77779   0.00000  Uiso   1.00
C822   C     0.53331   0.52663   0.72221   0.00000  Uiso   1.00
C823   C     0.63908   0.50029   0.83596   0.00000  Uiso   1.00
C824   C     0.36092   0.49971   0.66404   0.00000  Uiso   1.00
C825   C     0.62325   0.50222   0.88495   0.00000  Uiso   1.00
C826   C     0.37675   0.49778   0.61505   0.00000  Uiso   1.00
C827   C     0.64011   0.51966   0.95392   0.00000  Uiso   1.00
C828   C     0.35989   0.48034   0.54608   0.00000  Uiso   1.00
C829   C     0.65651   0.51083   0.90882   0.00000  Uiso   1.00
C830   C     0.34349   0.48917   0.59118   0.00000  Uiso   1.00
C831   C     0.57388   0.49814   0.90796   0.00000  Uiso   1.00
C832   C     0.42612   0.50186   0.59204   0.00000  Uiso   1.00
C833   C     0.55806   0.50023   0.95459   0.00000  Uiso   1.00
C834   C     0.44194   0.49977   0.54541   0.00000  Uiso   1.00
C835   C     0.59042   0.51695   0.97653   0.00000  Uiso   1.00
C836   C     0.40958   0.48305   0.52347   0.00000  Uiso   1.00
C837   C     0.50929   0.49123   0.97887   0.00000  Uiso   1.00
C838   C     0.49071   0.50877   0.52113   0.00000  Uiso   1.00
Cu839  Cu    0.38022   0.50001   0.75000   0.00000  Uiso   1.00
Cu840  Cu    0.61978   0.49999   0.75000   0.00000  Uiso   1.00
H841   H     0.63856   0.48597   0.60802   0.00000  Uiso   1.00
H842   H     0.36144   0.51403   0.89198   0.00000  Uiso   1.00
H843   H     0.66639   0.53015   0.97021   0.00000  Uiso   1.00
H844   H     0.33361   0.46985   0.52979   0.00000  Uiso   1.00
N845   N     0.45069   0.50001   0.74999   0.00000  Uiso   1.00
N846   N     0.54931   0.49999   0.75001   0.00000  Uiso   1.00
O847   O     0.37291   0.43989   0.75000   0.00000  Uiso   1.00
O848   O     0.62709   0.56011   0.75000   0.00000  Uiso   1.00
O849   O     0.62706   0.43988   0.75001   0.00000  Uiso   1.00
O850   O     0.37294   0.56012   0.75000   0.00000  Uiso   1.00
O851   O     0.35186   0.50001   0.81492   0.00000  Uiso   1.00
O852   O     0.64814   0.49999   0.68509   0.00000  Uiso   1.00
O853   O     0.60600   0.50000   0.81492   0.00000  Uiso   1.00
O854   O     0.39400   0.50000   0.68508   0.00000  Uiso   1.00
Cl855  Cl    0.60935   0.56255   0.54369   0.00000  Uiso   1.00
Cl856  Cl    0.39065   0.43745   0.95631   0.00000  Uiso   1.00
F857   F     0.45966   0.50182   0.61518   0.00000  Uiso   1.00
F858   F     0.54034   0.49818   0.88482   0.00000  Uiso   1.00
Cl859  Cl    0.49721   0.57607   0.57338   0.00000  Uiso   1.00
Cl860  Cl    0.50279   0.42393   0.92662   0.00000  Uiso   1.00
Cl861  Cl    0.63239   0.37810   0.84239   0.00000  Uiso   1.00
Cl862  Cl    0.36761   0.62190   0.65761   0.00000  Uiso   1.00
F863   F     0.63699   0.62084   0.82926   0.00000  Uiso   1.00
F864   F     0.36301   0.37916   0.67074   0.00000  Uiso   1.00
Cl865  Cl    0.53439   0.43645   0.81227   0.00000  Uiso   1.00
Cl866  Cl    0.46561   0.56355   0.68773   0.00000  Uiso   1.00
Cl867  Cl    0.42582   0.43919   0.81530   0.00000  Uiso   1.00
Cl868  Cl    0.57418   0.56081   0.68470   0.00000  Uiso   1.00
C869   C     0.99988   0.42089   0.75015   0.00000  Uiso   1.00
C870   C     0.66679   0.57911   0.74985   0.00000  Uiso   1.00
C871   C     0.85463   0.53525   0.53721   0.00000  Uiso   1.00
C872   C     0.81204   0.46475   0.96279   0.00000  Uiso   1.00
C873   C     0.90488   0.53489   0.51817   0.00000  Uiso   1.00
C874   C     0.76178   0.46511   0.98183   0.00000  Uiso   1.00
C875   C     0.98458   0.35337   0.79087   0.00000  Uiso   1.00
C876   C     0.68209   0.64663   0.70913   0.00000  Uiso   1.00
C877   C     0.98485   0.64354   0.79033   0.00000  Uiso   1.00
C878   C     0.68182   0.35646   0.70967   0.00000  Uiso   1.00
C879   C     0.66694   0.62373   0.74964   0.00000  Uiso   1.00
C880   C     0.99972   0.37627   0.75036   0.00000  Uiso   1.00
C881   C     0.84949   0.47307   0.77746   0.00000  Uiso   1.00
C882   C     0.81718   0.52693   0.72254   0.00000  Uiso   1.00
C883   C     0.80002   0.47337   0.77779   0.00000  Uiso   1.00
C884   C     0.86665   0.52663   0.72221   0.00000  Uiso   1.00
C885   C     0.97242   0.50029   0.83596   0.00000  Uiso   1.00
C886   C     0.69425   0.49971   0.66404   0.00000  Uiso   1.00
C887   C     0.95658   0.50222   0.88495   0.00000  Uiso   1.00
C888   C     0.71008   0.49778   0.61505   0.00000  Uiso   1.00
C889   C     0.97345   0.51966   0.95392   0.00000  Uiso   1.00
C890   C     0.69322   0.48034   0.54608   0.00000  Uiso   1.00
C891   C     0.98984   0.51083   0.90882   0.00000  Uiso   1.00
C892   C     0.67683   0.48917   0.59118   0.00000  Uiso   1.00
C893   C     0.90721   0.49814   0.90796   0.00000  Uiso   1.00
C894   C     0.75946   0.50186   0.59204   0.00000  Uiso   1.00
C895   C     0.89139   0.50023   0.95459   0.00000  Uiso   1.00
C896   C     0.77528   0.49977   0.54541   0.00000  Uiso   1.00
C897   C     0.92376   0.51695   0.97653   0.00000  Uiso   1.00
C898   C     0.74291   0.48305   0.52347   0.00000  Uiso   1.00
C899   C     0.84263   0.49123   0.97887   0.00000  Uiso   1.00
C900   C     0.82404   0.50877   0.52113   0.00000  Uiso   1.00
Cu901  Cu    0.71355   0.50001   0.75000   0.00000  Uiso   1.00
Cu902  Cu    0.95311   0.49999   0.75000   0.00000  Uiso   1.00
H903   H     0.97189   0.48597   0.60802   0.00000  Uiso   1.00
H904   H     0.69477   0.51403   0.89198   0.00000  Uiso   1.00
H905   H     0.99972   0.53015   0.97021   0.00000  Uiso   1.00
H906   H     0.66694   0.46985   0.52979   0.00000  Uiso   1.00
N907   N     0.78403   0.50001   0.74999   0.00000  Uiso   1.00
N908   N     0.88264   0.49999   0.75001   0.00000  Uiso   1.00
O909   O     0.70625   0.43989   0.75000   0.00000  Uiso   1.00
O910   O     0.96042   0.56011   0.75000   0.00000  Uiso   1.00
O911   O     0.96039   0.43988   0.75001   0.00000  Uiso   1.00
O912   O     0.70628   0.56012   0.75000   0.00000  Uiso   1.00
O913   O     0.68519   0.50001   0.81492   0.00000  Uiso   1.00
O914   O     0.98148   0.49999   0.68509   0.00000  Uiso   1.00
O915   O     0.93933   0.50000   0.81492   0.00000  Uiso   1.00
O916   O     0.72733   0.50000   0.68508   0.00000  Uiso   1.00
Cl917  Cl    0.94268   0.56255   0.54369   0.00000  Uiso   1.00
Cl918  Cl    0.72398   0.43745   0.95631   0.00000  Uiso   1.00
F919   F     0.79299   0.50182   0.61518   0.00000  Uiso   1.00
F920   F     0.87367   0.49818   0.88482   0.00000  Uiso   1.00
Cl921  Cl    0.83055   0.57607   0.57338   0.00000  Uiso   1.00
Cl922  Cl    0.83612   0.42393   0.92662   0.00000  Uiso   1.00
Cl923  Cl    0.96573   0.37810   0.84239   0.00000  Uiso   1.00
Cl924  Cl    0.70094   0.62190   0.65761   0.00000  Uiso   1.00
F925   F     0.97032   0.62084   0.82926   0.00000  Uiso   1.00
F926   F     0.69635   0.37916   0.67074   0.00000  Uiso   1.00
Cl927  Cl    0.86772   0.43645   0.81227   0.00000  Uiso   1.00
Cl928  Cl    0.79894   0.56355   0.68773   0.00000  Uiso   1.00
Cl929  Cl    0.75915   0.43919   0.81530   0.00000  Uiso   1.00
Cl930  Cl    0.90751   0.56081   0.68470   0.00000  Uiso   1.00
C931   C     0.33321   0.75422   0.75015   0.00000  Uiso   1.00
C932   C     0.00012   0.91244   0.74985   0.00000  Uiso   1.00
C933   C     0.18796   0.86859   0.53721   0.00000  Uiso   1.00
C934   C     0.14537   0.79808   0.96279   0.00000  Uiso   1.00
C935   C     0.23822   0.86822   0.51817   0.00000  Uiso   1.00
C936   C     0.09512   0.79845   0.98183   0.00000  Uiso   1.00
C937   C     0.31791   0.68670   0.79087   0.00000  Uiso   1.00
C938   C     0.01542   0.97996   0.70913   0.00000  Uiso   1.00
C939   C     0.31818   0.97688   0.79033   0.00000  Uiso   1.00
C940   C     0.01515   0.68979   0.70967   0.00000  Uiso   1.00
C941   C     0.00028   0.95707   0.74964   0.00000  Uiso   1.00
C942   C     0.33306   0.70960   0.75036   0.00000  Uiso   1.00
C943   C     0.18282   0.80640   0.77746   0.00000  Uiso   1.00
C944   C     0.15051   0.86027   0.72254   0.00000  Uiso   1.00
C945   C     0.13335   0.80671   0.77779   0.00000  Uiso   1.00
C946   C     0.19998   0.85996   0.72221   0.00000  Uiso   1.00
C947   C     0.30575   0.83362   0.83596   0.00000  Uiso   1.00
C948   C     0.02758   0.83305   0.66404   0.00000  Uiso   1.00
C949   C     0.28992   0.83555   0.88495   0.00000  Uiso   1.00
C950   C     0.04342   0.83111   0.61505   0.00000  Uiso   1.00
C951   C     0.30678   0.85299   0.95392   0.00000  Uiso   1.00
C952   C     0.02655   0.81367   0.54608   0.00000  Uiso   1.00
C953   C     0.32317   0.84416   0.90882   0.00000  Uiso   1.00
C954   C     0.01016   0.82251   0.59118   0.00000  Uiso   1.00
C955   C     0.24054   0.83147   0.90796   0.00000  Uiso   1.00
C956   C     0.09279   0.83519   0.59204   0.00000  Uiso   1.00
C957   C     0.22472   0.83356   0.95459   0.00000  Uiso   1.00
C958   C     0.10861   0.83311   0.54541   0.00000  Uiso   1.00
C959   C     0.25709   0.85028   0.97653   0.00000  Uiso   1.00
C960   C     0.07624   0.81638   0.52347   0.00000  Uiso   1.00
C961   C     0.17596   0.82456   0.97887   0.00000  Uiso   1.00
C962   C     0.15737   0.84211   0.52113   0.00000  Uiso   1.00
Cu963  Cu    0.04689   0.83334   0.75000   0.00000  Uiso   1.00
Cu964  Cu    0.28645   0.83333   0.75000   0.00000  Uiso   1.00
H965   H     0.30523   0.81930   0.60802   0.00000  Uiso   1.00
H966   H     0.02811   0.84736   0.89198   0.00000  Uiso   1.00
H967   H     0.33306   0.86349   0.97021   0.00000  Uiso   1.00
H968   H     0.00028   0.80318   0.52979   0.00000  Uiso   1.00
N969   N     0.11736   0.83334   0.74999   0.00000  Uiso   1.00
N970   N     0.21597   0.83332   0.75001   0.00000  Uiso   1.00
O971   O     0.03958   0.77322   0.75000   0.00000  Uiso   1.00
O972   O     0.29375   0.89345   0.75000   0.00000  Uiso   1.00
O973   O     0.29372   0.77321   0.75001   0.00000  Uiso   1.00
O974   O     0.03961   0.89346   0.75000   0.00000  Uiso   1.00
O975   O     0.01852   0.83334   0.81492   0.00000  Uiso   1.00
O976   O     0.31481   0.83332   0.68509   0.00000  Uiso   1.00
O977   O     0.27267   0.83333   0.81492   0.00000  Uiso   1.00
O978   O     0.06067   0.83333   0.68508   0.00000  Uiso   1.00
Cl979  Cl    0.27602   0.89589   0.54369   0.00000  Uiso   1.00
Cl980  Cl    0.05732   0.77078   0.95631   0.00000  Uiso   1.00
F981   F     0.12633   0.83516   0.61518   0.00000  Uiso   1.00
F982   F     0.20701   0.83151   0.88482   0.00000  Uiso   1.00
Cl983  Cl    0.16388   0.90940   0.57338   0.00000  Uiso   1.00
Cl984  Cl    0.16945   0.75726   0.92662   0.00000  Uiso   1.00
Cl985  Cl    0.29906   0.71143   0.84239   0.00000  Uiso   1.00
Cl986  Cl    0.03427   0.95524   0.65761   0.00000  Uiso   1.00
F987   F     0.30365   0.95417   0.82926   0.00000  Uiso   1.00
F988   F     0.02968   0.71250   0.67074   0.00000  Uiso   1.00
Cl989  Cl    0.20106   0.76978   0.81227   0.00000  Uiso   1.00
Cl990  Cl    0.13228   0.89689   0.68773   0.00000  Uiso   1.00
Cl991  Cl    0.09249   0.77253   0.81530   0.00000  Uiso   1.00
Cl992  Cl    0.24085   0.89414   0.68470   0.00000  Uiso   1.00
C993   C     0.66655   0.75422   0.75015   0.00000  Uiso   1.00
C994   C     0.33345   0.91244   0.74985   0.00000  Uiso   1.00
C995   C     0.52129   0.86859   0.53721   0.00000  Uiso   1.00
C996   C     0.47871   0.79808   0.96279   0.00000  Uiso   1.00
C997   C     0.57155   0.86822   0.51817   0.00000  Uiso   1.00
C998   C     0.42845   0.79845   0.98183   0.00000  Uiso   1.00
C999   C     0.65125   0.68670   0.79087   0.00000  Uiso   1.00
C1000  C     0.34876   0.97996   0.70913   0.00000  Uiso   1.00
C1001  C     0.65152   0.97688   0.79033   0.00000  Uiso   1.00
C1002  C     0.34848   0.68979   0.70967   0.00000  Uiso   1.00
C1003  C     0.33361   0.95707   0.74964   0.00000  Uiso   1.00
C1004  C     0.66639   0.70960   0.75036   0.00000  Uiso   1.00
C1005  C     0.51615   0.80640   0.77746   0.00000  Uiso   1.00
C1006  C     0.48385   0.86027   0.72254   0.00000  Uiso   1.00
C1007  C     0.46669   0.80671   0.77779   0.00000  Uiso   1.00
C1008  C     0.53331   0.85996   0.72221   0.00000  Uiso   1.00
C1009  C     0.63908   0.83362   0.83596   0.00000  Uiso   1.00
C1010  C     0.36092   0.83305   0.66404   0.00000  Uiso   1.00
C1011  C     0.62325   0.83555   0.88495   0.00000  Uiso   1.00
C1012  C     0.37675   0.83111   0.61505   0.00000  Uiso   1.00
C1013  C     0.64011   0.85299   0.95392   0.00000  Uiso   1.00
C1014  C     0.35989   0.81367   0.54608   0.00000  Uiso   1.00
C1015  C     0.65651   0.84416   0.90882   0.00000  Uiso   1.00
C1016  C     0.34349   0.82251   0.59118   0.00000  Uiso   1.00
C1017  C     0.57388   0.83147   0.90796   0.00000  Uiso   1.00
C1018  C     0.42612   0.83519   0.59204   0.00000  Uiso   1.00
C1019  C     0.55806   0.83356   0.95459   0.00000  Uiso   1.00
C1020  C     0.44194   0.83311   0.54541   0.00000  Uiso   1.00
C1021  C     0.59042   0.85028   0.97653   0.00000  Uiso   1.00
C1022  C     0.40958   0.81638   0.52347   0.00000  Uiso   1.00
C1023  C     0.50929   0.82456   0.97887   0.00000  Uiso   1.00
C1024  C     0.49071   0.84211   0.52113   0.00000  Uiso   1.00
Cu1025 Cu    0.38022   0.83334   0.75000   0.00000  Uiso   1.00
Cu1026 Cu    0.61978   0.83333   0.75000   0.00000  Uiso   1.00
H1027  H     0.63856   0.81930   0.60802   0.00000  Uiso   1.00
H1028  H     0.36144   0.84736   0.89198   0.00000  Uiso   1.00
H1029  H     0.66639   0.86349   0.97021   0.00000  Uiso   1.00
H1030  H     0.33361   0.80318   0.52979   0.00000  Uiso   1.00
N1031  N     0.45069   0.83334   0.74999   0.00000  Uiso   1.00
N1032  N     0.54931   0.83332   0.75001   0.00000  Uiso   1.00
O1033  O     0.37291   0.77322   0.75000   0.00000  Uiso   1.00
O1034  O     0.62709   0.89345   0.75000   0.00000  Uiso   1.00
O1035  O     0.62706   0.77321   0.75001   0.00000  Uiso   1.00
O1036  O     0.37294   0.89346   0.75000   0.00000  Uiso   1.00
O1037  O     0.35186   0.83334   0.81492   0.00000  Uiso   1.00
O1038  O     0.64814   0.83332   0.68509   0.00000  Uiso   1.00
O1039  O     0.60600   0.83333   0.81492   0.00000  Uiso   1.00
O1040  O     0.39400   0.83333   0.68508   0.00000  Uiso   1.00
Cl1041 Cl    0.60935   0.89589   0.54369   0.00000  Uiso   1.00
Cl1042 Cl    0.39065   0.77078   0.95631   0.00000  Uiso   1.00
F1043  F     0.45966   0.83516   0.61518   0.00000  Uiso   1.00
F1044  F     0.54034   0.83151   0.88482   0.00000  Uiso   1.00
Cl1045 Cl    0.49721   0.90940   0.57338   0.00000  Uiso   1.00
Cl1046 Cl    0.50279   0.75726   0.92662   0.00000  Uiso   1.00
Cl1047 Cl    0.63239   0.71143   0.84239   0.00000  Uiso   1.00
Cl1048 Cl    0.36761   0.95524   0.65761   0.00000  Uiso   1.00
F1049  F     0.63699   0.95417   0.82926   0.00000  Uiso   1.00
F1050  F     0.36301   0.71250   0.67074   0.00000  Uiso   1.00
Cl1051 Cl    0.53439   0.76978   0.81227   0.00000  Uiso   1.00
Cl1052 Cl    0.46561   0.89689   0.68773   0.00000  Uiso   1.00
Cl1053 Cl    0.42582   0.77253   0.81530   0.00000  Uiso   1.00
Cl1054 Cl    0.57418   0.89414   0.68470   0.00000  Uiso   1.00
C1055  C     0.99988   0.75422   0.75015   0.00000  Uiso   1.00
C1056  C     0.66679   0.91244   0.74985   0.00000  Uiso   1.00
C1057  C     0.85463   0.86859   0.53721   0.00000  Uiso   1.00
C1058  C     0.81204   0.79808   0.96279   0.00000  Uiso   1.00
C1059  C     0.90488   0.86822   0.51817   0.00000  Uiso   1.00
C1060  C     0.76178   0.79845   0.98183   0.00000  Uiso   1.00
C1061  C     0.98458   0.68670   0.79087   0.00000  Uiso   1.00
C1062  C     0.68209   0.97996   0.70913   0.00000  Uiso   1.00
C1063  C     0.98485   0.97688   0.79033   0.00000  Uiso   1.00
C1064  C     0.68182   0.68979   0.70967   0.00000  Uiso   1.00
C1065  C     0.66694   0.95707   0.74964   0.00000  Uiso   1.00
C1066  C     0.99972   0.70960   0.75036   0.00000  Uiso   1.00
C1067  C     0.84949   0.80640   0.77746   0.00000  Uiso   1.00
C1068  C     0.81718   0.86027   0.72254   0.00000  Uiso   1.00
C1069  C     0.80002   0.80671   0.77779   0.00000  Uiso   1.00
C1070  C     0.86665   0.85996   0.72221   0.00000  Uiso   1.00
C1071  C     0.97242   0.83362   0.83596   0.00000  Uiso   1.00
C1072  C     0.69425   0.83305   0.66404   0.00000  Uiso   1.00
C1073  C     0.95658   0.83555   0.88495   0.00000  Uiso   1.00
C1074  C     0.71008   0.83111   0.61505   0.00000  Uiso   1.00
C1075  C     0.97345   0.85299   0.95392   0.00000  Uiso   1.00
C1076  C     0.69322   0.81367   0.54608   0.00000  Uiso   1.00
C1077  C     0.98984   0.84416   0.90882   0.00000  Uiso   1.00
C1078  C     0.67683   0.82251   0.59118   0.00000  Uiso   1.00
C1079  C     0.90721   0.83147   0.90796   0.00000  Uiso   1.00
C1080  C     0.75946   0.83519   0.59204   0.00000  Uiso   1.00
C1081  C     0.89139   0.83356   0.95459   0.00000  Uiso   1.00
C1082  C     0.77528   0.83311   0.54541   0.00000  Uiso   1.00
C1083  C     0.92376   0.85028   0.97653   0.00000  Uiso   1.00
C1084  C     0.74291   0.81638   0.52347   0.00000  Uiso   1.00
C1085  C     0.84263   0.82456   0.97887   0.00000  Uiso   1.00
C1086  C     0.82404   0.84211   0.52113   0.00000  Uiso   1.00
Cu1087 Cu    0.71355   0.83334   0.75000   0.00000  Uiso   1.00
Cu1088 Cu    0.95311   0.83333   0.75000   0.00000  Uiso   1.00
H1089  H     0.97189   0.81930   0.60802   0.00000  Uiso   1.00
H1090  H     0.69477   0.84736   0.89198   0.00000  Uiso   1.00
H1091  H     0.99972   0.86349   0.97021   0.00000  Uiso   1.00
H1092  H     0.66694   0.80318   0.52979   0.00000  Uiso   1.00
N1093  N     0.78403   0.83334   0.74999   0.00000  Uiso   1.00
N1094  N     0.88264   0.83332   0.75001   0.00000  Uiso   1.00
O1095  O     0.70625   0.77322   0.75000   0.00000  Uiso   1.00
O1096  O     0.96042   0.89345   0.75000   0.00000  Uiso   1.00
O1097  O     0.96039   0.77321   0.75001   0.00000  Uiso   1.00
O1098  O     0.70628   0.89346   0.75000   0.00000  Uiso   1.00
O1099  O     0.68519   0.83334   0.81492   0.00000  Uiso   1.00
O1100  O     0.98148   0.83332   0.68509   0.00000  Uiso   1.00
O1101  O     0.93933   0.83333   0.81492   0.00000  Uiso   1.00
O1102  O     0.72733   0.83333   0.68508   0.00000  Uiso   1.00
Cl1103 Cl    0.94268   0.89589   0.54369   0.00000  Uiso   1.00
Cl1104 Cl    0.72398   0.77078   0.95631   0.00000  Uiso   1.00
F1105  F     0.79299   0.83516   0.61518   0.00000  Uiso   1.00
F1106  F     0.87367   0.83151   0.88482   0.00000  Uiso   1.00
Cl1107 Cl    0.83055   0.90940   0.57338   0.00000  Uiso   1.00
Cl1108 Cl    0.83612   0.75726   0.92662   0.00000  Uiso   1.00
Cl1109 Cl    0.96573   0.71143   0.84239   0.00000  Uiso   1.00
Cl1110 Cl    0.70094   0.95524   0.65761   0.00000  Uiso   1.00
F1111  F     0.97032   0.95417   0.82926   0.00000  Uiso   1.00
F1112  F     0.69635   0.71250   0.67074   0.00000  Uiso   1.00
Cl1113 Cl    0.86772   0.76978   0.81227   0.00000  Uiso   1.00
Cl1114 Cl    0.79894   0.89689   0.68773   0.00000  Uiso   1.00
Cl1115 Cl    0.75915   0.77253   0.81530   0.00000  Uiso   1.00
Cl1116 Cl    0.90751   0.89414   0.68470   0.00000  Uiso   1.00
loop_
_geom_bond_atom_site_label_1
_geom_bond_atom_site_label_2
_geom_bond_distance
_geom_bond_site_symmetry_2
_ccdc_geom_bond_type
C1     O43     1.294   .     A
C1     C12     1.436   .     S
C1     O103    1.293   .     S
C2     C11     1.436   .     S
C2     O44     1.294   .     A
C2     O166    1.293   1_455 S
C3     C5      1.403   .     A
C3     Cl53    1.773   .     S
C3     C32     1.422   .     A
C4     C6      1.403   .     A
C4     C31     1.422   .     A
C4     Cl54    1.773   .     S
C5     Cl49    1.771   .     S
C5     C587    1.405   1_554 S
C6     Cl50    1.771   .     S
C6     C588    1.405   .     S
C7     Cl55    1.764   .     S
C7     C12     1.402   .     A
C7     C381    1.390   1_545 S
C8     Cl56    1.765   .     S
C8     C11     1.402   .     A
C8     C196    1.390   .     S
C9     F57     1.359   .     S
C9     C193    1.390   .     S
C9     C73     1.399   .     S
C10    F58     1.359   .     S
C10    C380    1.390   1_545 S
C10    C136    1.399   1_455 S
C11    C133    1.399   1_455 S
C12    C72     1.399   .     S
C13    Cl59    1.759   .     S
C13    C15     1.422   .     A
C13    N40     1.374   .     A
C14    C16     1.422   .     A
C14    Cl60    1.759   .     S
C14    N39     1.374   .     A
C15    N39     1.372   .     A
C15    Cl61    1.763   .     S
C16    N40     1.372   .     A
C16    Cl62    1.763   .     S
C17    C19     1.473   .     S
C17    O47     1.300   .     A
C17    O107    1.307   .     S
C18    O48     1.300   .     A
C18    C20     1.473   .     S
C18    O170    1.307   1_455 S
C19    C23     1.400   .     A
C19    C25     1.406   .     A
C20    C26     1.406   .     A
C20    C24     1.400   .     A
C21    C23     1.394   .     A
C21    H37     1.082   .     S
C21    C29     1.409   .     A
C22    C24     1.394   .     A
C22    C30     1.409   .     A
C22    H38     1.082   .     S
C23    H98     1.083   .     S
C24    H159    1.083   1_455 S
C25    F52     1.359   .     S
C25    C27     1.404   .     A
C26    C28     1.404   .     A
C26    F51     1.359   .     S
C27    C29     1.416   .     A
C27    C31     1.421   .     A
C28    C30     1.416   .     A
C28    C32     1.421   .     A
C29    C563    1.405   .     S
C30    C564    1.405   1_554 S
C31    C590    1.415   .     S
C32    C589    1.415   1_554 S
Cu33   O45     1.963   .     S
Cu33   O41     1.946   .     S
Cu33   O48     1.955   .     S
Cu33   N39     2.029   .     S
Cu33   O44     1.947   .     S
Cu33   Cu158   2.700   1_455 S
Cu34   O46     1.963   .     S
Cu34   O42     1.946   .     S
Cu34   N40     2.029   .     S
Cu34   O47     1.955   .     S
Cu34   O43     1.947   .     S
Cu34   Cu95    2.700   .     S
H35    C86     1.083   .     S
H36    C147    1.083   1_455 S
O41    C125    1.293   1_455 S
O42    C64     1.293   .     S
O45    C141    1.307   1_455 S
O46    C80     1.307   .     S
C63    O105    1.294   .     A
C63    C74     1.436   .     S
C63    O165    1.293   .     S
C64    C73     1.436   .     S
C64    O106    1.294   .     A
C65    C67     1.403   .     A
C65    Cl115   1.773   .     S
C65    C94     1.422   .     A
C66    C68     1.403   .     A
C66    C93     1.422   .     A
C66    Cl116   1.773   .     S
C67    Cl111   1.771   .     S
C67    C649    1.405   1_554 S
C68    Cl112   1.771   .     S
C68    C650    1.405   .     S
C69    Cl117   1.764   .     S
C69    C74     1.402   .     A
C69    C443    1.390   1_545 S
C70    Cl118   1.765   .     S
C70    C73     1.402   .     A
C70    C258    1.390   .     S
C71    F119    1.359   .     S
C71    C255    1.390   .     S
C71    C135    1.399   .     S
C72    F120    1.359   .     S
C72    C442    1.390   1_545 S
C74    C134    1.399   .     S
C75    Cl121   1.759   .     S
C75    C77     1.422   .     A
C75    N102    1.374   .     A
C76    C78     1.422   .     A
C76    Cl122   1.759   .     S
C76    N101    1.374   .     A
C77    N101    1.372   .     A
C77    Cl123   1.763   .     S
C78    N102    1.372   .     A
C78    Cl124   1.763   .     S
C79    C81     1.473   .     S
C79    O109    1.300   .     A
C79    O169    1.307   .     S
C80    O110    1.300   .     A
C80    C82     1.473   .     S
C81    C85     1.400   .     A
C81    C87     1.406   .     A
C82    C88     1.406   .     A
C82    C86     1.400   .     A
C83    C85     1.394   .     A
C83    H99     1.082   .     S
C83    C91     1.409   .     A
C84    C86     1.394   .     A
C84    C92     1.409   .     A
C84    H100    1.082   .     S
C85    H160    1.083   .     S
C87    F114    1.359   .     S
C87    C89     1.404   .     A
C88    C90     1.404   .     A
C88    F113    1.359   .     S
C89    C91     1.416   .     A
C89    C93     1.421   .     A
C90    C92     1.416   .     A
C90    C94     1.421   .     A
C91    C625    1.405   .     S
C92    C626    1.405   1_554 S
C93    C652    1.415   .     S
C94    C651    1.415   1_554 S
Cu95   O107    1.963   .     S
Cu95   O103    1.946   .     S
Cu95   O110    1.955   .     S
Cu95   N101    2.029   .     S
Cu95   O106    1.947   .     S
Cu96   O108    1.963   .     S
Cu96   O104    1.946   .     S
Cu96   N102    2.029   .     S
Cu96   O109    1.955   .     S
Cu96   O105    1.947   .     S
Cu96   Cu157   2.700   .     S
H97    C148    1.083   .     S
O104   C126    1.293   .     S
O108   C142    1.307   .     S
C125   O167    1.294   .     A
C125   C136    1.436   .     S
C125   O41     1.293   1_655 S
C126   C135    1.436   .     S
C126   O168    1.294   .     A
C127   C129    1.403   .     A
C127   Cl177   1.773   .     S
C127   C156    1.422   .     A
C128   C130    1.403   .     A
C128   C155    1.422   .     A
C128   Cl178   1.773   .     S
C129   Cl173   1.771   .     S
C129   C711    1.405   1_554 S
C130   Cl174   1.771   .     S
C130   C712    1.405   .     S
C131   Cl179   1.764   .     S
C131   C136    1.402   .     A
C131   C505    1.390   1_545 S
C132   Cl180   1.765   .     S
C132   C135    1.402   .     A
C132   C320    1.390   .     S
C133   F181    1.359   .     S
C133   C317    1.390   .     S
C133   C11     1.399   1_655 S
C134   F182    1.359   .     S
C134   C504    1.390   1_545 S
C136   C10     1.399   1_655 S
C137   Cl183   1.759   .     S
C137   C139    1.422   .     A
C137   N164    1.374   .     A
C138   C140    1.422   .     A
C138   Cl184   1.759   .     S
C138   N163    1.374   .     A
C139   N163    1.372   .     A
C139   Cl185   1.763   .     S
C140   N164    1.372   .     A
C140   Cl186   1.763   .     S
C141   C143    1.473   .     S
C141   O171    1.300   .     A
C141   O45     1.307   1_655 S
C142   O172    1.300   .     A
C142   C144    1.473   .     S
C143   C147    1.400   .     A
C143   C149    1.406   .     A
C144   C150    1.406   .     A
C144   C148    1.400   .     A
C145   C147    1.394   .     A
C145   H161    1.082   .     S
C145   C153    1.409   .     A
C146   C148    1.394   .     A
C146   C154    1.409   .     A
C146   H162    1.082   .     S
C147   H36     1.083   1_655 S
C149   F176    1.359   .     S
C149   C151    1.404   .     A
C150   C152    1.404   .     A
C150   F175    1.359   .     S
C151   C153    1.416   .     A
C151   C155    1.421   .     A
C152   C154    1.416   .     A
C152   C156    1.421   .     A
C153   C687    1.405   .     S
C154   C688    1.405   1_554 S
C155   C714    1.415   .     S
C156   C713    1.415   1_554 S
Cu157  O169    1.963   .     S
Cu157  O165    1.946   .     S
Cu157  O172    1.955   .     S
Cu157  N163    2.029   .     S
Cu157  O168    1.947   .     S
Cu158  O170    1.963   .     S
Cu158  O166    1.946   .     S
Cu158  N164    2.029   .     S
Cu158  O171    1.955   .     S
Cu158  O167    1.947   .     S
Cu158  Cu33    2.700   1_655 S
H159   C24     1.083   1_655 S
O166   C2      1.293   1_655 S
O170   C18     1.307   1_655 S
C187   O229    1.294   .     A
C187   C198    1.436   .     S
C187   O289    1.293   .     S
C188   C197    1.436   .     S
C188   O230    1.294   .     A
C188   O352    1.293   1_455 S
C189   C191    1.403   .     A
C189   Cl239   1.773   .     S
C189   C218    1.422   .     A
C190   C192    1.403   .     A
C190   C217    1.422   .     A
C190   Cl240   1.773   .     S
C191   Cl235   1.771   .     S
C191   C773    1.405   1_554 S
C192   Cl236   1.771   .     S
C192   C774    1.405   .     S
C193   Cl241   1.764   .     S
C193   C198    1.402   .     A
C194   Cl242   1.765   .     S
C194   C197    1.402   .     A
C194   C382    1.390   .     S
C195   F243    1.359   .     S
C195   C379    1.390   .     S
C195   C259    1.399   .     S
C196   F244    1.359   .     S
C196   C322    1.399   1_455 S
C197   C319    1.399   1_455 S
C198   C258    1.399   .     S
C199   Cl245   1.759   .     S
C199   C201    1.422   .     A
C199   N226    1.374   .     A
C200   C202    1.422   .     A
C200   Cl246   1.759   .     S
C200   N225    1.374   .     A
C201   N225    1.372   .     A
C201   Cl247   1.763   .     S
C202   N226    1.372   .     A
C202   Cl248   1.763   .     S
C203   C205    1.473   .     S
C203   O233    1.300   .     A
C203   O293    1.307   .     S
C204   O234    1.300   .     A
C204   C206    1.473   .     S
C204   O356    1.307   1_455 S
C205   C209    1.400   .     A
C205   C211    1.406   .     A
C206   C212    1.406   .     A
C206   C210    1.400   .     A
C207   C209    1.394   .     A
C207   H223    1.082   .     S
C207   C215    1.409   .     A
C208   C210    1.394   .     A
C208   C216    1.409   .     A
C208   H224    1.082   .     S
C209   H284    1.083   .     S
C210   H345    1.083   1_455 S
C211   F238    1.359   .     S
C211   C213    1.404   .     A
C212   C214    1.404   .     A
C212   F237    1.359   .     S
C213   C215    1.416   .     A
C213   C217    1.421   .     A
C214   C216    1.416   .     A
C214   C218    1.421   .     A
C215   C749    1.405   .     S
C216   C750    1.405   1_554 S
C217   C776    1.415   .     S
C218   C775    1.415   1_554 S
Cu219  O231    1.963   .     S
Cu219  O227    1.946   .     S
Cu219  O234    1.955   .     S
Cu219  N225    2.029   .     S
Cu219  O230    1.947   .     S
Cu219  Cu344   2.700   1_455 S
Cu220  O232    1.963   .     S
Cu220  O228    1.946   .     S
Cu220  N226    2.029   .     S
Cu220  O233    1.955   .     S
Cu220  O229    1.947   .     S
Cu220  Cu281   2.700   .     S
H221   C272    1.083   .     S
H222   C333    1.083   1_455 S
O227   C311    1.293   1_455 S
O228   C250    1.293   .     S
O231   C327    1.307   1_455 S
O232   C266    1.307   .     S
C249   O291    1.294   .     A
C249   C260    1.436   .     S
C249   O351    1.293   .     S
C250   C259    1.436   .     S
C250   O292    1.294   .     A
C251   C253    1.403   .     A
C251   Cl301   1.773   .     S
C251   C280    1.422   .     A
C252   C254    1.403   .     A
C252   C279    1.422   .     A
C252   Cl302   1.773   .     S
C253   Cl297   1.771   .     S
C253   C835    1.405   1_554 S
C254   Cl298   1.771   .     S
C254   C836    1.405   .     S
C255   Cl303   1.764   .     S
C255   C260    1.402   .     A
C256   Cl304   1.765   .     S
C256   C259    1.402   .     A
C256   C444    1.390   .     S
C257   F305    1.359   .     S
C257   C441    1.390   .     S
C257   C321    1.399   .     S
C258   F306    1.359   .     S
C260   C320    1.399   .     S
C261   Cl307   1.759   .     S
C261   C263    1.422   .     A
C261   N288    1.374   .     A
C262   C264    1.422   .     A
C262   Cl308   1.759   .     S
C262   N287    1.374   .     A
C263   N287    1.372   .     A
C263   Cl309   1.763   .     S
C264   N288    1.372   .     A
C264   Cl310   1.763   .     S
C265   C267    1.473   .     S
C265   O295    1.300   .     A
C265   O355    1.307   .     S
C266   O296    1.300   .     A
C266   C268    1.473   .     S
C267   C271    1.400   .     A
C267   C273    1.406   .     A
C268   C274    1.406   .     A
C268   C272    1.400   .     A
C269   C271    1.394   .     A
C269   H285    1.082   .     S
C269   C277    1.409   .     A
C270   C272    1.394   .     A
C270   C278    1.409   .     A
C270   H286    1.082   .     S
C271   H346    1.083   .     S
C273   F300    1.359   .     S
C273   C275    1.404   .     A
C274   C276    1.404   .     A
C274   F299    1.359   .     S
C275   C277    1.416   .     A
C275   C279    1.421   .     A
C276   C278    1.416   .     A
C276   C280    1.421   .     A
C277   C811    1.405   .     S
C278   C812    1.405   1_554 S
C279   C838    1.415   .     S
C280   C837    1.415   1_554 S
Cu281  O293    1.963   .     S
Cu281  O289    1.946   .     S
Cu281  O296    1.955   .     S
Cu281  N287    2.029   .     S
Cu281  O292    1.947   .     S
Cu282  O294    1.963   .     S
Cu282  O290    1.946   .     S
Cu282  N288    2.029   .     S
Cu282  O295    1.955   .     S
Cu282  O291    1.947   .     S
Cu282  Cu343   2.700   .     S
H283   C334    1.083   .     S
O290   C312    1.293   .     S
O294   C328    1.307   .     S
C311   O353    1.294   .     A
C311   C322    1.436   .     S
C311   O227    1.293   1_655 S
C312   C321    1.436   .     S
C312   O354    1.294   .     A
C313   C315    1.403   .     A
C313   Cl363   1.773   .     S
C313   C342    1.422   .     A
C314   C316    1.403   .     A
C314   C341    1.422   .     A
C314   Cl364   1.773   .     S
C315   Cl359   1.771   .     S
C315   C897    1.405   1_554 S
C316   Cl360   1.771   .     S
C316   C898    1.405   .     S
C317   Cl365   1.764   .     S
C317   C322    1.402   .     A
C318   Cl366   1.765   .     S
C318   C321    1.402   .     A
C318   C506    1.390   .     S
C319   F367    1.359   .     S
C319   C503    1.390   .     S
C319   C197    1.399   1_655 S
C320   F368    1.359   .     S
C322   C196    1.399   1_655 S
C323   Cl369   1.759   .     S
C323   C325    1.422   .     A
C323   N350    1.374   .     A
C324   C326    1.422   .     A
C324   Cl370   1.759   .     S
C324   N349    1.374   .     A
C325   N349    1.372   .     A
C325   Cl371   1.763   .     S
C326   N350    1.372   .     A
C326   Cl372   1.763   .     S
C327   C329    1.473   .     S
C327   O357    1.300   .     A
C327   O231    1.307   1_655 S
C328   O358    1.300   .     A
C328   C330    1.473   .     S
C329   C333    1.400   .     A
C329   C335    1.406   .     A
C330   C336    1.406   .     A
C330   C334    1.400   .     A
C331   C333    1.394   .     A
C331   H347    1.082   .     S
C331   C339    1.409   .     A
C332   C334    1.394   .     A
C332   C340    1.409   .     A
C332   H348    1.082   .     S
C333   H222    1.083   1_655 S
C335   F362    1.359   .     S
C335   C337    1.404   .     A
C336   C338    1.404   .     A
C336   F361    1.359   .     S
C337   C339    1.416   .     A
C337   C341    1.421   .     A
C338   C340    1.416   .     A
C338   C342    1.421   .     A
C339   C873    1.405   .     S
C340   C874    1.405   1_554 S
C341   C900    1.415   .     S
C342   C899    1.415   1_554 S
Cu343  O355    1.963   .     S
Cu343  O351    1.946   .     S
Cu343  O358    1.955   .     S
Cu343  N349    2.029   .     S
Cu343  O354    1.947   .     S
Cu344  O356    1.963   .     S
Cu344  O352    1.946   .     S
Cu344  N350    2.029   .     S
Cu344  O357    1.955   .     S
Cu344  O353    1.947   .     S
Cu344  Cu219   2.700   1_655 S
H345   C210    1.083   1_655 S
O352   C188    1.293   1_655 S
O356   C204    1.307   1_655 S
C373   O415    1.294   .     A
C373   C384    1.436   .     S
C373   O475    1.293   .     S
C374   C383    1.436   .     S
C374   O416    1.294   .     A
C374   O538    1.293   1_455 S
C375   C377    1.403   .     A
C375   Cl425   1.773   .     S
C375   C404    1.422   .     A
C376   C378    1.403   .     A
C376   C403    1.422   .     A
C376   Cl426   1.773   .     S
C377   Cl421   1.771   .     S
C377   C959    1.405   1_554 S
C378   Cl422   1.771   .     S
C378   C960    1.405   .     S
C379   Cl427   1.764   .     S
C379   C384    1.402   .     A
C380   Cl428   1.765   .     S
C380   C383    1.402   .     A
C380   C10     1.390   1_565 S
C381   F429    1.359   .     S
C381   C7      1.390   1_565 S
C381   C445    1.399   .     S
C382   F430    1.359   .     S
C382   C508    1.399   1_455 S
C383   C505    1.399   1_455 S
C384   C444    1.399   .     S
C385   Cl431   1.759   .     S
C385   C387    1.422   .     A
C385   N412    1.374   .     A
C386   C388    1.422   .     A
C386   Cl432   1.759   .     S
C386   N411    1.374   .     A
C387   N411    1.372   .     A
C387   Cl433   1.763   .     S
C388   N412    1.372   .     A
C388   Cl434   1.763   .     S
C389   C391    1.473   .     S
C389   O419    1.300   .     A
C389   O479    1.307   .     S
C390   O420    1.300   .     A
C390   C392    1.473   .     S
C390   O542    1.307   1_455 S
C391   C395    1.400   .     A
C391   C397    1.406   .     A
C392   C398    1.406   .     A
C392   C396    1.400   .     A
C393   C395    1.394   .     A
C393   H409    1.082   .     S
C393   C401    1.409   .     A
C394   C396    1.394   .     A
C394   C402    1.409   .     A
C394   H410    1.082   .     S
C395   H470    1.083   .     S
C396   H531    1.083   1_455 S
C397   F424    1.359   .     S
C397   C399    1.404   .     A
C398   C400    1.404   .     A
C398   F423    1.359   .     S
C399   C401    1.416   .     A
C399   C403    1.421   .     A
C400   C402    1.416   .     A
C400   C404    1.421   .     A
C401   C935    1.405   .     S
C402   C936    1.405   1_554 S
C403   C962    1.415   .     S
C404   C961    1.415   1_554 S
Cu405  O417    1.963   .     S
Cu405  O413    1.946   .     S
Cu405  O420    1.955   .     S
Cu405  N411    2.029   .     S
Cu405  O416    1.947   .     S
Cu405  Cu530   2.700   1_455 S
Cu406  O418    1.963   .     S
Cu406  O414    1.946   .     S
Cu406  N412    2.029   .     S
Cu406  O419    1.955   .     S
Cu406  O415    1.947   .     S
Cu406  Cu467   2.700   .     S
H407   C458    1.083   .     S
H408   C519    1.083   1_455 S
O413   C497    1.293   1_455 S
O414   C436    1.293   .     S
O417   C513    1.307   1_455 S
O418   C452    1.307   .     S
C435   O477    1.294   .     A
C435   C446    1.436   .     S
C435   O537    1.293   .     S
C436   C445    1.436   .     S
C436   O478    1.294   .     A
C437   C439    1.403   .     A
C437   Cl487   1.773   .     S
C437   C466    1.422   .     A
C438   C440    1.403   .     A
C438   C465    1.422   .     A
C438   Cl488   1.773   .     S
C439   Cl483   1.771   .     S
C439   C1021   1.405   1_554 S
C440   Cl484   1.771   .     S
C440   C1022   1.405   .     S
C441   Cl489   1.764   .     S
C441   C446    1.402   .     A
C442   Cl490   1.765   .     S
C442   C445    1.402   .     A
C442   C72     1.390   1_565 S
C443   F491    1.359   .     S
C443   C69     1.390   1_565 S
C443   C507    1.399   .     S
C444   F492    1.359   .     S
C446   C506    1.399   .     S
C447   Cl493   1.759   .     S
C447   C449    1.422   .     A
C447   N474    1.374   .     A
C448   C450    1.422   .     A
C448   Cl494   1.759   .     S
C448   N473    1.374   .     A
C449   N473    1.372   .     A
C449   Cl495   1.763   .     S
C450   N474    1.372   .     A
C450   Cl496   1.763   .     S
C451   C453    1.473   .     S
C451   O481    1.300   .     A
C451   O541    1.307   .     S
C452   O482    1.300   .     A
C452   C454    1.473   .     S
C453   C457    1.400   .     A
C453   C459    1.406   .     A
C454   C460    1.406   .     A
C454   C458    1.400   .     A
C455   C457    1.394   .     A
C455   H471    1.082   .     S
C455   C463    1.409   .     A
C456   C458    1.394   .     A
C456   C464    1.409   .     A
C456   H472    1.082   .     S
C457   H532    1.083   .     S
C459   F486    1.359   .     S
C459   C461    1.404   .     A
C460   C462    1.404   .     A
C460   F485    1.359   .     S
C461   C463    1.416   .     A
C461   C465    1.421   .     A
C462   C464    1.416   .     A
C462   C466    1.421   .     A
C463   C997    1.405   .     S
C464   C998    1.405   1_554 S
C465   C1024   1.415   .     S
C466   C1023   1.415   1_554 S
Cu467  O479    1.963   .     S
Cu467  O475    1.946   .     S
Cu467  O482    1.955   .     S
Cu467  N473    2.029   .     S
Cu467  O478    1.947   .     S
Cu468  O480    1.963   .     S
Cu468  O476    1.946   .     S
Cu468  N474    2.029   .     S
Cu468  O481    1.955   .     S
Cu468  O477    1.947   .     S
Cu468  Cu529   2.700   .     S
H469   C520    1.083   .     S
O476   C498    1.293   .     S
O480   C514    1.307   .     S
C497   O539    1.294   .     A
C497   C508    1.436   .     S
C497   O413    1.293   1_655 S
C498   C507    1.436   .     S
C498   O540    1.294   .     A
C499   C501    1.403   .     A
C499   Cl549   1.773   .     S
C499   C528    1.422   .     A
C500   C502    1.403   .     A
C500   C527    1.422   .     A
C500   Cl550   1.773   .     S
C501   Cl545   1.771   .     S
C501   C1083   1.405   1_554 S
C502   Cl546   1.771   .     S
C502   C1084   1.405   .     S
C503   Cl551   1.764   .     S
C503   C508    1.402   .     A
C504   Cl552   1.765   .     S
C504   C507    1.402   .     A
C504   C134    1.390   1_565 S
C505   F553    1.359   .     S
C505   C131    1.390   1_565 S
C505   C383    1.399   1_655 S
C506   F554    1.359   .     S
C508   C382    1.399   1_655 S
C509   Cl555   1.759   .     S
C509   C511    1.422   .     A
C509   N536    1.374   .     A
C510   C512    1.422   .     A
C510   Cl556   1.759   .     S
C510   N535    1.374   .     A
C511   N535    1.372   .     A
C511   Cl557   1.763   .     S
C512   N536    1.372   .     A
C512   Cl558   1.763   .     S
C513   C515    1.473   .     S
C513   O543    1.300   .     A
C513   O417    1.307   1_655 S
C514   O544    1.300   .     A
C514   C516    1.473   .     S
C515   C519    1.400   .     A
C515   C521    1.406   .     A
C516   C522    1.406   .     A
C516   C520    1.400   .     A
C517   C519    1.394   .     A
C517   H533    1.082   .     S
C517   C525    1.409   .     A
C518   C520    1.394   .     A
C518   C526    1.409   .     A
C518   H534    1.082   .     S
C519   H408    1.083   1_655 S
C521   F548    1.359   .     S
C521   C523    1.404   .     A
C522   C524    1.404   .     A
C522   F547    1.359   .     S
C523   C525    1.416   .     A
C523   C527    1.421   .     A
C524   C526    1.416   .     A
C524   C528    1.421   .     A
C525   C1059   1.405   .     S
C526   C1060   1.405   1_554 S
C527   C1086   1.415   .     S
C528   C1085   1.415   1_554 S
Cu529  O541    1.963   .     S
Cu529  O537    1.946   .     S
Cu529  O544    1.955   .     S
Cu529  N535    2.029   .     S
Cu529  O540    1.947   .     S
Cu530  O542    1.963   .     S
Cu530  O538    1.946   .     S
Cu530  N536    2.029   .     S
Cu530  O543    1.955   .     S
Cu530  O539    1.947   .     S
Cu530  Cu405   2.700   1_655 S
H531   C396    1.083   1_655 S
O538   C374    1.293   1_655 S
O542   C390    1.307   1_655 S
C559   O601    1.294   .     A
C559   C570    1.436   .     S
C559   O661    1.293   .     S
C560   C569    1.436   .     S
C560   O602    1.294   .     A
C560   O724    1.293   1_455 S
C561   C563    1.403   .     A
C561   Cl611   1.773   .     S
C561   C590    1.422   .     A
C562   C564    1.403   .     A
C562   C589    1.422   .     A
C562   Cl612   1.773   .     S
C563   Cl607   1.771   .     S
C564   Cl608   1.771   .     S
C564   C30     1.405   1_556 S
C565   Cl613   1.764   .     S
C565   C570    1.402   .     A
C565   C939    1.390   1_545 S
C566   Cl614   1.765   .     S
C566   C569    1.402   .     A
C566   C754    1.390   .     S
C567   F615    1.359   .     S
C567   C751    1.390   .     S
C567   C631    1.399   .     S
C568   F616    1.359   .     S
C568   C938    1.390   1_545 S
C568   C694    1.399   1_455 S
C569   C691    1.399   1_455 S
C570   C630    1.399   .     S
C571   Cl617   1.759   .     S
C571   C573    1.422   .     A
C571   N598    1.374   .     A
C572   C574    1.422   .     A
C572   Cl618   1.759   .     S
C572   N597    1.374   .     A
C573   N597    1.372   .     A
C573   Cl619   1.763   .     S
C574   N598    1.372   .     A
C574   Cl620   1.763   .     S
C575   C577    1.473   .     S
C575   O605    1.300   .     A
C575   O665    1.307   .     S
C576   O606    1.300   .     A
C576   C578    1.473   .     S
C576   O728    1.307   1_455 S
C577   C581    1.400   .     A
C577   C583    1.406   .     A
C578   C584    1.406   .     A
C578   C582    1.400   .     A
C579   C581    1.394   .     A
C579   H595    1.082   .     S
C579   C587    1.409   .     A
C580   C582    1.394   .     A
C580   C588    1.409   .     A
C580   H596    1.082   .     S
C581   H656    1.083   .     S
C582   H717    1.083   1_455 S
C583   F610    1.359   .     S
C583   C585    1.404   .     A
C584   C586    1.404   .     A
C584   F609    1.359   .     S
C585   C587    1.416   .     A
C585   C589    1.421   .     A
C586   C588    1.416   .     A
C586   C590    1.421   .     A
C587   C5      1.405   1_556 S
C589   C32     1.415   1_556 S
Cu591  O603    1.963   .     S
Cu591  O599    1.946   .     S
Cu591  O606    1.955   .     S
Cu591  N597    2.029   .     S
Cu591  O602    1.947   .     S
Cu591  Cu716   2.700   1_455 S
Cu592  O604    1.963   .     S
Cu592  O600    1.946   .     S
Cu592  N598    2.029   .     S
Cu592  O605    1.955   .     S
Cu592  O601    1.947   .     S
Cu592  Cu653   2.700   .     S
H593   C644    1.083   .     S
H594   C705    1.083   1_455 S
O599   C683    1.293   1_455 S
O600   C622    1.293   .     S
O603   C699    1.307   1_455 S
O604   C638    1.307   .     S
C621   O663    1.294   .     A
C621   C632    1.436   .     S
C621   O723    1.293   .     S
C622   C631    1.436   .     S
C622   O664    1.294   .     A
C623   C625    1.403   .     A
C623   Cl673   1.773   .     S
C623   C652    1.422   .     A
C624   C626    1.403   .     A
C624   C651    1.422   .     A
C624   Cl674   1.773   .     S
C625   Cl669   1.771   .     S
C626   Cl670   1.771   .     S
C626   C92     1.405   1_556 S
C627   Cl675   1.764   .     S
C627   C632    1.402   .     A
C627   C1001   1.390   1_545 S
C628   Cl676   1.765   .     S
C628   C631    1.402   .     A
C628   C816    1.390   .     S
C629   F677    1.359   .     S
C629   C813    1.390   .     S
C629   C693    1.399   .     S
C630   F678    1.359   .     S
C630   C1000   1.390   1_545 S
C632   C692    1.399   .     S
C633   Cl679   1.759   .     S
C633   C635    1.422   .     A
C633   N660    1.374   .     A
C634   C636    1.422   .     A
C634   Cl680   1.759   .     S
C634   N659    1.374   .     A
C635   N659    1.372   .     A
C635   Cl681   1.763   .     S
C636   N660    1.372   .     A
C636   Cl682   1.763   .     S
C637   C639    1.473   .     S
C637   O667    1.300   .     A
C637   O727    1.307   .     S
C638   O668    1.300   .     A
C638   C640    1.473   .     S
C639   C643    1.400   .     A
C639   C645    1.406   .     A
C640   C646    1.406   .     A
C640   C644    1.400   .     A
C641   C643    1.394   .     A
C641   H657    1.082   .     S
C641   C649    1.409   .     A
C642   C644    1.394   .     A
C642   C650    1.409   .     A
C642   H658    1.082   .     S
C643   H718    1.083   .     S
C645   F672    1.359   .     S
C645   C647    1.404   .     A
C646   C648    1.404   .     A
C646   F671    1.359   .     S
C647   C649    1.416   .     A
C647   C651    1.421   .     A
C648   C650    1.416   .     A
C648   C652    1.421   .     A
C649   C67     1.405   1_556 S
C651   C94     1.415   1_556 S
Cu653  O665    1.963   .     S
Cu653  O661    1.946   .     S
Cu653  O668    1.955   .     S
Cu653  N659    2.029   .     S
Cu653  O664    1.947   .     S
Cu654  O666    1.963   .     S
Cu654  O662    1.946   .     S
Cu654  N660    2.029   .     S
Cu654  O667    1.955   .     S
Cu654  O663    1.947   .     S
Cu654  Cu715   2.700   .     S
H655   C706    1.083   .     S
O662   C684    1.293   .     S
O666   C700    1.307   .     S
C683   O725    1.294   .     A
C683   C694    1.436   .     S
C683   O599    1.293   1_655 S
C684   C693    1.436   .     S
C684   O726    1.294   .     A
C685   C687    1.403   .     A
C685   Cl735   1.773   .     S
C685   C714    1.422   .     A
C686   C688    1.403   .     A
C686   C713    1.422   .     A
C686   Cl736   1.773   .     S
C687   Cl731   1.771   .     S
C688   Cl732   1.771   .     S
C688   C154    1.405   1_556 S
C689   Cl737   1.764   .     S
C689   C694    1.402   .     A
C689   C1063   1.390   1_545 S
C690   Cl738   1.765   .     S
C690   C693    1.402   .     A
C690   C878    1.390   .     S
C691   F739    1.359   .     S
C691   C875    1.390   .     S
C691   C569    1.399   1_655 S
C692   F740    1.359   .     S
C692   C1062   1.390   1_545 S
C694   C568    1.399   1_655 S
C695   Cl741   1.759   .     S
C695   C697    1.422   .     A
C695   N722    1.374   .     A
C696   C698    1.422   .     A
C696   Cl742   1.759   .     S
C696   N721    1.374   .     A
C697   N721    1.372   .     A
C697   Cl743   1.763   .     S
C698   N722    1.372   .     A
C698   Cl744   1.763   .     S
C699   C701    1.473   .     S
C699   O729    1.300   .     A
C699   O603    1.307   1_655 S
C700   O730    1.300   .     A
C700   C702    1.473   .     S
C701   C705    1.400   .     A
C701   C707    1.406   .     A
C702   C708    1.406   .     A
C702   C706    1.400   .     A
C703   C705    1.394   .     A
C703   H719    1.082   .     S
C703   C711    1.409   .     A
C704   C706    1.394   .     A
C704   C712    1.409   .     A
C704   H720    1.082   .     S
C705   H594    1.083   1_655 S
C707   F734    1.359   .     S
C707   C709    1.404   .     A
C708   C710    1.404   .     A
C708   F733    1.359   .     S
C709   C711    1.416   .     A
C709   C713    1.421   .     A
C710   C712    1.416   .     A
C710   C714    1.421   .     A
C711   C129    1.405   1_556 S
C713   C156    1.415   1_556 S
Cu715  O727    1.963   .     S
Cu715  O723    1.946   .     S
Cu715  O730    1.955   .     S
Cu715  N721    2.029   .     S
Cu715  O726    1.947   .     S
Cu716  O728    1.963   .     S
Cu716  O724    1.946   .     S
Cu716  N722    2.029   .     S
Cu716  O729    1.955   .     S
Cu716  O725    1.947   .     S
Cu716  Cu591   2.700   1_655 S
H717   C582    1.083   1_655 S
O724   C560    1.293   1_655 S
O728   C576    1.307   1_655 S
C745   O787    1.294   .     A
C745   C756    1.436   .     S
C745   O847    1.293   .     S
C746   C755    1.436   .     S
C746   O788    1.294   .     A
C746   O910    1.293   1_455 S
C747   C749    1.403   .     A
C747   Cl797   1.773   .     S
C747   C776    1.422   .     A
C748   C750    1.403   .     A
C748   C775    1.422   .     A
C748   Cl798   1.773   .     S
C749   Cl793   1.771   .     S
C750   Cl794   1.771   .     S
C750   C216    1.405   1_556 S
C751   Cl799   1.764   .     S
C751   C756    1.402   .     A
C752   Cl800   1.765   .     S
C752   C755    1.402   .     A
C752   C940    1.390   .     S
C753   F801    1.359   .     S
C753   C937    1.390   .     S
C753   C817    1.399   .     S
C754   F802    1.359   .     S
C754   C880    1.399   1_455 S
C755   C877    1.399   1_455 S
C756   C816    1.399   .     S
C757   Cl803   1.759   .     S
C757   C759    1.422   .     A
C757   N784    1.374   .     A
C758   C760    1.422   .     A
C758   Cl804   1.759   .     S
C758   N783    1.374   .     A
C759   N783    1.372   .     A
C759   Cl805   1.763   .     S
C760   N784    1.372   .     A
C760   Cl806   1.763   .     S
C761   C763    1.473   .     S
C761   O791    1.300   .     A
C761   O851    1.307   .     S
C762   O792    1.300   .     A
C762   C764    1.473   .     S
C762   O914    1.307   1_455 S
C763   C767    1.400   .     A
C763   C769    1.406   .     A
C764   C770    1.406   .     A
C764   C768    1.400   .     A
C765   C767    1.394   .     A
C765   H781    1.082   .     S
C765   C773    1.409   .     A
C766   C768    1.394   .     A
C766   C774    1.409   .     A
C766   H782    1.082   .     S
C767   H842    1.083   .     S
C768   H903    1.083   1_455 S
C769   F796    1.359   .     S
C769   C771    1.404   .     A
C770   C772    1.404   .     A
C770   F795    1.359   .     S
C771   C773    1.416   .     A
C771   C775    1.421   .     A
C772   C774    1.416   .     A
C772   C776    1.421   .     A
C773   C191    1.405   1_556 S
C775   C218    1.415   1_556 S
Cu777  O789    1.963   .     S
Cu777  O785    1.946   .     S
Cu777  O792    1.955   .     S
Cu777  N783    2.029   .     S
Cu777  O788    1.947   .     S
Cu777  Cu902   2.700   1_455 S
Cu778  O790    1.963   .     S
Cu778  O786    1.946   .     S
Cu778  N784    2.029   .     S
Cu778  O791    1.955   .     S
Cu778  O787    1.947   .     S
Cu778  Cu839   2.700   .     S
H779   C830    1.083   .     S
H780   C891    1.083   1_455 S
O785   C869    1.293   1_455 S
O786   C808    1.293   .     S
O789   C885    1.307   1_455 S
O790   C824    1.307   .     S
C807   O849    1.294   .     A
C807   C818    1.436   .     S
C807   O909    1.293   .     S
C808   C817    1.436   .     S
C808   O850    1.294   .     A
C809   C811    1.403   .     A
C809   Cl859   1.773   .     S
C809   C838    1.422   .     A
C810   C812    1.403   .     A
C810   C837    1.422   .     A
C810   Cl860   1.773   .     S
C811   Cl855   1.771   .     S
C812   Cl856   1.771   .     S
C812   C278    1.405   1_556 S
C813   Cl861   1.764   .     S
C813   C818    1.402   .     A
C814   Cl862   1.765   .     S
C814   C817    1.402   .     A
C814   C1002   1.390   .     S
C815   F863    1.359   .     S
C815   C999    1.390   .     S
C815   C879    1.399   .     S
C816   F864    1.359   .     S
C818   C878    1.399   .     S
C819   Cl865   1.759   .     S
C819   C821    1.422   .     A
C819   N846    1.374   .     A
C820   C822    1.422   .     A
C820   Cl866   1.759   .     S
C820   N845    1.374   .     A
C821   N845    1.372   .     A
C821   Cl867   1.763   .     S
C822   N846    1.372   .     A
C822   Cl868   1.763   .     S
C823   C825    1.473   .     S
C823   O853    1.300   .     A
C823   O913    1.307   .     S
C824   O854    1.300   .     A
C824   C826    1.473   .     S
C825   C829    1.400   .     A
C825   C831    1.406   .     A
C826   C832    1.406   .     A
C826   C830    1.400   .     A
C827   C829    1.394   .     A
C827   H843    1.082   .     S
C827   C835    1.409   .     A
C828   C830    1.394   .     A
C828   C836    1.409   .     A
C828   H844    1.082   .     S
C829   H904    1.083   .     S
C831   F858    1.359   .     S
C831   C833    1.404   .     A
C832   C834    1.404   .     A
C832   F857    1.359   .     S
C833   C835    1.416   .     A
C833   C837    1.421   .     A
C834   C836    1.416   .     A
C834   C838    1.421   .     A
C835   C253    1.405   1_556 S
C837   C280    1.415   1_556 S
Cu839  O851    1.963   .     S
Cu839  O847    1.946   .     S
Cu839  O854    1.955   .     S
Cu839  N845    2.029   .     S
Cu839  O850    1.947   .     S
Cu840  O852    1.963   .     S
Cu840  O848    1.946   .     S
Cu840  N846    2.029   .     S
Cu840  O853    1.955   .     S
Cu840  O849    1.947   .     S
Cu840  Cu901   2.700   .     S
H841   C892    1.083   .     S
O848   C870    1.293   .     S
O852   C886    1.307   .     S
C869   O911    1.294   .     A
C869   C880    1.436   .     S
C869   O785    1.293   1_655 S
C870   C879    1.436   .     S
C870   O912    1.294   .     A
C871   C873    1.403   .     A
C871   Cl921   1.773   .     S
C871   C900    1.422   .     A
C872   C874    1.403   .     A
C872   C899    1.422   .     A
C872   Cl922   1.773   .     S
C873   Cl917   1.771   .     S
C874   Cl918   1.771   .     S
C874   C340    1.405   1_556 S
C875   Cl923   1.764   .     S
C875   C880    1.402   .     A
C876   Cl924   1.765   .     S
C876   C879    1.402   .     A
C876   C1064   1.390   .     S
C877   F925    1.359   .     S
C877   C1061   1.390   .     S
C877   C755    1.399   1_655 S
C878   F926    1.359   .     S
C880   C754    1.399   1_655 S
C881   Cl927   1.759   .     S
C881   C883    1.422   .     A
C881   N908    1.374   .     A
C882   C884    1.422   .     A
C882   Cl928   1.759   .     S
C882   N907    1.374   .     A
C883   N907    1.372   .     A
C883   Cl929   1.763   .     S
C884   N908    1.372   .     A
C884   Cl930   1.763   .     S
C885   C887    1.473   .     S
C885   O915    1.300   .     A
C885   O789    1.307   1_655 S
C886   O916    1.300   .     A
C886   C888    1.473   .     S
C887   C891    1.400   .     A
C887   C893    1.406   .     A
C888   C894    1.406   .     A
C888   C892    1.400   .     A
C889   C891    1.394   .     A
C889   H905    1.082   .     S
C889   C897    1.409   .     A
C890   C892    1.394   .     A
C890   C898    1.409   .     A
C890   H906    1.082   .     S
C891   H780    1.083   1_655 S
C893   F920    1.359   .     S
C893   C895    1.404   .     A
C894   C896    1.404   .     A
C894   F919    1.359   .     S
C895   C897    1.416   .     A
C895   C899    1.421   .     A
C896   C898    1.416   .     A
C896   C900    1.421   .     A
C897   C315    1.405   1_556 S
C899   C342    1.415   1_556 S
Cu901  O913    1.963   .     S
Cu901  O909    1.946   .     S
Cu901  O916    1.955   .     S
Cu901  N907    2.029   .     S
Cu901  O912    1.947   .     S
Cu902  O914    1.963   .     S
Cu902  O910    1.946   .     S
Cu902  N908    2.029   .     S
Cu902  O915    1.955   .     S
Cu902  O911    1.947   .     S
Cu902  Cu777   2.700   1_655 S
H903   C768    1.083   1_655 S
O910   C746    1.293   1_655 S
O914   C762    1.307   1_655 S
C931   O973    1.294   .     A
C931   C942    1.436   .     S
C931   O1033   1.293   .     S
C932   C941    1.436   .     S
C932   O974    1.294   .     A
C932   O1096   1.293   1_455 S
C933   C935    1.403   .     A
C933   Cl983   1.773   .     S
C933   C962    1.422   .     A
C934   C936    1.403   .     A
C934   C961    1.422   .     A
C934   Cl984   1.773   .     S
C935   Cl979   1.771   .     S
C936   Cl980   1.771   .     S
C936   C402    1.405   1_556 S
C937   Cl985   1.764   .     S
C937   C942    1.402   .     A
C938   Cl986   1.765   .     S
C938   C941    1.402   .     A
C938   C568    1.390   1_565 S
C939   F987    1.359   .     S
C939   C565    1.390   1_565 S
C939   C1003   1.399   .     S
C940   F988    1.359   .     S
C940   C1066   1.399   1_455 S
C941   C1063   1.399   1_455 S
C942   C1002   1.399   .     S
C943   Cl989   1.759   .     S
C943   C945    1.422   .     A
C943   N970    1.374   .     A
C944   C946    1.422   .     A
C944   Cl990   1.759   .     S
C944   N969    1.374   .     A
C945   N969    1.372   .     A
C945   Cl991   1.763   .     S
C946   N970    1.372   .     A
C946   Cl992   1.763   .     S
C947   C949    1.473   .     S
C947   O977    1.300   .     A
C947   O1037   1.307   .     S
C948   O978    1.300   .     A
C948   C950    1.473   .     S
C948   O1100   1.307   1_455 S
C949   C953    1.400   .     A
C949   C955    1.406   .     A
C950   C956    1.406   .     A
C950   C954    1.400   .     A
C951   C953    1.394   .     A
C951   H967    1.082   .     S
C951   C959    1.409   .     A
C952   C954    1.394   .     A
C952   C960    1.409   .     A
C952   H968    1.082   .     S
C953   H1028   1.083   .     S
C954   H1089   1.083   1_455 S
C955   F982    1.359   .     S
C955   C957    1.404   .     A
C956   C958    1.404   .     A
C956   F981    1.359   .     S
C957   C959    1.416   .     A
C957   C961    1.421   .     A
C958   C960    1.416   .     A
C958   C962    1.421   .     A
C959   C377    1.405   1_556 S
C961   C404    1.415   1_556 S
Cu963  O975    1.963   .     S
Cu963  O971    1.946   .     S
Cu963  O978    1.955   .     S
Cu963  N969    2.029   .     S
Cu963  O974    1.947   .     S
Cu963  Cu1088  2.700   1_455 S
Cu964  O976    1.963   .     S
Cu964  O972    1.946   .     S
Cu964  N970    2.029   .     S
Cu964  O977    1.955   .     S
Cu964  O973    1.947   .     S
Cu964  Cu1025  2.700   .     S
H965   C1016   1.083   .     S
H966   C1077   1.083   1_455 S
O971   C1055   1.293   1_455 S
O972   C994    1.293   .     S
O975   C1071   1.307   1_455 S
O976   C1010   1.307   .     S
C993   O1035   1.294   .     A
C993   C1004   1.436   .     S
C993   O1095   1.293   .     S
C994   C1003   1.436   .     S
C994   O1036   1.294   .     A
C995   C997    1.403   .     A
C995   Cl1045  1.773   .     S
C995   C1024   1.422   .     A
C996   C998    1.403   .     A
C996   C1023   1.422   .     A
C996   Cl1046  1.773   .     S
C997   Cl1041  1.771   .     S
C998   Cl1042  1.771   .     S
C998   C464    1.405   1_556 S
C999   Cl1047  1.764   .     S
C999   C1004   1.402   .     A
C1000  Cl1048  1.765   .     S
C1000  C1003   1.402   .     A
C1000  C630    1.390   1_565 S
C1001  F1049   1.359   .     S
C1001  C627    1.390   1_565 S
C1001  C1065   1.399   .     S
C1002  F1050   1.359   .     S
C1004  C1064   1.399   .     S
C1005  Cl1051  1.759   .     S
C1005  C1007   1.422   .     A
C1005  N1032   1.374   .     A
C1006  C1008   1.422   .     A
C1006  Cl1052  1.759   .     S
C1006  N1031   1.374   .     A
C1007  N1031   1.372   .     A
C1007  Cl1053  1.763   .     S
C1008  N1032   1.372   .     A
C1008  Cl1054  1.763   .     S
C1009  C1011   1.473   .     S
C1009  O1039   1.300   .     A
C1009  O1099   1.307   .     S
C1010  O1040   1.300   .     A
C1010  C1012   1.473   .     S
C1011  C1015   1.400   .     A
C1011  C1017   1.406   .     A
C1012  C1018   1.406   .     A
C1012  C1016   1.400   .     A
C1013  C1015   1.394   .     A
C1013  H1029   1.082   .     S
C1013  C1021   1.409   .     A
C1014  C1016   1.394   .     A
C1014  C1022   1.409   .     A
C1014  H1030   1.082   .     S
C1015  H1090   1.083   .     S
C1017  F1044   1.359   .     S
C1017  C1019   1.404   .     A
C1018  C1020   1.404   .     A
C1018  F1043   1.359   .     S
C1019  C1021   1.416   .     A
C1019  C1023   1.421   .     A
C1020  C1022   1.416   .     A
C1020  C1024   1.421   .     A
C1021  C439    1.405   1_556 S
C1023  C466    1.415   1_556 S
Cu1025 O1037   1.963   .     S
Cu1025 O1033   1.946   .     S
Cu1025 O1040   1.955   .     S
Cu1025 N1031   2.029   .     S
Cu1025 O1036   1.947   .     S
Cu1026 O1038   1.963   .     S
Cu1026 O1034   1.946   .     S
Cu1026 N1032   2.029   .     S
Cu1026 O1039   1.955   .     S
Cu1026 O1035   1.947   .     S
Cu1026 Cu1087  2.700   .     S
H1027  C1078   1.083   .     S
O1034  C1056   1.293   .     S
O1038  C1072   1.307   .     S
C1055  O1097   1.294   .     A
C1055  C1066   1.436   .     S
C1055  O971    1.293   1_655 S
C1056  C1065   1.436   .     S
C1056  O1098   1.294   .     A
C1057  C1059   1.403   .     A
C1057  Cl1107  1.773   .     S
C1057  C1086   1.422   .     A
C1058  C1060   1.403   .     A
C1058  C1085   1.422   .     A
C1058  Cl1108  1.773   .     S
C1059  Cl1103  1.771   .     S
C1060  Cl1104  1.771   .     S
C1060  C526    1.405   1_556 S
C1061  Cl1109  1.764   .     S
C1061  C1066   1.402   .     A
C1062  Cl1110  1.765   .     S
C1062  C1065   1.402   .     A
C1062  C692    1.390   1_565 S
C1063  F1111   1.359   .     S
C1063  C689    1.390   1_565 S
C1063  C941    1.399   1_655 S
C1064  F1112   1.359   .     S
C1066  C940    1.399   1_655 S
C1067  Cl1113  1.759   .     S
C1067  C1069   1.422   .     A
C1067  N1094   1.374   .     A
C1068  C1070   1.422   .     A
C1068  Cl1114  1.759   .     S
C1068  N1093   1.374   .     A
C1069  N1093   1.372   .     A
C1069  Cl1115  1.763   .     S
C1070  N1094   1.372   .     A
C1070  Cl1116  1.763   .     S
C1071  C1073   1.473   .     S
C1071  O1101   1.300   .     A
C1071  O975    1.307   1_655 S
C1072  O1102   1.300   .     A
C1072  C1074   1.473   .     S
C1073  C1077   1.400   .     A
C1073  C1079   1.406   .     A
C1074  C1080   1.406   .     A
C1074  C1078   1.400   .     A
C1075  C1077   1.394   .     A
C1075  H1091   1.082   .     S
C1075  C1083   1.409   .     A
C1076  C1078   1.394   .     A
C1076  C1084   1.409   .     A
C1076  H1092   1.082   .     S
C1077  H966    1.083   1_655 S
C1079  F1106   1.359   .     S
C1079  C1081   1.404   .     A
C1080  C1082   1.404   .     A
C1080  F1105   1.359   .     S
C1081  C1083   1.416   .     A
C1081  C1085   1.421   .     A
C1082  C1084   1.416   .     A
C1082  C1086   1.421   .     A
C1083  C501    1.405   1_556 S
C1085  C528    1.415   1_556 S
Cu1087 O1099   1.963   .     S
Cu1087 O1095   1.946   .     S
Cu1087 O1102   1.955   .     S
Cu1087 N1093   2.029   .     S
Cu1087 O1098   1.947   .     S
Cu1088 O1100   1.963   .     S
Cu1088 O1096   1.946   .     S
Cu1088 N1094   2.029   .     S
Cu1088 O1101   1.955   .     S
Cu1088 O1097   1.947   .     S
Cu1088 Cu963   2.700   1_655 S
H1089  C954    1.083   1_655 S
O1096  C932    1.293   1_655 S
O1100  C948    1.307   1_655 S
