data_str_m3_o2_o10_pcu_sym.43
_audit_creation_date              2020-01-03
_audit_creation_method            'Materials Studio'
_symmetry_space_group_name_H-M    'P1'
_symmetry_Int_Tables_number       1
_symmetry_cell_setting            triclinic
loop_
_symmetry_equiv_pos_as_xyz
  x,y,z
_cell_length_a                    25.9166
_cell_length_b                    29.8979
_cell_length_c                    28.3126
_cell_angle_alpha                 90.0168
_cell_angle_beta                  98.1354
_cell_angle_gamma                 90.0478
loop_
_atom_site_label
_atom_site_type_symbol
_atom_site_fract_x
_atom_site_fract_y
_atom_site_fract_z
_atom_site_U_iso_or_equiv
_atom_site_adp_type
_atom_site_occupancy
C1     C     0.16716   0.16404   0.25007   0.00000  Uiso   1.00
C2     C     0.13469   0.21896   0.44312   0.00000  Uiso   1.00
C3     C     0.16759   0.24949   0.02675   0.00000  Uiso   1.00
C4     C     0.16604   0.24942   0.47332   0.00000  Uiso   1.00
C5     C     0.06720   0.25101   0.23783   0.00000  Uiso   1.00
C6     C     0.26611   0.24898   0.26215   0.00000  Uiso   1.00
C7     C     0.01273   0.25770   0.23249   0.00000  Uiso   1.00
C8     C     0.32053   0.24217   0.26736   0.00000  Uiso   1.00
C9     C     0.12679   0.04671   0.26420   0.00000  Uiso   1.00
C10    C     0.13111   0.45349   0.21781   0.00000  Uiso   1.00
C11    C     0.12662   0.09322   0.26511   0.00000  Uiso   1.00
C12    C     0.16665   0.33606   0.25000   0.00000  Uiso   1.00
C13    C     0.13022   0.40697   0.21775   0.00000  Uiso   1.00
C14    C     0.16878   0.11624   0.25033   0.00000  Uiso   1.00
C15    C     0.16709   0.38403   0.25000   0.00000  Uiso   1.00
C16    C     0.21127   0.09333   0.23505   0.00000  Uiso   1.00
C17    C     0.20459   0.40666   0.28204   0.00000  Uiso   1.00
C18    C     0.21027   0.04705   0.23410   0.00000  Uiso   1.00
C19    C     0.20499   0.45332   0.28144   0.00000  Uiso   1.00
C20    C     0.16844   0.02414   0.24892   0.00000  Uiso   1.00
C21    C     0.16838   0.47612   0.24929   0.00000  Uiso   1.00
C22    C     0.13391   0.27778   0.04779   0.00000  Uiso   1.00
C23    C     0.19727   0.27970   0.45192   0.00000  Uiso   1.00
C24    C     0.13404   0.27751   0.09753   0.00000  Uiso   1.00
C25    C     0.19709   0.27941   0.40217   0.00000  Uiso   1.00
C26    C     0.19991   0.22225   0.10694   0.00000  Uiso   1.00
C27    C     0.13603   0.22015   0.39346   0.00000  Uiso   1.00
C28    C     0.20143   0.22114   0.05731   0.00000  Uiso   1.00
F29    F     0.25035   0.02428   0.21914   0.00000  Uiso   1.00
F30    F     0.24030   0.47663   0.31208   0.00000  Uiso   1.00
F31    F     0.10072   0.30536   0.02018   0.00000  Uiso   1.00
F32    F     0.22821   0.30923   0.47921   0.00000  Uiso   1.00
F33    F     0.10120   0.30489   0.11710   0.00000  Uiso   1.00
F34    F     0.22787   0.30852   0.38233   0.00000  Uiso   1.00
F35    F     0.23212   0.19518   0.13605   0.00000  Uiso   1.00
F36    F     0.10649   0.19082   0.36480   0.00000  Uiso   1.00
H37    H     0.09483   0.02802   0.27552   0.00000  Uiso   1.00
H38    H     0.10446   0.19050   0.49500   0.00000  Uiso   1.00
H39    H     0.10302   0.47214   0.19344   0.00000  Uiso   1.00
H40    H     0.01438   0.29485   0.17562   0.00000  Uiso   1.00
H41    H     0.31880   0.20479   0.32405   0.00000  Uiso   1.00
H42    H     0.05934   0.09553   0.28824   0.00000  Uiso   1.00
H43    H     0.07058   0.40461   0.16750   0.00000  Uiso   1.00
H44    H     0.25507   0.14622   0.23113   0.00000  Uiso   1.00
H45    H     0.26435   0.40301   0.33237   0.00000  Uiso   1.00
H46    H     0.23413   0.19475   0.00577   0.00000  Uiso   1.00
N47    N     0.16667   0.24999   0.12623   0.00000  Uiso   1.00
N48    N     0.16667   0.25001   0.37376   0.00000  Uiso   1.00
O49    O     0.16667   0.18453   0.28974   0.00000  Uiso   1.00
O50    O     0.01166   0.21627   0.30472   0.00000  Uiso   1.00
O51    O     0.08565   0.11689   0.27937   0.00000  Uiso   1.00
O52    O     0.09340   0.38329   0.18752   0.00000  Uiso   1.00
O53    O     0.25442   0.11440   0.22154   0.00000  Uiso   1.00
O54    O     0.24063   0.38233   0.31239   0.00000  Uiso   1.00
O55    O     0.23620   0.19200   0.04079   0.00000  Uiso   1.00
O56    O     0.10258   0.18764   0.46001   0.00000  Uiso   1.00
O57    O     0.16666   0.31547   0.21026   0.00000  Uiso   1.00
O58    O     0.16667   0.18453   0.21026   0.00000  Uiso   1.00
O59    O     0.16666   0.31547   0.28974   0.00000  Uiso   1.00
O60    O     0.09058   0.25000   0.28044   0.00000  Uiso   1.00
O61    O     0.24275   0.25000   0.21955   0.00000  Uiso   1.00
O62    O     0.09058   0.25000   0.20096   0.00000  Uiso   1.00
O63    O     0.24275   0.25000   0.29903   0.00000  Uiso   1.00
O64    O     0.32153   0.28339   0.19496   0.00000  Uiso   1.00
Zn65   Zn    0.16667   0.25001   0.30307   0.00000  Uiso   1.00
Zn66   Zn    0.16667   0.25000   0.19693   0.00000  Uiso   1.00
C67    C     0.50050   0.16404   0.25007   0.00000  Uiso   1.00
C68    C     0.46802   0.21896   0.44312   0.00000  Uiso   1.00
C69    C     0.50092   0.24949   0.02675   0.00000  Uiso   1.00
C70    C     0.49938   0.24942   0.47332   0.00000  Uiso   1.00
C71    C     0.40054   0.25101   0.23783   0.00000  Uiso   1.00
C72    C     0.59945   0.24898   0.26215   0.00000  Uiso   1.00
C73    C     0.34607   0.25770   0.23249   0.00000  Uiso   1.00
C74    C     0.65387   0.24217   0.26736   0.00000  Uiso   1.00
C75    C     0.46012   0.04671   0.26420   0.00000  Uiso   1.00
C76    C     0.46444   0.45349   0.21781   0.00000  Uiso   1.00
C77    C     0.45995   0.09322   0.26511   0.00000  Uiso   1.00
C78    C     0.49999   0.33606   0.25000   0.00000  Uiso   1.00
C79    C     0.46355   0.40697   0.21775   0.00000  Uiso   1.00
C80    C     0.50211   0.11624   0.25033   0.00000  Uiso   1.00
C81    C     0.50042   0.38403   0.25000   0.00000  Uiso   1.00
C82    C     0.54460   0.09333   0.23505   0.00000  Uiso   1.00
C83    C     0.53793   0.40666   0.28204   0.00000  Uiso   1.00
C84    C     0.54360   0.04705   0.23410   0.00000  Uiso   1.00
C85    C     0.53832   0.45332   0.28144   0.00000  Uiso   1.00
C86    C     0.50177   0.02414   0.24892   0.00000  Uiso   1.00
C87    C     0.50172   0.47612   0.24929   0.00000  Uiso   1.00
C88    C     0.46725   0.27778   0.04779   0.00000  Uiso   1.00
C89    C     0.53060   0.27970   0.45192   0.00000  Uiso   1.00
C90    C     0.46738   0.27751   0.09753   0.00000  Uiso   1.00
C91    C     0.53043   0.27941   0.40217   0.00000  Uiso   1.00
C92    C     0.53325   0.22225   0.10694   0.00000  Uiso   1.00
C93    C     0.46936   0.22015   0.39346   0.00000  Uiso   1.00
C94    C     0.53476   0.22114   0.05731   0.00000  Uiso   1.00
F95    F     0.58368   0.02428   0.21914   0.00000  Uiso   1.00
F96    F     0.57363   0.47663   0.31208   0.00000  Uiso   1.00
F97    F     0.43405   0.30536   0.02018   0.00000  Uiso   1.00
F98    F     0.56154   0.30923   0.47921   0.00000  Uiso   1.00
F99    F     0.43453   0.30489   0.11710   0.00000  Uiso   1.00
F100   F     0.56120   0.30852   0.38233   0.00000  Uiso   1.00
F101   F     0.56546   0.19518   0.13605   0.00000  Uiso   1.00
F102   F     0.43982   0.19082   0.36480   0.00000  Uiso   1.00
H103   H     0.42816   0.02802   0.27552   0.00000  Uiso   1.00
H104   H     0.43780   0.19050   0.49500   0.00000  Uiso   1.00
H105   H     0.43635   0.47214   0.19344   0.00000  Uiso   1.00
H106   H     0.34772   0.29485   0.17562   0.00000  Uiso   1.00
H107   H     0.65213   0.20479   0.32405   0.00000  Uiso   1.00
H108   H     0.39267   0.09553   0.28824   0.00000  Uiso   1.00
H109   H     0.40391   0.40461   0.16750   0.00000  Uiso   1.00
H110   H     0.58840   0.14622   0.23113   0.00000  Uiso   1.00
H111   H     0.59768   0.40301   0.33237   0.00000  Uiso   1.00
H112   H     0.56746   0.19475   0.00577   0.00000  Uiso   1.00
N113   N     0.50000   0.24999   0.12623   0.00000  Uiso   1.00
N114   N     0.50000   0.25001   0.37376   0.00000  Uiso   1.00
O115   O     0.50000   0.18453   0.28974   0.00000  Uiso   1.00
O116   O     0.34499   0.21627   0.30472   0.00000  Uiso   1.00
O117   O     0.41898   0.11689   0.27937   0.00000  Uiso   1.00
O118   O     0.42674   0.38329   0.18752   0.00000  Uiso   1.00
O119   O     0.58775   0.11440   0.22154   0.00000  Uiso   1.00
O120   O     0.57396   0.38233   0.31239   0.00000  Uiso   1.00
O121   O     0.56953   0.19200   0.04079   0.00000  Uiso   1.00
O122   O     0.43591   0.18764   0.46001   0.00000  Uiso   1.00
O123   O     0.50000   0.31547   0.21026   0.00000  Uiso   1.00
O124   O     0.50000   0.18453   0.21026   0.00000  Uiso   1.00
O125   O     0.50000   0.31547   0.28974   0.00000  Uiso   1.00
O126   O     0.42392   0.25000   0.28044   0.00000  Uiso   1.00
O127   O     0.57608   0.25000   0.21955   0.00000  Uiso   1.00
O128   O     0.42392   0.25000   0.20096   0.00000  Uiso   1.00
O129   O     0.57608   0.25000   0.29903   0.00000  Uiso   1.00
O130   O     0.65487   0.28339   0.19496   0.00000  Uiso   1.00
Zn131  Zn    0.50000   0.25001   0.30307   0.00000  Uiso   1.00
Zn132  Zn    0.50000   0.25000   0.19693   0.00000  Uiso   1.00
C133   C     0.83383   0.16404   0.25007   0.00000  Uiso   1.00
C134   C     0.80135   0.21896   0.44312   0.00000  Uiso   1.00
C135   C     0.83426   0.24949   0.02675   0.00000  Uiso   1.00
C136   C     0.83271   0.24942   0.47332   0.00000  Uiso   1.00
C137   C     0.73387   0.25101   0.23783   0.00000  Uiso   1.00
C138   C     0.93278   0.24898   0.26215   0.00000  Uiso   1.00
C139   C     0.67940   0.25770   0.23249   0.00000  Uiso   1.00
C140   C     0.98720   0.24217   0.26736   0.00000  Uiso   1.00
C141   C     0.79346   0.04671   0.26420   0.00000  Uiso   1.00
C142   C     0.79777   0.45349   0.21781   0.00000  Uiso   1.00
C143   C     0.79328   0.09322   0.26511   0.00000  Uiso   1.00
C144   C     0.83332   0.33606   0.25000   0.00000  Uiso   1.00
C145   C     0.79689   0.40697   0.21775   0.00000  Uiso   1.00
C146   C     0.83545   0.11624   0.25033   0.00000  Uiso   1.00
C147   C     0.83375   0.38403   0.25000   0.00000  Uiso   1.00
C148   C     0.87794   0.09333   0.23505   0.00000  Uiso   1.00
C149   C     0.87126   0.40666   0.28204   0.00000  Uiso   1.00
C150   C     0.87693   0.04705   0.23410   0.00000  Uiso   1.00
C151   C     0.87166   0.45332   0.28144   0.00000  Uiso   1.00
C152   C     0.83511   0.02414   0.24892   0.00000  Uiso   1.00
C153   C     0.83505   0.47612   0.24929   0.00000  Uiso   1.00
C154   C     0.80058   0.27778   0.04779   0.00000  Uiso   1.00
C155   C     0.86394   0.27970   0.45192   0.00000  Uiso   1.00
C156   C     0.80071   0.27751   0.09753   0.00000  Uiso   1.00
C157   C     0.86376   0.27941   0.40217   0.00000  Uiso   1.00
C158   C     0.86658   0.22225   0.10694   0.00000  Uiso   1.00
C159   C     0.80270   0.22015   0.39346   0.00000  Uiso   1.00
C160   C     0.86810   0.22114   0.05731   0.00000  Uiso   1.00
F161   F     0.91702   0.02428   0.21914   0.00000  Uiso   1.00
F162   F     0.90697   0.47663   0.31208   0.00000  Uiso   1.00
F163   F     0.76738   0.30536   0.02018   0.00000  Uiso   1.00
F164   F     0.89487   0.30923   0.47921   0.00000  Uiso   1.00
F165   F     0.76786   0.30489   0.11710   0.00000  Uiso   1.00
F166   F     0.89453   0.30852   0.38233   0.00000  Uiso   1.00
F167   F     0.89879   0.19518   0.13605   0.00000  Uiso   1.00
F168   F     0.77316   0.19082   0.36480   0.00000  Uiso   1.00
H169   H     0.76149   0.02802   0.27552   0.00000  Uiso   1.00
H170   H     0.77113   0.19050   0.49500   0.00000  Uiso   1.00
H171   H     0.76968   0.47214   0.19344   0.00000  Uiso   1.00
H172   H     0.68105   0.29485   0.17562   0.00000  Uiso   1.00
H173   H     0.98547   0.20479   0.32405   0.00000  Uiso   1.00
H174   H     0.72600   0.09553   0.28824   0.00000  Uiso   1.00
H175   H     0.73724   0.40461   0.16750   0.00000  Uiso   1.00
H176   H     0.92173   0.14622   0.23113   0.00000  Uiso   1.00
H177   H     0.93102   0.40301   0.33237   0.00000  Uiso   1.00
H178   H     0.90080   0.19475   0.00577   0.00000  Uiso   1.00
N179   N     0.83333   0.24999   0.12623   0.00000  Uiso   1.00
N180   N     0.83333   0.25001   0.37376   0.00000  Uiso   1.00
O181   O     0.83334   0.18453   0.28974   0.00000  Uiso   1.00
O182   O     0.67832   0.21627   0.30472   0.00000  Uiso   1.00
O183   O     0.75232   0.11689   0.27937   0.00000  Uiso   1.00
O184   O     0.76007   0.38329   0.18752   0.00000  Uiso   1.00
O185   O     0.92108   0.11440   0.22154   0.00000  Uiso   1.00
O186   O     0.90730   0.38233   0.31239   0.00000  Uiso   1.00
O187   O     0.90286   0.19200   0.04079   0.00000  Uiso   1.00
O188   O     0.76924   0.18764   0.46001   0.00000  Uiso   1.00
O189   O     0.83333   0.31547   0.21026   0.00000  Uiso   1.00
O190   O     0.83334   0.18453   0.21026   0.00000  Uiso   1.00
O191   O     0.83333   0.31547   0.28974   0.00000  Uiso   1.00
O192   O     0.75725   0.25000   0.28044   0.00000  Uiso   1.00
O193   O     0.90942   0.25000   0.21955   0.00000  Uiso   1.00
O194   O     0.75725   0.25000   0.20096   0.00000  Uiso   1.00
O195   O     0.90942   0.25000   0.29903   0.00000  Uiso   1.00
O196   O     0.98820   0.28339   0.19496   0.00000  Uiso   1.00
Zn197  Zn    0.83333   0.25001   0.30307   0.00000  Uiso   1.00
Zn198  Zn    0.83333   0.25000   0.19693   0.00000  Uiso   1.00
C199   C     0.16716   0.66404   0.25007   0.00000  Uiso   1.00
C200   C     0.13469   0.71896   0.44312   0.00000  Uiso   1.00
C201   C     0.16759   0.74949   0.02675   0.00000  Uiso   1.00
C202   C     0.16604   0.74942   0.47332   0.00000  Uiso   1.00
C203   C     0.06720   0.75101   0.23783   0.00000  Uiso   1.00
C204   C     0.26611   0.74898   0.26215   0.00000  Uiso   1.00
C205   C     0.01273   0.75770   0.23249   0.00000  Uiso   1.00
C206   C     0.32053   0.74217   0.26736   0.00000  Uiso   1.00
C207   C     0.12679   0.54671   0.26420   0.00000  Uiso   1.00
C208   C     0.13111   0.95349   0.21781   0.00000  Uiso   1.00
C209   C     0.12662   0.59322   0.26511   0.00000  Uiso   1.00
C210   C     0.16665   0.83606   0.25000   0.00000  Uiso   1.00
C211   C     0.13022   0.90697   0.21775   0.00000  Uiso   1.00
C212   C     0.16878   0.61624   0.25033   0.00000  Uiso   1.00
C213   C     0.16709   0.88403   0.25000   0.00000  Uiso   1.00
C214   C     0.21127   0.59333   0.23505   0.00000  Uiso   1.00
C215   C     0.20459   0.90666   0.28204   0.00000  Uiso   1.00
C216   C     0.21027   0.54705   0.23410   0.00000  Uiso   1.00
C217   C     0.20499   0.95332   0.28144   0.00000  Uiso   1.00
C218   C     0.16844   0.52414   0.24892   0.00000  Uiso   1.00
C219   C     0.16838   0.97612   0.24929   0.00000  Uiso   1.00
C220   C     0.13391   0.77778   0.04779   0.00000  Uiso   1.00
C221   C     0.19727   0.77970   0.45192   0.00000  Uiso   1.00
C222   C     0.13404   0.77751   0.09753   0.00000  Uiso   1.00
C223   C     0.19709   0.77941   0.40217   0.00000  Uiso   1.00
C224   C     0.19991   0.72225   0.10694   0.00000  Uiso   1.00
C225   C     0.13603   0.72015   0.39346   0.00000  Uiso   1.00
C226   C     0.20143   0.72114   0.05731   0.00000  Uiso   1.00
F227   F     0.25035   0.52428   0.21914   0.00000  Uiso   1.00
F228   F     0.24030   0.97663   0.31208   0.00000  Uiso   1.00
F229   F     0.10072   0.80536   0.02018   0.00000  Uiso   1.00
F230   F     0.22821   0.80923   0.47921   0.00000  Uiso   1.00
F231   F     0.10120   0.80489   0.11710   0.00000  Uiso   1.00
F232   F     0.22787   0.80852   0.38233   0.00000  Uiso   1.00
F233   F     0.23212   0.69518   0.13605   0.00000  Uiso   1.00
F234   F     0.10649   0.69082   0.36480   0.00000  Uiso   1.00
H235   H     0.09483   0.52802   0.27552   0.00000  Uiso   1.00
H236   H     0.10446   0.69050   0.49500   0.00000  Uiso   1.00
H237   H     0.10302   0.97214   0.19344   0.00000  Uiso   1.00
H238   H     0.01438   0.79485   0.17562   0.00000  Uiso   1.00
H239   H     0.31880   0.70479   0.32405   0.00000  Uiso   1.00
H240   H     0.05934   0.59553   0.28824   0.00000  Uiso   1.00
H241   H     0.07058   0.90461   0.16750   0.00000  Uiso   1.00
H242   H     0.25507   0.64622   0.23113   0.00000  Uiso   1.00
H243   H     0.26435   0.90301   0.33237   0.00000  Uiso   1.00
H244   H     0.23413   0.69475   0.00577   0.00000  Uiso   1.00
N245   N     0.16667   0.74999   0.12623   0.00000  Uiso   1.00
N246   N     0.16667   0.75001   0.37376   0.00000  Uiso   1.00
O247   O     0.16667   0.68453   0.28974   0.00000  Uiso   1.00
O248   O     0.01166   0.71627   0.30472   0.00000  Uiso   1.00
O249   O     0.08565   0.61689   0.27937   0.00000  Uiso   1.00
O250   O     0.09340   0.88329   0.18752   0.00000  Uiso   1.00
O251   O     0.25442   0.61440   0.22154   0.00000  Uiso   1.00
O252   O     0.24063   0.88233   0.31239   0.00000  Uiso   1.00
O253   O     0.23620   0.69200   0.04079   0.00000  Uiso   1.00
O254   O     0.10258   0.68764   0.46001   0.00000  Uiso   1.00
O255   O     0.16666   0.81547   0.21026   0.00000  Uiso   1.00
O256   O     0.16667   0.68453   0.21026   0.00000  Uiso   1.00
O257   O     0.16666   0.81547   0.28974   0.00000  Uiso   1.00
O258   O     0.09058   0.75000   0.28044   0.00000  Uiso   1.00
O259   O     0.24275   0.75000   0.21955   0.00000  Uiso   1.00
O260   O     0.09058   0.75000   0.20096   0.00000  Uiso   1.00
O261   O     0.24275   0.75000   0.29903   0.00000  Uiso   1.00
O262   O     0.32153   0.78339   0.19496   0.00000  Uiso   1.00
Zn263  Zn    0.16667   0.75001   0.30307   0.00000  Uiso   1.00
Zn264  Zn    0.16667   0.75000   0.19693   0.00000  Uiso   1.00
C265   C     0.50050   0.66404   0.25007   0.00000  Uiso   1.00
C266   C     0.46802   0.71896   0.44312   0.00000  Uiso   1.00
C267   C     0.50092   0.74949   0.02675   0.00000  Uiso   1.00
C268   C     0.49938   0.74942   0.47332   0.00000  Uiso   1.00
C269   C     0.40054   0.75101   0.23783   0.00000  Uiso   1.00
C270   C     0.59945   0.74898   0.26215   0.00000  Uiso   1.00
C271   C     0.34607   0.75770   0.23249   0.00000  Uiso   1.00
C272   C     0.65387   0.74217   0.26736   0.00000  Uiso   1.00
C273   C     0.46012   0.54671   0.26420   0.00000  Uiso   1.00
C274   C     0.46444   0.95349   0.21781   0.00000  Uiso   1.00
C275   C     0.45995   0.59322   0.26511   0.00000  Uiso   1.00
C276   C     0.49999   0.83606   0.25000   0.00000  Uiso   1.00
C277   C     0.46355   0.90697   0.21775   0.00000  Uiso   1.00
C278   C     0.50211   0.61624   0.25033   0.00000  Uiso   1.00
C279   C     0.50042   0.88403   0.25000   0.00000  Uiso   1.00
C280   C     0.54460   0.59333   0.23505   0.00000  Uiso   1.00
C281   C     0.53793   0.90666   0.28204   0.00000  Uiso   1.00
C282   C     0.54360   0.54705   0.23410   0.00000  Uiso   1.00
C283   C     0.53832   0.95332   0.28144   0.00000  Uiso   1.00
C284   C     0.50177   0.52414   0.24892   0.00000  Uiso   1.00
C285   C     0.50172   0.97612   0.24929   0.00000  Uiso   1.00
C286   C     0.46725   0.77778   0.04779   0.00000  Uiso   1.00
C287   C     0.53060   0.77970   0.45192   0.00000  Uiso   1.00
C288   C     0.46738   0.77751   0.09753   0.00000  Uiso   1.00
C289   C     0.53043   0.77941   0.40217   0.00000  Uiso   1.00
C290   C     0.53325   0.72225   0.10694   0.00000  Uiso   1.00
C291   C     0.46936   0.72015   0.39346   0.00000  Uiso   1.00
C292   C     0.53476   0.72114   0.05731   0.00000  Uiso   1.00
F293   F     0.58368   0.52428   0.21914   0.00000  Uiso   1.00
F294   F     0.57363   0.97663   0.31208   0.00000  Uiso   1.00
F295   F     0.43405   0.80536   0.02018   0.00000  Uiso   1.00
F296   F     0.56154   0.80923   0.47921   0.00000  Uiso   1.00
F297   F     0.43453   0.80489   0.11710   0.00000  Uiso   1.00
F298   F     0.56120   0.80852   0.38233   0.00000  Uiso   1.00
F299   F     0.56546   0.69518   0.13605   0.00000  Uiso   1.00
F300   F     0.43982   0.69082   0.36480   0.00000  Uiso   1.00
H301   H     0.42816   0.52802   0.27552   0.00000  Uiso   1.00
H302   H     0.43780   0.69050   0.49500   0.00000  Uiso   1.00
H303   H     0.43635   0.97214   0.19344   0.00000  Uiso   1.00
H304   H     0.34772   0.79485   0.17562   0.00000  Uiso   1.00
H305   H     0.65213   0.70479   0.32405   0.00000  Uiso   1.00
H306   H     0.39267   0.59553   0.28824   0.00000  Uiso   1.00
H307   H     0.40391   0.90461   0.16750   0.00000  Uiso   1.00
H308   H     0.58840   0.64622   0.23113   0.00000  Uiso   1.00
H309   H     0.59768   0.90301   0.33237   0.00000  Uiso   1.00
H310   H     0.56746   0.69475   0.00577   0.00000  Uiso   1.00
N311   N     0.50000   0.74999   0.12623   0.00000  Uiso   1.00
N312   N     0.50000   0.75001   0.37376   0.00000  Uiso   1.00
O313   O     0.50000   0.68453   0.28974   0.00000  Uiso   1.00
O314   O     0.34499   0.71627   0.30472   0.00000  Uiso   1.00
O315   O     0.41898   0.61689   0.27937   0.00000  Uiso   1.00
O316   O     0.42674   0.88329   0.18752   0.00000  Uiso   1.00
O317   O     0.58775   0.61440   0.22154   0.00000  Uiso   1.00
O318   O     0.57396   0.88233   0.31239   0.00000  Uiso   1.00
O319   O     0.56953   0.69200   0.04079   0.00000  Uiso   1.00
O320   O     0.43591   0.68764   0.46001   0.00000  Uiso   1.00
O321   O     0.50000   0.81547   0.21026   0.00000  Uiso   1.00
O322   O     0.50000   0.68453   0.21026   0.00000  Uiso   1.00
O323   O     0.50000   0.81547   0.28974   0.00000  Uiso   1.00
O324   O     0.42392   0.75000   0.28044   0.00000  Uiso   1.00
O325   O     0.57608   0.75000   0.21955   0.00000  Uiso   1.00
O326   O     0.42392   0.75000   0.20096   0.00000  Uiso   1.00
O327   O     0.57608   0.75000   0.29903   0.00000  Uiso   1.00
O328   O     0.65487   0.78339   0.19496   0.00000  Uiso   1.00
Zn329  Zn    0.50000   0.75001   0.30307   0.00000  Uiso   1.00
Zn330  Zn    0.50000   0.75000   0.19693   0.00000  Uiso   1.00
C331   C     0.83383   0.66404   0.25007   0.00000  Uiso   1.00
C332   C     0.80135   0.71896   0.44312   0.00000  Uiso   1.00
C333   C     0.83426   0.74949   0.02675   0.00000  Uiso   1.00
C334   C     0.83271   0.74942   0.47332   0.00000  Uiso   1.00
C335   C     0.73387   0.75101   0.23783   0.00000  Uiso   1.00
C336   C     0.93278   0.74898   0.26215   0.00000  Uiso   1.00
C337   C     0.67940   0.75770   0.23249   0.00000  Uiso   1.00
C338   C     0.98720   0.74217   0.26736   0.00000  Uiso   1.00
C339   C     0.79346   0.54671   0.26420   0.00000  Uiso   1.00
C340   C     0.79777   0.95349   0.21781   0.00000  Uiso   1.00
C341   C     0.79328   0.59322   0.26511   0.00000  Uiso   1.00
C342   C     0.83332   0.83606   0.25000   0.00000  Uiso   1.00
C343   C     0.79689   0.90697   0.21775   0.00000  Uiso   1.00
C344   C     0.83545   0.61624   0.25033   0.00000  Uiso   1.00
C345   C     0.83375   0.88403   0.25000   0.00000  Uiso   1.00
C346   C     0.87794   0.59333   0.23505   0.00000  Uiso   1.00
C347   C     0.87126   0.90666   0.28204   0.00000  Uiso   1.00
C348   C     0.87693   0.54705   0.23410   0.00000  Uiso   1.00
C349   C     0.87166   0.95332   0.28144   0.00000  Uiso   1.00
C350   C     0.83511   0.52414   0.24892   0.00000  Uiso   1.00
C351   C     0.83505   0.97612   0.24929   0.00000  Uiso   1.00
C352   C     0.80058   0.77778   0.04779   0.00000  Uiso   1.00
C353   C     0.86394   0.77970   0.45192   0.00000  Uiso   1.00
C354   C     0.80071   0.77751   0.09753   0.00000  Uiso   1.00
C355   C     0.86376   0.77941   0.40217   0.00000  Uiso   1.00
C356   C     0.86658   0.72225   0.10694   0.00000  Uiso   1.00
C357   C     0.80270   0.72015   0.39346   0.00000  Uiso   1.00
C358   C     0.86810   0.72114   0.05731   0.00000  Uiso   1.00
F359   F     0.91702   0.52428   0.21914   0.00000  Uiso   1.00
F360   F     0.90697   0.97663   0.31208   0.00000  Uiso   1.00
F361   F     0.76738   0.80536   0.02018   0.00000  Uiso   1.00
F362   F     0.89487   0.80923   0.47921   0.00000  Uiso   1.00
F363   F     0.76786   0.80489   0.11710   0.00000  Uiso   1.00
F364   F     0.89453   0.80852   0.38233   0.00000  Uiso   1.00
F365   F     0.89879   0.69518   0.13605   0.00000  Uiso   1.00
F366   F     0.77316   0.69082   0.36480   0.00000  Uiso   1.00
H367   H     0.76149   0.52802   0.27552   0.00000  Uiso   1.00
H368   H     0.77113   0.69050   0.49500   0.00000  Uiso   1.00
H369   H     0.76968   0.97214   0.19344   0.00000  Uiso   1.00
H370   H     0.68105   0.79485   0.17562   0.00000  Uiso   1.00
H371   H     0.98547   0.70479   0.32405   0.00000  Uiso   1.00
H372   H     0.72600   0.59553   0.28824   0.00000  Uiso   1.00
H373   H     0.73724   0.90461   0.16750   0.00000  Uiso   1.00
H374   H     0.92173   0.64622   0.23113   0.00000  Uiso   1.00
H375   H     0.93102   0.90301   0.33237   0.00000  Uiso   1.00
H376   H     0.90080   0.69475   0.00577   0.00000  Uiso   1.00
N377   N     0.83333   0.74999   0.12623   0.00000  Uiso   1.00
N378   N     0.83333   0.75001   0.37376   0.00000  Uiso   1.00
O379   O     0.83334   0.68453   0.28974   0.00000  Uiso   1.00
O380   O     0.67832   0.71627   0.30472   0.00000  Uiso   1.00
O381   O     0.75232   0.61689   0.27937   0.00000  Uiso   1.00
O382   O     0.76007   0.88329   0.18752   0.00000  Uiso   1.00
O383   O     0.92108   0.61440   0.22154   0.00000  Uiso   1.00
O384   O     0.90730   0.88233   0.31239   0.00000  Uiso   1.00
O385   O     0.90286   0.69200   0.04079   0.00000  Uiso   1.00
O386   O     0.76924   0.68764   0.46001   0.00000  Uiso   1.00
O387   O     0.83333   0.81547   0.21026   0.00000  Uiso   1.00
O388   O     0.83334   0.68453   0.21026   0.00000  Uiso   1.00
O389   O     0.83333   0.81547   0.28974   0.00000  Uiso   1.00
O390   O     0.75725   0.75000   0.28044   0.00000  Uiso   1.00
O391   O     0.90942   0.75000   0.21955   0.00000  Uiso   1.00
O392   O     0.75725   0.75000   0.20096   0.00000  Uiso   1.00
O393   O     0.90942   0.75000   0.29903   0.00000  Uiso   1.00
O394   O     0.98820   0.78339   0.19496   0.00000  Uiso   1.00
Zn395  Zn    0.83333   0.75001   0.30307   0.00000  Uiso   1.00
Zn396  Zn    0.83333   0.75000   0.19693   0.00000  Uiso   1.00
C397   C     0.16716   0.16404   0.75007   0.00000  Uiso   1.00
C398   C     0.13469   0.21896   0.94312   0.00000  Uiso   1.00
C399   C     0.16759   0.24949   0.52675   0.00000  Uiso   1.00
C400   C     0.16604   0.24942   0.97332   0.00000  Uiso   1.00
C401   C     0.06720   0.25101   0.73783   0.00000  Uiso   1.00
C402   C     0.26611   0.24898   0.76215   0.00000  Uiso   1.00
C403   C     0.01273   0.25770   0.73249   0.00000  Uiso   1.00
C404   C     0.32053   0.24217   0.76736   0.00000  Uiso   1.00
C405   C     0.12679   0.04671   0.76420   0.00000  Uiso   1.00
C406   C     0.13111   0.45349   0.71781   0.00000  Uiso   1.00
C407   C     0.12662   0.09322   0.76511   0.00000  Uiso   1.00
C408   C     0.16665   0.33606   0.75000   0.00000  Uiso   1.00
C409   C     0.13022   0.40697   0.71775   0.00000  Uiso   1.00
C410   C     0.16878   0.11624   0.75033   0.00000  Uiso   1.00
C411   C     0.16709   0.38403   0.75000   0.00000  Uiso   1.00
C412   C     0.21127   0.09333   0.73505   0.00000  Uiso   1.00
C413   C     0.20459   0.40666   0.78204   0.00000  Uiso   1.00
C414   C     0.21027   0.04705   0.73410   0.00000  Uiso   1.00
C415   C     0.20499   0.45332   0.78144   0.00000  Uiso   1.00
C416   C     0.16844   0.02414   0.74892   0.00000  Uiso   1.00
C417   C     0.16838   0.47612   0.74929   0.00000  Uiso   1.00
C418   C     0.13391   0.27778   0.54779   0.00000  Uiso   1.00
C419   C     0.19727   0.27970   0.95192   0.00000  Uiso   1.00
C420   C     0.13404   0.27751   0.59753   0.00000  Uiso   1.00
C421   C     0.19709   0.27941   0.90217   0.00000  Uiso   1.00
C422   C     0.19991   0.22225   0.60694   0.00000  Uiso   1.00
C423   C     0.13603   0.22015   0.89346   0.00000  Uiso   1.00
C424   C     0.20143   0.22114   0.55731   0.00000  Uiso   1.00
F425   F     0.25035   0.02428   0.71914   0.00000  Uiso   1.00
F426   F     0.24030   0.47663   0.81208   0.00000  Uiso   1.00
F427   F     0.10072   0.30536   0.52018   0.00000  Uiso   1.00
F428   F     0.22821   0.30923   0.97921   0.00000  Uiso   1.00
F429   F     0.10120   0.30489   0.61710   0.00000  Uiso   1.00
F430   F     0.22787   0.30852   0.88233   0.00000  Uiso   1.00
F431   F     0.23212   0.19518   0.63605   0.00000  Uiso   1.00
F432   F     0.10649   0.19082   0.86480   0.00000  Uiso   1.00
H433   H     0.09483   0.02802   0.77552   0.00000  Uiso   1.00
H434   H     0.10446   0.19050   0.99500   0.00000  Uiso   1.00
H435   H     0.10302   0.47214   0.69344   0.00000  Uiso   1.00
H436   H     0.01438   0.29485   0.67562   0.00000  Uiso   1.00
H437   H     0.31880   0.20479   0.82405   0.00000  Uiso   1.00
H438   H     0.05934   0.09553   0.78824   0.00000  Uiso   1.00
H439   H     0.07058   0.40461   0.66750   0.00000  Uiso   1.00
H440   H     0.25507   0.14622   0.73113   0.00000  Uiso   1.00
H441   H     0.26435   0.40301   0.83237   0.00000  Uiso   1.00
H442   H     0.23413   0.19475   0.50577   0.00000  Uiso   1.00
N443   N     0.16667   0.24999   0.62623   0.00000  Uiso   1.00
N444   N     0.16667   0.25001   0.87376   0.00000  Uiso   1.00
O445   O     0.16667   0.18453   0.78974   0.00000  Uiso   1.00
O446   O     0.01166   0.21627   0.80472   0.00000  Uiso   1.00
O447   O     0.08565   0.11689   0.77937   0.00000  Uiso   1.00
O448   O     0.09340   0.38329   0.68752   0.00000  Uiso   1.00
O449   O     0.25442   0.11440   0.72154   0.00000  Uiso   1.00
O450   O     0.24063   0.38233   0.81239   0.00000  Uiso   1.00
O451   O     0.23620   0.19200   0.54079   0.00000  Uiso   1.00
O452   O     0.10258   0.18764   0.96001   0.00000  Uiso   1.00
O453   O     0.16666   0.31547   0.71026   0.00000  Uiso   1.00
O454   O     0.16667   0.18453   0.71026   0.00000  Uiso   1.00
O455   O     0.16666   0.31547   0.78974   0.00000  Uiso   1.00
O456   O     0.09058   0.25000   0.78044   0.00000  Uiso   1.00
O457   O     0.24275   0.25000   0.71955   0.00000  Uiso   1.00
O458   O     0.09058   0.25000   0.70096   0.00000  Uiso   1.00
O459   O     0.24275   0.25000   0.79903   0.00000  Uiso   1.00
O460   O     0.32153   0.28339   0.69496   0.00000  Uiso   1.00
Zn461  Zn    0.16667   0.25001   0.80307   0.00000  Uiso   1.00
Zn462  Zn    0.16667   0.25000   0.69693   0.00000  Uiso   1.00
C463   C     0.50050   0.16404   0.75007   0.00000  Uiso   1.00
C464   C     0.46802   0.21896   0.94312   0.00000  Uiso   1.00
C465   C     0.50092   0.24949   0.52675   0.00000  Uiso   1.00
C466   C     0.49938   0.24942   0.97332   0.00000  Uiso   1.00
C467   C     0.40054   0.25101   0.73783   0.00000  Uiso   1.00
C468   C     0.59945   0.24898   0.76215   0.00000  Uiso   1.00
C469   C     0.34607   0.25770   0.73249   0.00000  Uiso   1.00
C470   C     0.65387   0.24217   0.76736   0.00000  Uiso   1.00
C471   C     0.46012   0.04671   0.76420   0.00000  Uiso   1.00
C472   C     0.46444   0.45349   0.71781   0.00000  Uiso   1.00
C473   C     0.45995   0.09322   0.76511   0.00000  Uiso   1.00
C474   C     0.49999   0.33606   0.75000   0.00000  Uiso   1.00
C475   C     0.46355   0.40697   0.71775   0.00000  Uiso   1.00
C476   C     0.50211   0.11624   0.75033   0.00000  Uiso   1.00
C477   C     0.50042   0.38403   0.75000   0.00000  Uiso   1.00
C478   C     0.54460   0.09333   0.73505   0.00000  Uiso   1.00
C479   C     0.53793   0.40666   0.78204   0.00000  Uiso   1.00
C480   C     0.54360   0.04705   0.73410   0.00000  Uiso   1.00
C481   C     0.53832   0.45332   0.78144   0.00000  Uiso   1.00
C482   C     0.50177   0.02414   0.74892   0.00000  Uiso   1.00
C483   C     0.50172   0.47612   0.74929   0.00000  Uiso   1.00
C484   C     0.46725   0.27778   0.54779   0.00000  Uiso   1.00
C485   C     0.53060   0.27970   0.95192   0.00000  Uiso   1.00
C486   C     0.46738   0.27751   0.59753   0.00000  Uiso   1.00
C487   C     0.53043   0.27941   0.90217   0.00000  Uiso   1.00
C488   C     0.53325   0.22225   0.60694   0.00000  Uiso   1.00
C489   C     0.46936   0.22015   0.89346   0.00000  Uiso   1.00
C490   C     0.53476   0.22114   0.55731   0.00000  Uiso   1.00
F491   F     0.58368   0.02428   0.71914   0.00000  Uiso   1.00
F492   F     0.57363   0.47663   0.81208   0.00000  Uiso   1.00
F493   F     0.43405   0.30536   0.52018   0.00000  Uiso   1.00
F494   F     0.56154   0.30923   0.97921   0.00000  Uiso   1.00
F495   F     0.43453   0.30489   0.61710   0.00000  Uiso   1.00
F496   F     0.56120   0.30852   0.88233   0.00000  Uiso   1.00
F497   F     0.56546   0.19518   0.63605   0.00000  Uiso   1.00
F498   F     0.43982   0.19082   0.86480   0.00000  Uiso   1.00
H499   H     0.42816   0.02802   0.77552   0.00000  Uiso   1.00
H500   H     0.43780   0.19050   0.99500   0.00000  Uiso   1.00
H501   H     0.43635   0.47214   0.69344   0.00000  Uiso   1.00
H502   H     0.34772   0.29485   0.67562   0.00000  Uiso   1.00
H503   H     0.65213   0.20479   0.82405   0.00000  Uiso   1.00
H504   H     0.39267   0.09553   0.78824   0.00000  Uiso   1.00
H505   H     0.40391   0.40461   0.66750   0.00000  Uiso   1.00
H506   H     0.58840   0.14622   0.73113   0.00000  Uiso   1.00
H507   H     0.59768   0.40301   0.83237   0.00000  Uiso   1.00
H508   H     0.56746   0.19475   0.50577   0.00000  Uiso   1.00
N509   N     0.50000   0.24999   0.62623   0.00000  Uiso   1.00
N510   N     0.50000   0.25001   0.87376   0.00000  Uiso   1.00
O511   O     0.50000   0.18453   0.78974   0.00000  Uiso   1.00
O512   O     0.34499   0.21627   0.80472   0.00000  Uiso   1.00
O513   O     0.41898   0.11689   0.77937   0.00000  Uiso   1.00
O514   O     0.42674   0.38329   0.68752   0.00000  Uiso   1.00
O515   O     0.58775   0.11440   0.72154   0.00000  Uiso   1.00
O516   O     0.57396   0.38233   0.81239   0.00000  Uiso   1.00
O517   O     0.56953   0.19200   0.54079   0.00000  Uiso   1.00
O518   O     0.43591   0.18764   0.96001   0.00000  Uiso   1.00
O519   O     0.50000   0.31547   0.71026   0.00000  Uiso   1.00
O520   O     0.50000   0.18453   0.71026   0.00000  Uiso   1.00
O521   O     0.50000   0.31547   0.78974   0.00000  Uiso   1.00
O522   O     0.42392   0.25000   0.78044   0.00000  Uiso   1.00
O523   O     0.57608   0.25000   0.71955   0.00000  Uiso   1.00
O524   O     0.42392   0.25000   0.70096   0.00000  Uiso   1.00
O525   O     0.57608   0.25000   0.79903   0.00000  Uiso   1.00
O526   O     0.65487   0.28339   0.69496   0.00000  Uiso   1.00
Zn527  Zn    0.50000   0.25001   0.80307   0.00000  Uiso   1.00
Zn528  Zn    0.50000   0.25000   0.69693   0.00000  Uiso   1.00
C529   C     0.83383   0.16404   0.75007   0.00000  Uiso   1.00
C530   C     0.80135   0.21896   0.94312   0.00000  Uiso   1.00
C531   C     0.83426   0.24949   0.52675   0.00000  Uiso   1.00
C532   C     0.83271   0.24942   0.97332   0.00000  Uiso   1.00
C533   C     0.73387   0.25101   0.73783   0.00000  Uiso   1.00
C534   C     0.93278   0.24898   0.76215   0.00000  Uiso   1.00
C535   C     0.67940   0.25770   0.73249   0.00000  Uiso   1.00
C536   C     0.98720   0.24217   0.76736   0.00000  Uiso   1.00
C537   C     0.79346   0.04671   0.76420   0.00000  Uiso   1.00
C538   C     0.79777   0.45349   0.71781   0.00000  Uiso   1.00
C539   C     0.79328   0.09322   0.76511   0.00000  Uiso   1.00
C540   C     0.83332   0.33606   0.75000   0.00000  Uiso   1.00
C541   C     0.79689   0.40697   0.71775   0.00000  Uiso   1.00
C542   C     0.83545   0.11624   0.75033   0.00000  Uiso   1.00
C543   C     0.83375   0.38403   0.75000   0.00000  Uiso   1.00
C544   C     0.87794   0.09333   0.73505   0.00000  Uiso   1.00
C545   C     0.87126   0.40666   0.78204   0.00000  Uiso   1.00
C546   C     0.87693   0.04705   0.73410   0.00000  Uiso   1.00
C547   C     0.87166   0.45332   0.78144   0.00000  Uiso   1.00
C548   C     0.83511   0.02414   0.74892   0.00000  Uiso   1.00
C549   C     0.83505   0.47612   0.74929   0.00000  Uiso   1.00
C550   C     0.80058   0.27778   0.54779   0.00000  Uiso   1.00
C551   C     0.86394   0.27970   0.95192   0.00000  Uiso   1.00
C552   C     0.80071   0.27751   0.59753   0.00000  Uiso   1.00
C553   C     0.86376   0.27941   0.90217   0.00000  Uiso   1.00
C554   C     0.86658   0.22225   0.60694   0.00000  Uiso   1.00
C555   C     0.80270   0.22015   0.89346   0.00000  Uiso   1.00
C556   C     0.86810   0.22114   0.55731   0.00000  Uiso   1.00
F557   F     0.91702   0.02428   0.71914   0.00000  Uiso   1.00
F558   F     0.90697   0.47663   0.81208   0.00000  Uiso   1.00
F559   F     0.76738   0.30536   0.52018   0.00000  Uiso   1.00
F560   F     0.89487   0.30923   0.97921   0.00000  Uiso   1.00
F561   F     0.76786   0.30489   0.61710   0.00000  Uiso   1.00
F562   F     0.89453   0.30852   0.88233   0.00000  Uiso   1.00
F563   F     0.89879   0.19518   0.63605   0.00000  Uiso   1.00
F564   F     0.77316   0.19082   0.86480   0.00000  Uiso   1.00
H565   H     0.76149   0.02802   0.77552   0.00000  Uiso   1.00
H566   H     0.77113   0.19050   0.99500   0.00000  Uiso   1.00
H567   H     0.76968   0.47214   0.69344   0.00000  Uiso   1.00
H568   H     0.68105   0.29485   0.67562   0.00000  Uiso   1.00
H569   H     0.98547   0.20479   0.82405   0.00000  Uiso   1.00
H570   H     0.72600   0.09553   0.78824   0.00000  Uiso   1.00
H571   H     0.73724   0.40461   0.66750   0.00000  Uiso   1.00
H572   H     0.92173   0.14622   0.73113   0.00000  Uiso   1.00
H573   H     0.93102   0.40301   0.83237   0.00000  Uiso   1.00
H574   H     0.90080   0.19475   0.50577   0.00000  Uiso   1.00
N575   N     0.83333   0.24999   0.62623   0.00000  Uiso   1.00
N576   N     0.83333   0.25001   0.87376   0.00000  Uiso   1.00
O577   O     0.83334   0.18453   0.78974   0.00000  Uiso   1.00
O578   O     0.67832   0.21627   0.80472   0.00000  Uiso   1.00
O579   O     0.75232   0.11689   0.77937   0.00000  Uiso   1.00
O580   O     0.76007   0.38329   0.68752   0.00000  Uiso   1.00
O581   O     0.92108   0.11440   0.72154   0.00000  Uiso   1.00
O582   O     0.90730   0.38233   0.81239   0.00000  Uiso   1.00
O583   O     0.90286   0.19200   0.54079   0.00000  Uiso   1.00
O584   O     0.76924   0.18764   0.96001   0.00000  Uiso   1.00
O585   O     0.83333   0.31547   0.71026   0.00000  Uiso   1.00
O586   O     0.83334   0.18453   0.71026   0.00000  Uiso   1.00
O587   O     0.83333   0.31547   0.78974   0.00000  Uiso   1.00
O588   O     0.75725   0.25000   0.78044   0.00000  Uiso   1.00
O589   O     0.90942   0.25000   0.71955   0.00000  Uiso   1.00
O590   O     0.75725   0.25000   0.70096   0.00000  Uiso   1.00
O591   O     0.90942   0.25000   0.79903   0.00000  Uiso   1.00
O592   O     0.98820   0.28339   0.69496   0.00000  Uiso   1.00
Zn593  Zn    0.83333   0.25001   0.80307   0.00000  Uiso   1.00
Zn594  Zn    0.83333   0.25000   0.69693   0.00000  Uiso   1.00
C595   C     0.16716   0.66404   0.75007   0.00000  Uiso   1.00
C596   C     0.13469   0.71896   0.94312   0.00000  Uiso   1.00
C597   C     0.16759   0.74949   0.52675   0.00000  Uiso   1.00
C598   C     0.16604   0.74942   0.97332   0.00000  Uiso   1.00
C599   C     0.06720   0.75101   0.73783   0.00000  Uiso   1.00
C600   C     0.26611   0.74898   0.76215   0.00000  Uiso   1.00
C601   C     0.01273   0.75770   0.73249   0.00000  Uiso   1.00
C602   C     0.32053   0.74217   0.76736   0.00000  Uiso   1.00
C603   C     0.12679   0.54671   0.76420   0.00000  Uiso   1.00
C604   C     0.13111   0.95349   0.71781   0.00000  Uiso   1.00
C605   C     0.12662   0.59322   0.76511   0.00000  Uiso   1.00
C606   C     0.16665   0.83606   0.75000   0.00000  Uiso   1.00
C607   C     0.13022   0.90697   0.71775   0.00000  Uiso   1.00
C608   C     0.16878   0.61624   0.75033   0.00000  Uiso   1.00
C609   C     0.16709   0.88403   0.75000   0.00000  Uiso   1.00
C610   C     0.21127   0.59333   0.73505   0.00000  Uiso   1.00
C611   C     0.20459   0.90666   0.78204   0.00000  Uiso   1.00
C612   C     0.21027   0.54705   0.73410   0.00000  Uiso   1.00
C613   C     0.20499   0.95332   0.78144   0.00000  Uiso   1.00
C614   C     0.16844   0.52414   0.74892   0.00000  Uiso   1.00
C615   C     0.16838   0.97612   0.74929   0.00000  Uiso   1.00
C616   C     0.13391   0.77778   0.54779   0.00000  Uiso   1.00
C617   C     0.19727   0.77970   0.95192   0.00000  Uiso   1.00
C618   C     0.13404   0.77751   0.59753   0.00000  Uiso   1.00
C619   C     0.19709   0.77941   0.90217   0.00000  Uiso   1.00
C620   C     0.19991   0.72225   0.60694   0.00000  Uiso   1.00
C621   C     0.13603   0.72015   0.89346   0.00000  Uiso   1.00
C622   C     0.20143   0.72114   0.55731   0.00000  Uiso   1.00
F623   F     0.25035   0.52428   0.71914   0.00000  Uiso   1.00
F624   F     0.24030   0.97663   0.81208   0.00000  Uiso   1.00
F625   F     0.10072   0.80536   0.52018   0.00000  Uiso   1.00
F626   F     0.22821   0.80923   0.97921   0.00000  Uiso   1.00
F627   F     0.10120   0.80489   0.61710   0.00000  Uiso   1.00
F628   F     0.22787   0.80852   0.88233   0.00000  Uiso   1.00
F629   F     0.23212   0.69518   0.63605   0.00000  Uiso   1.00
F630   F     0.10649   0.69082   0.86480   0.00000  Uiso   1.00
H631   H     0.09483   0.52802   0.77552   0.00000  Uiso   1.00
H632   H     0.10446   0.69050   0.99500   0.00000  Uiso   1.00
H633   H     0.10302   0.97214   0.69344   0.00000  Uiso   1.00
H634   H     0.01438   0.79485   0.67562   0.00000  Uiso   1.00
H635   H     0.31880   0.70479   0.82405   0.00000  Uiso   1.00
H636   H     0.05934   0.59553   0.78824   0.00000  Uiso   1.00
H637   H     0.07058   0.90461   0.66750   0.00000  Uiso   1.00
H638   H     0.25507   0.64622   0.73113   0.00000  Uiso   1.00
H639   H     0.26435   0.90301   0.83237   0.00000  Uiso   1.00
H640   H     0.23413   0.69475   0.50577   0.00000  Uiso   1.00
N641   N     0.16667   0.74999   0.62623   0.00000  Uiso   1.00
N642   N     0.16667   0.75001   0.87376   0.00000  Uiso   1.00
O643   O     0.16667   0.68453   0.78974   0.00000  Uiso   1.00
O644   O     0.01166   0.71627   0.80472   0.00000  Uiso   1.00
O645   O     0.08565   0.61689   0.77937   0.00000  Uiso   1.00
O646   O     0.09340   0.88329   0.68752   0.00000  Uiso   1.00
O647   O     0.25442   0.61440   0.72154   0.00000  Uiso   1.00
O648   O     0.24063   0.88233   0.81239   0.00000  Uiso   1.00
O649   O     0.23620   0.69200   0.54079   0.00000  Uiso   1.00
O650   O     0.10258   0.68764   0.96001   0.00000  Uiso   1.00
O651   O     0.16666   0.81547   0.71026   0.00000  Uiso   1.00
O652   O     0.16667   0.68453   0.71026   0.00000  Uiso   1.00
O653   O     0.16666   0.81547   0.78974   0.00000  Uiso   1.00
O654   O     0.09058   0.75000   0.78044   0.00000  Uiso   1.00
O655   O     0.24275   0.75000   0.71955   0.00000  Uiso   1.00
O656   O     0.09058   0.75000   0.70096   0.00000  Uiso   1.00
O657   O     0.24275   0.75000   0.79903   0.00000  Uiso   1.00
O658   O     0.32153   0.78339   0.69496   0.00000  Uiso   1.00
Zn659  Zn    0.16667   0.75001   0.80307   0.00000  Uiso   1.00
Zn660  Zn    0.16667   0.75000   0.69693   0.00000  Uiso   1.00
C661   C     0.50050   0.66404   0.75007   0.00000  Uiso   1.00
C662   C     0.46802   0.71896   0.94312   0.00000  Uiso   1.00
C663   C     0.50092   0.74949   0.52675   0.00000  Uiso   1.00
C664   C     0.49938   0.74942   0.97332   0.00000  Uiso   1.00
C665   C     0.40054   0.75101   0.73783   0.00000  Uiso   1.00
C666   C     0.59945   0.74898   0.76215   0.00000  Uiso   1.00
C667   C     0.34607   0.75770   0.73249   0.00000  Uiso   1.00
C668   C     0.65387   0.74217   0.76736   0.00000  Uiso   1.00
C669   C     0.46012   0.54671   0.76420   0.00000  Uiso   1.00
C670   C     0.46444   0.95349   0.71781   0.00000  Uiso   1.00
C671   C     0.45995   0.59322   0.76511   0.00000  Uiso   1.00
C672   C     0.49999   0.83606   0.75000   0.00000  Uiso   1.00
C673   C     0.46355   0.90697   0.71775   0.00000  Uiso   1.00
C674   C     0.50211   0.61624   0.75033   0.00000  Uiso   1.00
C675   C     0.50042   0.88403   0.75000   0.00000  Uiso   1.00
C676   C     0.54460   0.59333   0.73505   0.00000  Uiso   1.00
C677   C     0.53793   0.90666   0.78204   0.00000  Uiso   1.00
C678   C     0.54360   0.54705   0.73410   0.00000  Uiso   1.00
C679   C     0.53832   0.95332   0.78144   0.00000  Uiso   1.00
C680   C     0.50177   0.52414   0.74892   0.00000  Uiso   1.00
C681   C     0.50172   0.97612   0.74929   0.00000  Uiso   1.00
C682   C     0.46725   0.77778   0.54779   0.00000  Uiso   1.00
C683   C     0.53060   0.77970   0.95192   0.00000  Uiso   1.00
C684   C     0.46738   0.77751   0.59753   0.00000  Uiso   1.00
C685   C     0.53043   0.77941   0.90217   0.00000  Uiso   1.00
C686   C     0.53325   0.72225   0.60694   0.00000  Uiso   1.00
C687   C     0.46936   0.72015   0.89346   0.00000  Uiso   1.00
C688   C     0.53476   0.72114   0.55731   0.00000  Uiso   1.00
F689   F     0.58368   0.52428   0.71914   0.00000  Uiso   1.00
F690   F     0.57363   0.97663   0.81208   0.00000  Uiso   1.00
F691   F     0.43405   0.80536   0.52018   0.00000  Uiso   1.00
F692   F     0.56154   0.80923   0.97921   0.00000  Uiso   1.00
F693   F     0.43453   0.80489   0.61710   0.00000  Uiso   1.00
F694   F     0.56120   0.80852   0.88233   0.00000  Uiso   1.00
F695   F     0.56546   0.69518   0.63605   0.00000  Uiso   1.00
F696   F     0.43982   0.69082   0.86480   0.00000  Uiso   1.00
H697   H     0.42816   0.52802   0.77552   0.00000  Uiso   1.00
H698   H     0.43780   0.69050   0.99500   0.00000  Uiso   1.00
H699   H     0.43635   0.97214   0.69344   0.00000  Uiso   1.00
H700   H     0.34772   0.79485   0.67562   0.00000  Uiso   1.00
H701   H     0.65213   0.70479   0.82405   0.00000  Uiso   1.00
H702   H     0.39267   0.59553   0.78824   0.00000  Uiso   1.00
H703   H     0.40391   0.90461   0.66750   0.00000  Uiso   1.00
H704   H     0.58840   0.64622   0.73113   0.00000  Uiso   1.00
H705   H     0.59768   0.90301   0.83237   0.00000  Uiso   1.00
H706   H     0.56746   0.69475   0.50577   0.00000  Uiso   1.00
N707   N     0.50000   0.74999   0.62623   0.00000  Uiso   1.00
N708   N     0.50000   0.75001   0.87376   0.00000  Uiso   1.00
O709   O     0.50000   0.68453   0.78974   0.00000  Uiso   1.00
O710   O     0.34499   0.71627   0.80472   0.00000  Uiso   1.00
O711   O     0.41898   0.61689   0.77937   0.00000  Uiso   1.00
O712   O     0.42674   0.88329   0.68752   0.00000  Uiso   1.00
O713   O     0.58775   0.61440   0.72154   0.00000  Uiso   1.00
O714   O     0.57396   0.88233   0.81239   0.00000  Uiso   1.00
O715   O     0.56953   0.69200   0.54079   0.00000  Uiso   1.00
O716   O     0.43591   0.68764   0.96001   0.00000  Uiso   1.00
O717   O     0.50000   0.81547   0.71026   0.00000  Uiso   1.00
O718   O     0.50000   0.68453   0.71026   0.00000  Uiso   1.00
O719   O     0.50000   0.81547   0.78974   0.00000  Uiso   1.00
O720   O     0.42392   0.75000   0.78044   0.00000  Uiso   1.00
O721   O     0.57608   0.75000   0.71955   0.00000  Uiso   1.00
O722   O     0.42392   0.75000   0.70096   0.00000  Uiso   1.00
O723   O     0.57608   0.75000   0.79903   0.00000  Uiso   1.00
O724   O     0.65487   0.78339   0.69496   0.00000  Uiso   1.00
Zn725  Zn    0.50000   0.75001   0.80307   0.00000  Uiso   1.00
Zn726  Zn    0.50000   0.75000   0.69693   0.00000  Uiso   1.00
C727   C     0.83383   0.66404   0.75007   0.00000  Uiso   1.00
C728   C     0.80135   0.71896   0.94312   0.00000  Uiso   1.00
C729   C     0.83426   0.74949   0.52675   0.00000  Uiso   1.00
C730   C     0.83271   0.74942   0.97332   0.00000  Uiso   1.00
C731   C     0.73387   0.75101   0.73783   0.00000  Uiso   1.00
C732   C     0.93278   0.74898   0.76215   0.00000  Uiso   1.00
C733   C     0.67940   0.75770   0.73249   0.00000  Uiso   1.00
C734   C     0.98720   0.74217   0.76736   0.00000  Uiso   1.00
C735   C     0.79346   0.54671   0.76420   0.00000  Uiso   1.00
C736   C     0.79777   0.95349   0.71781   0.00000  Uiso   1.00
C737   C     0.79328   0.59322   0.76511   0.00000  Uiso   1.00
C738   C     0.83332   0.83606   0.75000   0.00000  Uiso   1.00
C739   C     0.79689   0.90697   0.71775   0.00000  Uiso   1.00
C740   C     0.83545   0.61624   0.75033   0.00000  Uiso   1.00
C741   C     0.83375   0.88403   0.75000   0.00000  Uiso   1.00
C742   C     0.87794   0.59333   0.73505   0.00000  Uiso   1.00
C743   C     0.87126   0.90666   0.78204   0.00000  Uiso   1.00
C744   C     0.87693   0.54705   0.73410   0.00000  Uiso   1.00
C745   C     0.87166   0.95332   0.78144   0.00000  Uiso   1.00
C746   C     0.83511   0.52414   0.74892   0.00000  Uiso   1.00
C747   C     0.83505   0.97612   0.74929   0.00000  Uiso   1.00
C748   C     0.80058   0.77778   0.54779   0.00000  Uiso   1.00
C749   C     0.86394   0.77970   0.95192   0.00000  Uiso   1.00
C750   C     0.80071   0.77751   0.59753   0.00000  Uiso   1.00
C751   C     0.86376   0.77941   0.90217   0.00000  Uiso   1.00
C752   C     0.86658   0.72225   0.60694   0.00000  Uiso   1.00
C753   C     0.80270   0.72015   0.89346   0.00000  Uiso   1.00
C754   C     0.86810   0.72114   0.55731   0.00000  Uiso   1.00
F755   F     0.91702   0.52428   0.71914   0.00000  Uiso   1.00
F756   F     0.90697   0.97663   0.81208   0.00000  Uiso   1.00
F757   F     0.76738   0.80536   0.52018   0.00000  Uiso   1.00
F758   F     0.89487   0.80923   0.97921   0.00000  Uiso   1.00
F759   F     0.76786   0.80489   0.61710   0.00000  Uiso   1.00
F760   F     0.89453   0.80852   0.88233   0.00000  Uiso   1.00
F761   F     0.89879   0.69518   0.63605   0.00000  Uiso   1.00
F762   F     0.77316   0.69082   0.86480   0.00000  Uiso   1.00
H763   H     0.76149   0.52802   0.77552   0.00000  Uiso   1.00
H764   H     0.77113   0.69050   0.99500   0.00000  Uiso   1.00
H765   H     0.76968   0.97214   0.69344   0.00000  Uiso   1.00
H766   H     0.68105   0.79485   0.67562   0.00000  Uiso   1.00
H767   H     0.98547   0.70479   0.82405   0.00000  Uiso   1.00
H768   H     0.72600   0.59553   0.78824   0.00000  Uiso   1.00
H769   H     0.73724   0.90461   0.66750   0.00000  Uiso   1.00
H770   H     0.92173   0.64622   0.73113   0.00000  Uiso   1.00
H771   H     0.93102   0.90301   0.83237   0.00000  Uiso   1.00
H772   H     0.90080   0.69475   0.50577   0.00000  Uiso   1.00
N773   N     0.83333   0.74999   0.62623   0.00000  Uiso   1.00
N774   N     0.83333   0.75001   0.87376   0.00000  Uiso   1.00
O775   O     0.83334   0.68453   0.78974   0.00000  Uiso   1.00
O776   O     0.67832   0.71627   0.80472   0.00000  Uiso   1.00
O777   O     0.75232   0.61689   0.77937   0.00000  Uiso   1.00
O778   O     0.76007   0.88329   0.68752   0.00000  Uiso   1.00
O779   O     0.92108   0.61440   0.72154   0.00000  Uiso   1.00
O780   O     0.90730   0.88233   0.81239   0.00000  Uiso   1.00
O781   O     0.90286   0.69200   0.54079   0.00000  Uiso   1.00
O782   O     0.76924   0.68764   0.96001   0.00000  Uiso   1.00
O783   O     0.83333   0.81547   0.71026   0.00000  Uiso   1.00
O784   O     0.83334   0.68453   0.71026   0.00000  Uiso   1.00
O785   O     0.83333   0.81547   0.78974   0.00000  Uiso   1.00
O786   O     0.75725   0.75000   0.78044   0.00000  Uiso   1.00
O787   O     0.90942   0.75000   0.71955   0.00000  Uiso   1.00
O788   O     0.75725   0.75000   0.70096   0.00000  Uiso   1.00
O789   O     0.90942   0.75000   0.79903   0.00000  Uiso   1.00
O790   O     0.98820   0.78339   0.69496   0.00000  Uiso   1.00
Zn791  Zn    0.83333   0.75001   0.80307   0.00000  Uiso   1.00
Zn792  Zn    0.83333   0.75000   0.69693   0.00000  Uiso   1.00
loop_
_geom_bond_atom_site_label_1
_geom_bond_atom_site_label_2
_geom_bond_distance
_geom_bond_site_symmetry_2
_ccdc_geom_bond_type
C1     O58     1.281   .     A
C1     C14     1.430   .     S
C1     O49     1.281   .     A
C2     C4      1.422   .     A
C2     C27     1.412   .     A
C2     O56     1.382   .     S
C3     C28     1.422   .     A
C3     C22     1.407   .     A
C3     C400    1.508   1_554 S
C4     C23     1.407   .     A
C4     C399    1.508   .     S
C5     O62     1.279   .     A
C5     C7      1.413   .     S
C5     O60     1.272   .     A
C6     O63     1.280   .     A
C6     O61     1.271   .     A
C6     C8      1.412   .     S
C7     C140    1.346   1_455 S
C7     O196    1.391   1_455 S
C8     C73     1.346   .     S
C8     O116    1.390   .     S
C9     C20     1.393   .     A
C9     H37     1.084   .     S
C9     C11     1.391   .     A
C10    C21     1.393   .     A
C10    H39     1.084   .     S
C10    C13     1.391   .     A
C11    C14     1.404   .     A
C11    O51     1.383   .     S
C12    C15     1.434   .     S
C12    O57     1.282   .     A
C12    O59     1.283   .     A
C13    O52     1.383   .     S
C13    C15     1.404   .     A
C14    C16     1.416   .     A
C15    C17     1.405   .     A
C16    C18     1.384   .     A
C16    O53     1.383   .     S
C17    C19     1.395   .     A
C17    O54     1.383   .     S
C18    C20     1.396   .     A
C18    F29     1.359   .     S
C19    F30     1.360   .     S
C19    C21     1.396   .     A
C20    C219    1.436   1_545 S
C21    C218    1.436   .     S
C22    C24     1.408   .     A
C22    F31     1.357   .     S
C23    F32     1.357   .     S
C23    C25     1.408   .     A
C24    F33     1.355   .     S
C24    N47     1.364   .     A
C25    F34     1.355   .     S
C25    N48     1.364   .     A
C26    C28     1.412   .     A
C26    N47     1.365   .     A
C26    F35     1.356   .     S
C27    F36     1.355   .     S
C27    N48     1.365   .     A
C28    O55     1.382   .     S
H38    O56     0.989   .     S
H40    O196    0.991   1_455 S
H41    O116    0.991   .     S
H42    O51     0.992   .     S
H43    O52     0.992   .     S
H44    O53     0.989   .     S
H45    O54     0.990   .     S
H46    O55     0.989   .     S
N47    Zn66    2.002   .     S
N48    Zn65    2.002   .     S
O49    Zn65    1.993   .     S
O50    H173    0.991   1_455 S
O50    C140    1.390   1_455 S
O57    Zn66    1.993   .     S
O58    Zn66    1.993   .     S
O59    Zn65    1.993   .     S
O60    Zn65    1.985   .     S
O61    Zn66    1.985   .     S
O62    Zn66    1.991   .     S
O63    Zn65    1.991   .     S
O64    H106    0.991   .     S
O64    C73     1.391   .     S
C67    O124    1.281   .     A
C67    C80     1.430   .     S
C67    O115    1.281   .     A
C68    C70     1.422   .     A
C68    C93     1.412   .     A
C68    O122    1.382   .     S
C69    C94     1.422   .     A
C69    C88     1.407   .     A
C69    C466    1.508   1_554 S
C70    C89     1.407   .     A
C70    C465    1.508   .     S
C71    O128    1.279   .     A
C71    C73     1.413   .     S
C71    O126    1.272   .     A
C72    O129    1.280   .     A
C72    O127    1.271   .     A
C72    C74     1.412   .     S
C74    C139    1.346   .     S
C74    O182    1.390   .     S
C75    C86     1.393   .     A
C75    H103    1.084   .     S
C75    C77     1.391   .     A
C76    C87     1.393   .     A
C76    H105    1.084   .     S
C76    C79     1.391   .     A
C77    C80     1.404   .     A
C77    O117    1.383   .     S
C78    C81     1.434   .     S
C78    O123    1.282   .     A
C78    O125    1.283   .     A
C79    O118    1.383   .     S
C79    C81     1.404   .     A
C80    C82     1.416   .     A
C81    C83     1.405   .     A
C82    C84     1.384   .     A
C82    O119    1.383   .     S
C83    C85     1.395   .     A
C83    O120    1.383   .     S
C84    C86     1.396   .     A
C84    F95     1.359   .     S
C85    F96     1.360   .     S
C85    C87     1.396   .     A
C86    C285    1.436   1_545 S
C87    C284    1.436   .     S
C88    C90     1.408   .     A
C88    F97     1.357   .     S
C89    F98     1.357   .     S
C89    C91     1.408   .     A
C90    F99     1.355   .     S
C90    N113    1.364   .     A
C91    F100    1.355   .     S
C91    N114    1.364   .     A
C92    C94     1.412   .     A
C92    N113    1.365   .     A
C92    F101    1.356   .     S
C93    F102    1.355   .     S
C93    N114    1.365   .     A
C94    O121    1.382   .     S
H104   O122    0.989   .     S
H107   O182    0.991   .     S
H108   O117    0.992   .     S
H109   O118    0.992   .     S
H110   O119    0.989   .     S
H111   O120    0.990   .     S
H112   O121    0.989   .     S
N113   Zn132   2.002   .     S
N114   Zn131   2.002   .     S
O115   Zn131   1.993   .     S
O123   Zn132   1.993   .     S
O124   Zn132   1.993   .     S
O125   Zn131   1.993   .     S
O126   Zn131   1.985   .     S
O127   Zn132   1.985   .     S
O128   Zn132   1.991   .     S
O129   Zn131   1.991   .     S
O130   H172    0.991   .     S
O130   C139    1.391   .     S
C133   O190    1.281   .     A
C133   C146    1.430   .     S
C133   O181    1.281   .     A
C134   C136    1.422   .     A
C134   C159    1.412   .     A
C134   O188    1.382   .     S
C135   C160    1.422   .     A
C135   C154    1.407   .     A
C135   C532    1.508   1_554 S
C136   C155    1.407   .     A
C136   C531    1.508   .     S
C137   O194    1.279   .     A
C137   C139    1.413   .     S
C137   O192    1.272   .     A
C138   O195    1.280   .     A
C138   O193    1.271   .     A
C138   C140    1.412   .     S
C140   C7      1.346   1_655 S
C140   O50     1.390   1_655 S
C141   C152    1.393   .     A
C141   H169    1.084   .     S
C141   C143    1.391   .     A
C142   C153    1.393   .     A
C142   H171    1.084   .     S
C142   C145    1.391   .     A
C143   C146    1.404   .     A
C143   O183    1.383   .     S
C144   C147    1.434   .     S
C144   O189    1.282   .     A
C144   O191    1.283   .     A
C145   O184    1.383   .     S
C145   C147    1.404   .     A
C146   C148    1.416   .     A
C147   C149    1.405   .     A
C148   C150    1.384   .     A
C148   O185    1.383   .     S
C149   C151    1.395   .     A
C149   O186    1.383   .     S
C150   C152    1.396   .     A
C150   F161    1.359   .     S
C151   F162    1.360   .     S
C151   C153    1.396   .     A
C152   C351    1.436   1_545 S
C153   C350    1.436   .     S
C154   C156    1.408   .     A
C154   F163    1.357   .     S
C155   F164    1.357   .     S
C155   C157    1.408   .     A
C156   F165    1.355   .     S
C156   N179    1.364   .     A
C157   F166    1.355   .     S
C157   N180    1.364   .     A
C158   C160    1.412   .     A
C158   N179    1.365   .     A
C158   F167    1.356   .     S
C159   F168    1.355   .     S
C159   N180    1.365   .     A
C160   O187    1.382   .     S
H170   O188    0.989   .     S
H173   O50     0.991   1_655 S
H174   O183    0.992   .     S
H175   O184    0.992   .     S
H176   O185    0.989   .     S
H177   O186    0.990   .     S
H178   O187    0.989   .     S
N179   Zn198   2.002   .     S
N180   Zn197   2.002   .     S
O181   Zn197   1.993   .     S
O189   Zn198   1.993   .     S
O190   Zn198   1.993   .     S
O191   Zn197   1.993   .     S
O192   Zn197   1.985   .     S
O193   Zn198   1.985   .     S
O194   Zn198   1.991   .     S
O195   Zn197   1.991   .     S
O196   H40     0.991   1_655 S
O196   C7      1.391   1_655 S
C199   O256    1.281   .     A
C199   C212    1.430   .     S
C199   O247    1.281   .     A
C200   C202    1.422   .     A
C200   C225    1.412   .     A
C200   O254    1.382   .     S
C201   C226    1.422   .     A
C201   C220    1.407   .     A
C201   C598    1.508   1_554 S
C202   C221    1.407   .     A
C202   C597    1.508   .     S
C203   O260    1.279   .     A
C203   C205    1.413   .     S
C203   O258    1.272   .     A
C204   O261    1.280   .     A
C204   O259    1.271   .     A
C204   C206    1.412   .     S
C205   C338    1.346   1_455 S
C205   O394    1.391   1_455 S
C206   C271    1.346   .     S
C206   O314    1.390   .     S
C207   C218    1.393   .     A
C207   H235    1.084   .     S
C207   C209    1.391   .     A
C208   C219    1.393   .     A
C208   H237    1.084   .     S
C208   C211    1.391   .     A
C209   C212    1.404   .     A
C209   O249    1.383   .     S
C210   C213    1.434   .     S
C210   O255    1.282   .     A
C210   O257    1.283   .     A
C211   O250    1.383   .     S
C211   C213    1.404   .     A
C212   C214    1.416   .     A
C213   C215    1.405   .     A
C214   C216    1.384   .     A
C214   O251    1.383   .     S
C215   C217    1.395   .     A
C215   O252    1.383   .     S
C216   C218    1.396   .     A
C216   F227    1.359   .     S
C217   F228    1.360   .     S
C217   C219    1.396   .     A
C219   C20     1.436   1_565 S
C220   C222    1.408   .     A
C220   F229    1.357   .     S
C221   F230    1.357   .     S
C221   C223    1.408   .     A
C222   F231    1.355   .     S
C222   N245    1.364   .     A
C223   F232    1.355   .     S
C223   N246    1.364   .     A
C224   C226    1.412   .     A
C224   N245    1.365   .     A
C224   F233    1.356   .     S
C225   F234    1.355   .     S
C225   N246    1.365   .     A
C226   O253    1.382   .     S
H236   O254    0.989   .     S
H238   O394    0.991   1_455 S
H239   O314    0.991   .     S
H240   O249    0.992   .     S
H241   O250    0.992   .     S
H242   O251    0.989   .     S
H243   O252    0.990   .     S
H244   O253    0.989   .     S
N245   Zn264   2.002   .     S
N246   Zn263   2.002   .     S
O247   Zn263   1.993   .     S
O248   H371    0.991   1_455 S
O248   C338    1.390   1_455 S
O255   Zn264   1.993   .     S
O256   Zn264   1.993   .     S
O257   Zn263   1.993   .     S
O258   Zn263   1.985   .     S
O259   Zn264   1.985   .     S
O260   Zn264   1.991   .     S
O261   Zn263   1.991   .     S
O262   H304    0.991   .     S
O262   C271    1.391   .     S
C265   O322    1.281   .     A
C265   C278    1.430   .     S
C265   O313    1.281   .     A
C266   C268    1.422   .     A
C266   C291    1.412   .     A
C266   O320    1.382   .     S
C267   C292    1.422   .     A
C267   C286    1.407   .     A
C267   C664    1.508   1_554 S
C268   C287    1.407   .     A
C268   C663    1.508   .     S
C269   O326    1.279   .     A
C269   C271    1.413   .     S
C269   O324    1.272   .     A
C270   O327    1.280   .     A
C270   O325    1.271   .     A
C270   C272    1.412   .     S
C272   C337    1.346   .     S
C272   O380    1.390   .     S
C273   C284    1.393   .     A
C273   H301    1.084   .     S
C273   C275    1.391   .     A
C274   C285    1.393   .     A
C274   H303    1.084   .     S
C274   C277    1.391   .     A
C275   C278    1.404   .     A
C275   O315    1.383   .     S
C276   C279    1.434   .     S
C276   O321    1.282   .     A
C276   O323    1.283   .     A
C277   O316    1.383   .     S
C277   C279    1.404   .     A
C278   C280    1.416   .     A
C279   C281    1.405   .     A
C280   C282    1.384   .     A
C280   O317    1.383   .     S
C281   C283    1.395   .     A
C281   O318    1.383   .     S
C282   C284    1.396   .     A
C282   F293    1.359   .     S
C283   F294    1.360   .     S
C283   C285    1.396   .     A
C285   C86     1.436   1_565 S
C286   C288    1.408   .     A
C286   F295    1.357   .     S
C287   F296    1.357   .     S
C287   C289    1.408   .     A
C288   F297    1.355   .     S
C288   N311    1.364   .     A
C289   F298    1.355   .     S
C289   N312    1.364   .     A
C290   C292    1.412   .     A
C290   N311    1.365   .     A
C290   F299    1.356   .     S
C291   F300    1.355   .     S
C291   N312    1.365   .     A
C292   O319    1.382   .     S
H302   O320    0.989   .     S
H305   O380    0.991   .     S
H306   O315    0.992   .     S
H307   O316    0.992   .     S
H308   O317    0.989   .     S
H309   O318    0.990   .     S
H310   O319    0.989   .     S
N311   Zn330   2.002   .     S
N312   Zn329   2.002   .     S
O313   Zn329   1.993   .     S
O321   Zn330   1.993   .     S
O322   Zn330   1.993   .     S
O323   Zn329   1.993   .     S
O324   Zn329   1.985   .     S
O325   Zn330   1.985   .     S
O326   Zn330   1.991   .     S
O327   Zn329   1.991   .     S
O328   H370    0.991   .     S
O328   C337    1.391   .     S
C331   O388    1.281   .     A
C331   C344    1.430   .     S
C331   O379    1.281   .     A
C332   C334    1.422   .     A
C332   C357    1.412   .     A
C332   O386    1.382   .     S
C333   C358    1.422   .     A
C333   C352    1.407   .     A
C333   C730    1.508   1_554 S
C334   C353    1.407   .     A
C334   C729    1.508   .     S
C335   O392    1.279   .     A
C335   C337    1.413   .     S
C335   O390    1.272   .     A
C336   O393    1.280   .     A
C336   O391    1.271   .     A
C336   C338    1.412   .     S
C338   C205    1.346   1_655 S
C338   O248    1.390   1_655 S
C339   C350    1.393   .     A
C339   H367    1.084   .     S
C339   C341    1.391   .     A
C340   C351    1.393   .     A
C340   H369    1.084   .     S
C340   C343    1.391   .     A
C341   C344    1.404   .     A
C341   O381    1.383   .     S
C342   C345    1.434   .     S
C342   O387    1.282   .     A
C342   O389    1.283   .     A
C343   O382    1.383   .     S
C343   C345    1.404   .     A
C344   C346    1.416   .     A
C345   C347    1.405   .     A
C346   C348    1.384   .     A
C346   O383    1.383   .     S
C347   C349    1.395   .     A
C347   O384    1.383   .     S
C348   C350    1.396   .     A
C348   F359    1.359   .     S
C349   F360    1.360   .     S
C349   C351    1.396   .     A
C351   C152    1.436   1_565 S
C352   C354    1.408   .     A
C352   F361    1.357   .     S
C353   F362    1.357   .     S
C353   C355    1.408   .     A
C354   F363    1.355   .     S
C354   N377    1.364   .     A
C355   F364    1.355   .     S
C355   N378    1.364   .     A
C356   C358    1.412   .     A
C356   N377    1.365   .     A
C356   F365    1.356   .     S
C357   F366    1.355   .     S
C357   N378    1.365   .     A
C358   O385    1.382   .     S
H368   O386    0.989   .     S
H371   O248    0.991   1_655 S
H372   O381    0.992   .     S
H373   O382    0.992   .     S
H374   O383    0.989   .     S
H375   O384    0.990   .     S
H376   O385    0.989   .     S
N377   Zn396   2.002   .     S
N378   Zn395   2.002   .     S
O379   Zn395   1.993   .     S
O387   Zn396   1.993   .     S
O388   Zn396   1.993   .     S
O389   Zn395   1.993   .     S
O390   Zn395   1.985   .     S
O391   Zn396   1.985   .     S
O392   Zn396   1.991   .     S
O393   Zn395   1.991   .     S
O394   H238    0.991   1_655 S
O394   C205    1.391   1_655 S
C397   O454    1.281   .     A
C397   C410    1.430   .     S
C397   O445    1.281   .     A
C398   C400    1.422   .     A
C398   C423    1.412   .     A
C398   O452    1.382   .     S
C399   C424    1.422   .     A
C399   C418    1.407   .     A
C400   C419    1.407   .     A
C400   C3      1.508   1_556 S
C401   O458    1.279   .     A
C401   C403    1.413   .     S
C401   O456    1.272   .     A
C402   O459    1.280   .     A
C402   O457    1.271   .     A
C402   C404    1.412   .     S
C403   C536    1.346   1_455 S
C403   O592    1.391   1_455 S
C404   C469    1.346   .     S
C404   O512    1.390   .     S
C405   C416    1.393   .     A
C405   H433    1.084   .     S
C405   C407    1.391   .     A
C406   C417    1.393   .     A
C406   H435    1.084   .     S
C406   C409    1.391   .     A
C407   C410    1.404   .     A
C407   O447    1.383   .     S
C408   C411    1.434   .     S
C408   O453    1.282   .     A
C408   O455    1.283   .     A
C409   O448    1.383   .     S
C409   C411    1.404   .     A
C410   C412    1.416   .     A
C411   C413    1.405   .     A
C412   C414    1.384   .     A
C412   O449    1.383   .     S
C413   C415    1.395   .     A
C413   O450    1.383   .     S
C414   C416    1.396   .     A
C414   F425    1.359   .     S
C415   F426    1.360   .     S
C415   C417    1.396   .     A
C416   C615    1.436   1_545 S
C417   C614    1.436   .     S
C418   C420    1.408   .     A
C418   F427    1.357   .     S
C419   F428    1.357   .     S
C419   C421    1.408   .     A
C420   F429    1.355   .     S
C420   N443    1.364   .     A
C421   F430    1.355   .     S
C421   N444    1.364   .     A
C422   C424    1.412   .     A
C422   N443    1.365   .     A
C422   F431    1.356   .     S
C423   F432    1.355   .     S
C423   N444    1.365   .     A
C424   O451    1.382   .     S
H434   O452    0.989   .     S
H436   O592    0.991   1_455 S
H437   O512    0.991   .     S
H438   O447    0.992   .     S
H439   O448    0.992   .     S
H440   O449    0.989   .     S
H441   O450    0.990   .     S
H442   O451    0.989   .     S
N443   Zn462   2.002   .     S
N444   Zn461   2.002   .     S
O445   Zn461   1.993   .     S
O446   H569    0.991   1_455 S
O446   C536    1.390   1_455 S
O453   Zn462   1.993   .     S
O454   Zn462   1.993   .     S
O455   Zn461   1.993   .     S
O456   Zn461   1.985   .     S
O457   Zn462   1.985   .     S
O458   Zn462   1.991   .     S
O459   Zn461   1.991   .     S
O460   H502    0.991   .     S
O460   C469    1.391   .     S
C463   O520    1.281   .     A
C463   C476    1.430   .     S
C463   O511    1.281   .     A
C464   C466    1.422   .     A
C464   C489    1.412   .     A
C464   O518    1.382   .     S
C465   C490    1.422   .     A
C465   C484    1.407   .     A
C466   C485    1.407   .     A
C466   C69     1.508   1_556 S
C467   O524    1.279   .     A
C467   C469    1.413   .     S
C467   O522    1.272   .     A
C468   O525    1.280   .     A
C468   O523    1.271   .     A
C468   C470    1.412   .     S
C470   C535    1.346   .     S
C470   O578    1.390   .     S
C471   C482    1.393   .     A
C471   H499    1.084   .     S
C471   C473    1.391   .     A
C472   C483    1.393   .     A
C472   H501    1.084   .     S
C472   C475    1.391   .     A
C473   C476    1.404   .     A
C473   O513    1.383   .     S
C474   C477    1.434   .     S
C474   O519    1.282   .     A
C474   O521    1.283   .     A
C475   O514    1.383   .     S
C475   C477    1.404   .     A
C476   C478    1.416   .     A
C477   C479    1.405   .     A
C478   C480    1.384   .     A
C478   O515    1.383   .     S
C479   C481    1.395   .     A
C479   O516    1.383   .     S
C480   C482    1.396   .     A
C480   F491    1.359   .     S
C481   F492    1.360   .     S
C481   C483    1.396   .     A
C482   C681    1.436   1_545 S
C483   C680    1.436   .     S
C484   C486    1.408   .     A
C484   F493    1.357   .     S
C485   F494    1.357   .     S
C485   C487    1.408   .     A
C486   F495    1.355   .     S
C486   N509    1.364   .     A
C487   F496    1.355   .     S
C487   N510    1.364   .     A
C488   C490    1.412   .     A
C488   N509    1.365   .     A
C488   F497    1.356   .     S
C489   F498    1.355   .     S
C489   N510    1.365   .     A
C490   O517    1.382   .     S
H500   O518    0.989   .     S
H503   O578    0.991   .     S
H504   O513    0.992   .     S
H505   O514    0.992   .     S
H506   O515    0.989   .     S
H507   O516    0.990   .     S
H508   O517    0.989   .     S
N509   Zn528   2.002   .     S
N510   Zn527   2.002   .     S
O511   Zn527   1.993   .     S
O519   Zn528   1.993   .     S
O520   Zn528   1.993   .     S
O521   Zn527   1.993   .     S
O522   Zn527   1.985   .     S
O523   Zn528   1.985   .     S
O524   Zn528   1.991   .     S
O525   Zn527   1.991   .     S
O526   H568    0.991   .     S
O526   C535    1.391   .     S
C529   O586    1.281   .     A
C529   C542    1.430   .     S
C529   O577    1.281   .     A
C530   C532    1.422   .     A
C530   C555    1.412   .     A
C530   O584    1.382   .     S
C531   C556    1.422   .     A
C531   C550    1.407   .     A
C532   C551    1.407   .     A
C532   C135    1.508   1_556 S
C533   O590    1.279   .     A
C533   C535    1.413   .     S
C533   O588    1.272   .     A
C534   O591    1.280   .     A
C534   O589    1.271   .     A
C534   C536    1.412   .     S
C536   C403    1.346   1_655 S
C536   O446    1.390   1_655 S
C537   C548    1.393   .     A
C537   H565    1.084   .     S
C537   C539    1.391   .     A
C538   C549    1.393   .     A
C538   H567    1.084   .     S
C538   C541    1.391   .     A
C539   C542    1.404   .     A
C539   O579    1.383   .     S
C540   C543    1.434   .     S
C540   O585    1.282   .     A
C540   O587    1.283   .     A
C541   O580    1.383   .     S
C541   C543    1.404   .     A
C542   C544    1.416   .     A
C543   C545    1.405   .     A
C544   C546    1.384   .     A
C544   O581    1.383   .     S
C545   C547    1.395   .     A
C545   O582    1.383   .     S
C546   C548    1.396   .     A
C546   F557    1.359   .     S
C547   F558    1.360   .     S
C547   C549    1.396   .     A
C548   C747    1.436   1_545 S
C549   C746    1.436   .     S
C550   C552    1.408   .     A
C550   F559    1.357   .     S
C551   F560    1.357   .     S
C551   C553    1.408   .     A
C552   F561    1.355   .     S
C552   N575    1.364   .     A
C553   F562    1.355   .     S
C553   N576    1.364   .     A
C554   C556    1.412   .     A
C554   N575    1.365   .     A
C554   F563    1.356   .     S
C555   F564    1.355   .     S
C555   N576    1.365   .     A
C556   O583    1.382   .     S
H566   O584    0.989   .     S
H569   O446    0.991   1_655 S
H570   O579    0.992   .     S
H571   O580    0.992   .     S
H572   O581    0.989   .     S
H573   O582    0.990   .     S
H574   O583    0.989   .     S
N575   Zn594   2.002   .     S
N576   Zn593   2.002   .     S
O577   Zn593   1.993   .     S
O585   Zn594   1.993   .     S
O586   Zn594   1.993   .     S
O587   Zn593   1.993   .     S
O588   Zn593   1.985   .     S
O589   Zn594   1.985   .     S
O590   Zn594   1.991   .     S
O591   Zn593   1.991   .     S
O592   H436    0.991   1_655 S
O592   C403    1.391   1_655 S
C595   O652    1.281   .     A
C595   C608    1.430   .     S
C595   O643    1.281   .     A
C596   C598    1.422   .     A
C596   C621    1.412   .     A
C596   O650    1.382   .     S
C597   C622    1.422   .     A
C597   C616    1.407   .     A
C598   C617    1.407   .     A
C598   C201    1.508   1_556 S
C599   O656    1.279   .     A
C599   C601    1.413   .     S
C599   O654    1.272   .     A
C600   O657    1.280   .     A
C600   O655    1.271   .     A
C600   C602    1.412   .     S
C601   C734    1.346   1_455 S
C601   O790    1.391   1_455 S
C602   C667    1.346   .     S
C602   O710    1.390   .     S
C603   C614    1.393   .     A
C603   H631    1.084   .     S
C603   C605    1.391   .     A
C604   C615    1.393   .     A
C604   H633    1.084   .     S
C604   C607    1.391   .     A
C605   C608    1.404   .     A
C605   O645    1.383   .     S
C606   C609    1.434   .     S
C606   O651    1.282   .     A
C606   O653    1.283   .     A
C607   O646    1.383   .     S
C607   C609    1.404   .     A
C608   C610    1.416   .     A
C609   C611    1.405   .     A
C610   C612    1.384   .     A
C610   O647    1.383   .     S
C611   C613    1.395   .     A
C611   O648    1.383   .     S
C612   C614    1.396   .     A
C612   F623    1.359   .     S
C613   F624    1.360   .     S
C613   C615    1.396   .     A
C615   C416    1.436   1_565 S
C616   C618    1.408   .     A
C616   F625    1.357   .     S
C617   F626    1.357   .     S
C617   C619    1.408   .     A
C618   F627    1.355   .     S
C618   N641    1.364   .     A
C619   F628    1.355   .     S
C619   N642    1.364   .     A
C620   C622    1.412   .     A
C620   N641    1.365   .     A
C620   F629    1.356   .     S
C621   F630    1.355   .     S
C621   N642    1.365   .     A
C622   O649    1.382   .     S
H632   O650    0.989   .     S
H634   O790    0.991   1_455 S
H635   O710    0.991   .     S
H636   O645    0.992   .     S
H637   O646    0.992   .     S
H638   O647    0.989   .     S
H639   O648    0.990   .     S
H640   O649    0.989   .     S
N641   Zn660   2.002   .     S
N642   Zn659   2.002   .     S
O643   Zn659   1.993   .     S
O644   H767    0.991   1_455 S
O644   C734    1.390   1_455 S
O651   Zn660   1.993   .     S
O652   Zn660   1.993   .     S
O653   Zn659   1.993   .     S
O654   Zn659   1.985   .     S
O655   Zn660   1.985   .     S
O656   Zn660   1.991   .     S
O657   Zn659   1.991   .     S
O658   H700    0.991   .     S
O658   C667    1.391   .     S
C661   O718    1.281   .     A
C661   C674    1.430   .     S
C661   O709    1.281   .     A
C662   C664    1.422   .     A
C662   C687    1.412   .     A
C662   O716    1.382   .     S
C663   C688    1.422   .     A
C663   C682    1.407   .     A
C664   C683    1.407   .     A
C664   C267    1.508   1_556 S
C665   O722    1.279   .     A
C665   C667    1.413   .     S
C665   O720    1.272   .     A
C666   O723    1.280   .     A
C666   O721    1.271   .     A
C666   C668    1.412   .     S
C668   C733    1.346   .     S
C668   O776    1.390   .     S
C669   C680    1.393   .     A
C669   H697    1.084   .     S
C669   C671    1.391   .     A
C670   C681    1.393   .     A
C670   H699    1.084   .     S
C670   C673    1.391   .     A
C671   C674    1.404   .     A
C671   O711    1.383   .     S
C672   C675    1.434   .     S
C672   O717    1.282   .     A
C672   O719    1.283   .     A
C673   O712    1.383   .     S
C673   C675    1.404   .     A
C674   C676    1.416   .     A
C675   C677    1.405   .     A
C676   C678    1.384   .     A
C676   O713    1.383   .     S
C677   C679    1.395   .     A
C677   O714    1.383   .     S
C678   C680    1.396   .     A
C678   F689    1.359   .     S
C679   F690    1.360   .     S
C679   C681    1.396   .     A
C681   C482    1.436   1_565 S
C682   C684    1.408   .     A
C682   F691    1.357   .     S
C683   F692    1.357   .     S
C683   C685    1.408   .     A
C684   F693    1.355   .     S
C684   N707    1.364   .     A
C685   F694    1.355   .     S
C685   N708    1.364   .     A
C686   C688    1.412   .     A
C686   N707    1.365   .     A
C686   F695    1.356   .     S
C687   F696    1.355   .     S
C687   N708    1.365   .     A
C688   O715    1.382   .     S
H698   O716    0.989   .     S
H701   O776    0.991   .     S
H702   O711    0.992   .     S
H703   O712    0.992   .     S
H704   O713    0.989   .     S
H705   O714    0.990   .     S
H706   O715    0.989   .     S
N707   Zn726   2.002   .     S
N708   Zn725   2.002   .     S
O709   Zn725   1.993   .     S
O717   Zn726   1.993   .     S
O718   Zn726   1.993   .     S
O719   Zn725   1.993   .     S
O720   Zn725   1.985   .     S
O721   Zn726   1.985   .     S
O722   Zn726   1.991   .     S
O723   Zn725   1.991   .     S
O724   H766    0.991   .     S
O724   C733    1.391   .     S
C727   O784    1.281   .     A
C727   C740    1.430   .     S
C727   O775    1.281   .     A
C728   C730    1.422   .     A
C728   C753    1.412   .     A
C728   O782    1.382   .     S
C729   C754    1.422   .     A
C729   C748    1.407   .     A
C730   C749    1.407   .     A
C730   C333    1.508   1_556 S
C731   O788    1.279   .     A
C731   C733    1.413   .     S
C731   O786    1.272   .     A
C732   O789    1.280   .     A
C732   O787    1.271   .     A
C732   C734    1.412   .     S
C734   C601    1.346   1_655 S
C734   O644    1.390   1_655 S
C735   C746    1.393   .     A
C735   H763    1.084   .     S
C735   C737    1.391   .     A
C736   C747    1.393   .     A
C736   H765    1.084   .     S
C736   C739    1.391   .     A
C737   C740    1.404   .     A
C737   O777    1.383   .     S
C738   C741    1.434   .     S
C738   O783    1.282   .     A
C738   O785    1.283   .     A
C739   O778    1.383   .     S
C739   C741    1.404   .     A
C740   C742    1.416   .     A
C741   C743    1.405   .     A
C742   C744    1.384   .     A
C742   O779    1.383   .     S
C743   C745    1.395   .     A
C743   O780    1.383   .     S
C744   C746    1.396   .     A
C744   F755    1.359   .     S
C745   F756    1.360   .     S
C745   C747    1.396   .     A
C747   C548    1.436   1_565 S
C748   C750    1.408   .     A
C748   F757    1.357   .     S
C749   F758    1.357   .     S
C749   C751    1.408   .     A
C750   F759    1.355   .     S
C750   N773    1.364   .     A
C751   F760    1.355   .     S
C751   N774    1.364   .     A
C752   C754    1.412   .     A
C752   N773    1.365   .     A
C752   F761    1.356   .     S
C753   F762    1.355   .     S
C753   N774    1.365   .     A
C754   O781    1.382   .     S
H764   O782    0.989   .     S
H767   O644    0.991   1_655 S
H768   O777    0.992   .     S
H769   O778    0.992   .     S
H770   O779    0.989   .     S
H771   O780    0.990   .     S
H772   O781    0.989   .     S
N773   Zn792   2.002   .     S
N774   Zn791   2.002   .     S
O775   Zn791   1.993   .     S
O783   Zn792   1.993   .     S
O784   Zn792   1.993   .     S
O785   Zn791   1.993   .     S
O786   Zn791   1.985   .     S
O787   Zn792   1.985   .     S
O788   Zn792   1.991   .     S
O789   Zn791   1.991   .     S
O790   H634    0.991   1_655 S
O790   C601    1.391   1_655 S
