data_str_m1_o10_o18_pcu_sym.59
_audit_creation_date              2020-01-03
_audit_creation_method            'Materials Studio'
_symmetry_space_group_name_H-M    'P1'
_symmetry_Int_Tables_number       1
_symmetry_cell_setting            triclinic
loop_
_symmetry_equiv_pos_as_xyz
  x,y,z
_cell_length_a                    32.5821
_cell_length_b                    32.6742
_cell_length_c                    35.5501
_cell_angle_alpha                 98.4982
_cell_angle_beta                  72.4540
_cell_angle_gamma                 98.7984
loop_
_atom_site_label
_atom_site_type_symbol
_atom_site_fract_x
_atom_site_fract_y
_atom_site_fract_z
_atom_site_U_iso_or_equiv
_atom_site_adp_type
_atom_site_occupancy
C1     C     0.05229   0.15948   0.25948   0.00000  Uiso   1.00
C2     C     0.20812   0.14184   0.45710   0.00000  Uiso   1.00
C3     C     0.23462   0.12856   0.47578   0.00000  Uiso   1.00
C4     C     0.28129   0.17365   0.24083   0.00000  Uiso   1.00
C5     C     0.22340   0.13074   0.01730   0.00000  Uiso   1.00
C6     C     0.18211   0.14267   0.03994   0.00000  Uiso   1.00
C7     C     0.25238   0.12063   0.03653   0.00000  Uiso   1.00
C8     C     0.24060   0.12318   0.07834   0.00000  Uiso   1.00
C9     C     0.17121   0.14486   0.08154   0.00000  Uiso   1.00
C10    C     0.32792   0.17659   0.23587   0.00000  Uiso   1.00
C11    C     0.00742   0.15859   0.26149   0.00000  Uiso   1.00
C12    C     0.08594   0.19186   0.42051   0.00000  Uiso   1.00
C13    C     0.18046   0.32239   0.23972   0.00000  Uiso   1.00
C14    C     0.14954   0.01243   0.26245   0.00000  Uiso   1.00
C15    C     0.15639   0.05623   0.25831   0.00000  Uiso   1.00
C16    C     0.17662   0.27772   0.24143   0.00000  Uiso   1.00
C17    C     0.18845   0.14534   0.14379   0.00000  Uiso   1.00
C18    C     0.14492   0.18753   0.35633   0.00000  Uiso   1.00
C19    C     0.13050   0.19141   0.40018   0.00000  Uiso   1.00
C20    C     0.19985   0.13589   0.10057   0.00000  Uiso   1.00
C21    C     0.07116   0.18650   0.46082   0.00000  Uiso   1.00
C22    C     0.29566   0.06499   0.00282   0.00000  Uiso   1.00
C23    C     0.15999   0.18833   0.42158   0.00000  Uiso   1.00
C24    C     0.02500   0.19919   0.20271   0.00000  Uiso   1.00
C25    C     0.08316   0.02111   0.31787   0.00000  Uiso   1.00
C26    C     0.27184   0.11306   0.09794   0.00000  Uiso   1.00
C27    C     0.04718   0.23892   0.40199   0.00000  Uiso   1.00
C28    C     0.20604   0.20747   0.40767   0.00000  Uiso   1.00
C29    C     0.14349   0.17447   0.46005   0.00000  Uiso   1.00
C30    C     0.09918   0.17698   0.48040   0.00000  Uiso   1.00
C31    C     0.16925   0.15798   0.47900   0.00000  Uiso   1.00
C32    C     0.15374   0.15378   0.02031   0.00000  Uiso   1.00
C33    C     0.11002   0.15945   0.04017   0.00000  Uiso   1.00
C34    C     0.08300   0.16954   0.02013   0.00000  Uiso   1.00
H35    H     0.04915   0.17174   0.03596   0.00000  Uiso   1.00
H36    H     0.27607   0.05359   0.48185   0.00000  Uiso   1.00
H37    H     0.28311   0.04760   0.02934   0.00000  Uiso   1.00
H38    H     0.32972   0.05890   0.48804   0.00000  Uiso   1.00
H39    H     0.01221   0.21160   0.18242   0.00000  Uiso   1.00
H40    H     0.09041   0.30891   0.26911   0.00000  Uiso   1.00
H41    H     0.05504   0.00189   0.33587   0.00000  Uiso   1.00
H42    H     0.07089   0.04487   0.30599   0.00000  Uiso   1.00
H43    H     0.10315   0.03670   0.33744   0.00000  Uiso   1.00
H44    H     0.30599   0.11353   0.08197   0.00000  Uiso   1.00
H45    H     0.02706   0.17665   0.40850   0.00000  Uiso   1.00
H46    H     0.31750   0.14289   0.28537   0.00000  Uiso   1.00
H47    H     0.03097   0.25104   0.43301   0.00000  Uiso   1.00
H48    H     0.02569   0.24014   0.38326   0.00000  Uiso   1.00
H49    H     0.07791   0.25911   0.39058   0.00000  Uiso   1.00
H50    H     0.22634   0.21270   0.42752   0.00000  Uiso   1.00
H51    H     0.20980   0.00356   0.22004   0.00000  Uiso   1.00
H52    H     0.14169   0.15647   0.10029   0.00000  Uiso   1.00
H53    H     0.26421   0.11693   0.45702   0.00000  Uiso   1.00
H54    H     0.03712   0.18789   0.47636   0.00000  Uiso   1.00
H55    H     0.09494   0.15381   0.07067   0.00000  Uiso   1.00
H56    H     0.21800   0.13824   0.42501   0.00000  Uiso   1.00
H57    H     0.31113   0.12742   0.49207   0.00000  Uiso   1.00
N58    N     0.29416   0.10920   0.01434   0.00000  Uiso   1.00
N59    N     0.10842   0.32790   0.28567   0.00000  Uiso   1.00
N60    N     0.05545   0.19634   0.40038   0.00000  Uiso   1.00
O61    O     0.16667   0.16667   0.25000   0.00000  Uiso   1.00
O62    O     0.15693   0.12393   0.16625   0.00000  Uiso   1.00
O63    O     0.12687   0.20646   0.33749   0.00000  Uiso   1.00
O64    O     0.21088   0.17493   0.15877   0.00000  Uiso   1.00
O65    O     0.17198   0.16135   0.33749   0.00000  Uiso   1.00
O66    O     0.06415   0.20446   0.19747   0.00000  Uiso   1.00
O67    O     0.25988   0.10298   0.13163   0.00000  Uiso   1.00
O68    O     0.22139   0.21981   0.37496   0.00000  Uiso   1.00
O69    O     0.17849   0.08101   0.27820   0.00000  Uiso   1.00
O70    O     0.14581   0.26136   0.26767   0.00000  Uiso   1.00
O71    O     0.07452   0.13251   0.23607   0.00000  Uiso   1.00
O72    O     0.26785   0.19179   0.21805   0.00000  Uiso   1.00
O73    O     0.06990   0.18960   0.27820   0.00000  Uiso   1.00
O74    O     0.25440   0.15277   0.26767   0.00000  Uiso   1.00
O75    O     0.13800   0.06903   0.23607   0.00000  Uiso   1.00
O76    O     0.20437   0.25527   0.21805   0.00000  Uiso   1.00
Zn77   Zn    0.19244   0.14090   0.28277   0.00000  Uiso   1.00
Zn78   Zn    0.13459   0.12378   0.22257   0.00000  Uiso   1.00
Zn79   Zn    0.21166   0.19664   0.21188   0.00000  Uiso   1.00
Zn80   Zn    0.12798   0.20535   0.28277   0.00000  Uiso   1.00
C81    C     0.38563   0.15948   0.25948   0.00000  Uiso   1.00
C82    C     0.54145   0.14184   0.45710   0.00000  Uiso   1.00
C83    C     0.56795   0.12856   0.47578   0.00000  Uiso   1.00
C84    C     0.61462   0.17365   0.24083   0.00000  Uiso   1.00
C85    C     0.55673   0.13074   0.01730   0.00000  Uiso   1.00
C86    C     0.51544   0.14267   0.03994   0.00000  Uiso   1.00
C87    C     0.58572   0.12063   0.03653   0.00000  Uiso   1.00
C88    C     0.57393   0.12318   0.07834   0.00000  Uiso   1.00
C89    C     0.50455   0.14486   0.08154   0.00000  Uiso   1.00
C90    C     0.66125   0.17659   0.23587   0.00000  Uiso   1.00
C91    C     0.34075   0.15859   0.26149   0.00000  Uiso   1.00
C92    C     0.41927   0.19186   0.42051   0.00000  Uiso   1.00
C93    C     0.51380   0.32239   0.23972   0.00000  Uiso   1.00
C94    C     0.48288   0.01243   0.26245   0.00000  Uiso   1.00
C95    C     0.48972   0.05623   0.25831   0.00000  Uiso   1.00
C96    C     0.50996   0.27772   0.24143   0.00000  Uiso   1.00
C97    C     0.52178   0.14534   0.14379   0.00000  Uiso   1.00
C98    C     0.47825   0.18753   0.35633   0.00000  Uiso   1.00
C99    C     0.46383   0.19141   0.40018   0.00000  Uiso   1.00
C100   C     0.53319   0.13589   0.10057   0.00000  Uiso   1.00
C101   C     0.40449   0.18650   0.46082   0.00000  Uiso   1.00
C102   C     0.62899   0.06499   0.00282   0.00000  Uiso   1.00
C103   C     0.49332   0.18833   0.42158   0.00000  Uiso   1.00
C104   C     0.35833   0.19919   0.20271   0.00000  Uiso   1.00
C105   C     0.41650   0.02111   0.31787   0.00000  Uiso   1.00
C106   C     0.60517   0.11306   0.09794   0.00000  Uiso   1.00
C107   C     0.38051   0.23892   0.40199   0.00000  Uiso   1.00
C108   C     0.53937   0.20747   0.40767   0.00000  Uiso   1.00
C109   C     0.47682   0.17447   0.46005   0.00000  Uiso   1.00
C110   C     0.43251   0.17698   0.48040   0.00000  Uiso   1.00
C111   C     0.50259   0.15798   0.47900   0.00000  Uiso   1.00
C112   C     0.48708   0.15378   0.02031   0.00000  Uiso   1.00
C113   C     0.44336   0.15945   0.04017   0.00000  Uiso   1.00
C114   C     0.41633   0.16954   0.02013   0.00000  Uiso   1.00
H115   H     0.38248   0.17174   0.03596   0.00000  Uiso   1.00
H116   H     0.60940   0.05359   0.48185   0.00000  Uiso   1.00
H117   H     0.61644   0.04760   0.02934   0.00000  Uiso   1.00
H118   H     0.66306   0.05890   0.48804   0.00000  Uiso   1.00
H119   H     0.34555   0.21160   0.18242   0.00000  Uiso   1.00
H120   H     0.42375   0.30891   0.26911   0.00000  Uiso   1.00
H121   H     0.38837   0.00189   0.33587   0.00000  Uiso   1.00
H122   H     0.40422   0.04487   0.30599   0.00000  Uiso   1.00
H123   H     0.43648   0.03670   0.33744   0.00000  Uiso   1.00
H124   H     0.63933   0.11353   0.08197   0.00000  Uiso   1.00
H125   H     0.36039   0.17665   0.40850   0.00000  Uiso   1.00
H126   H     0.65084   0.14289   0.28537   0.00000  Uiso   1.00
H127   H     0.36430   0.25104   0.43301   0.00000  Uiso   1.00
H128   H     0.35902   0.24014   0.38326   0.00000  Uiso   1.00
H129   H     0.41125   0.25911   0.39058   0.00000  Uiso   1.00
H130   H     0.55967   0.21270   0.42752   0.00000  Uiso   1.00
H131   H     0.54314   0.00356   0.22004   0.00000  Uiso   1.00
H132   H     0.47502   0.15647   0.10029   0.00000  Uiso   1.00
H133   H     0.59754   0.11693   0.45702   0.00000  Uiso   1.00
H134   H     0.37045   0.18789   0.47636   0.00000  Uiso   1.00
H135   H     0.42827   0.15381   0.07067   0.00000  Uiso   1.00
H136   H     0.55134   0.13824   0.42501   0.00000  Uiso   1.00
H137   H     0.64446   0.12742   0.49207   0.00000  Uiso   1.00
N138   N     0.62750   0.10920   0.01434   0.00000  Uiso   1.00
N139   N     0.44175   0.32790   0.28567   0.00000  Uiso   1.00
N140   N     0.38878   0.19634   0.40038   0.00000  Uiso   1.00
O141   O     0.50000   0.16667   0.25000   0.00000  Uiso   1.00
O142   O     0.49027   0.12393   0.16625   0.00000  Uiso   1.00
O143   O     0.46020   0.20646   0.33749   0.00000  Uiso   1.00
O144   O     0.54421   0.17493   0.15877   0.00000  Uiso   1.00
O145   O     0.50532   0.16135   0.33749   0.00000  Uiso   1.00
O146   O     0.39748   0.20446   0.19747   0.00000  Uiso   1.00
O147   O     0.59321   0.10298   0.13163   0.00000  Uiso   1.00
O148   O     0.55473   0.21981   0.37496   0.00000  Uiso   1.00
O149   O     0.51182   0.08101   0.27820   0.00000  Uiso   1.00
O150   O     0.47914   0.26136   0.26767   0.00000  Uiso   1.00
O151   O     0.40785   0.13251   0.23607   0.00000  Uiso   1.00
O152   O     0.60119   0.19179   0.21805   0.00000  Uiso   1.00
O153   O     0.40323   0.18960   0.27820   0.00000  Uiso   1.00
O154   O     0.58773   0.15277   0.26767   0.00000  Uiso   1.00
O155   O     0.47133   0.06903   0.23607   0.00000  Uiso   1.00
O156   O     0.53771   0.25527   0.21805   0.00000  Uiso   1.00
Zn157  Zn    0.52577   0.14090   0.28277   0.00000  Uiso   1.00
Zn158  Zn    0.46792   0.12378   0.22257   0.00000  Uiso   1.00
Zn159  Zn    0.54500   0.19664   0.21188   0.00000  Uiso   1.00
Zn160  Zn    0.46131   0.20535   0.28277   0.00000  Uiso   1.00
C161   C     0.71896   0.15948   0.25948   0.00000  Uiso   1.00
C162   C     0.87479   0.14184   0.45710   0.00000  Uiso   1.00
C163   C     0.90129   0.12856   0.47578   0.00000  Uiso   1.00
C164   C     0.94796   0.17365   0.24083   0.00000  Uiso   1.00
C165   C     0.89007   0.13074   0.01730   0.00000  Uiso   1.00
C166   C     0.84878   0.14267   0.03994   0.00000  Uiso   1.00
C167   C     0.91905   0.12063   0.03653   0.00000  Uiso   1.00
C168   C     0.90727   0.12318   0.07834   0.00000  Uiso   1.00
C169   C     0.83788   0.14486   0.08154   0.00000  Uiso   1.00
C170   C     0.99459   0.17659   0.23587   0.00000  Uiso   1.00
C171   C     0.67409   0.15859   0.26149   0.00000  Uiso   1.00
C172   C     0.75260   0.19186   0.42051   0.00000  Uiso   1.00
C173   C     0.84713   0.32239   0.23972   0.00000  Uiso   1.00
C174   C     0.81621   0.01243   0.26245   0.00000  Uiso   1.00
C175   C     0.82305   0.05623   0.25831   0.00000  Uiso   1.00
C176   C     0.84329   0.27772   0.24143   0.00000  Uiso   1.00
C177   C     0.85511   0.14534   0.14379   0.00000  Uiso   1.00
C178   C     0.81158   0.18753   0.35633   0.00000  Uiso   1.00
C179   C     0.79716   0.19141   0.40018   0.00000  Uiso   1.00
C180   C     0.86652   0.13589   0.10057   0.00000  Uiso   1.00
C181   C     0.73782   0.18650   0.46082   0.00000  Uiso   1.00
C182   C     0.96233   0.06499   0.00282   0.00000  Uiso   1.00
C183   C     0.82665   0.18833   0.42158   0.00000  Uiso   1.00
C184   C     0.69166   0.19919   0.20271   0.00000  Uiso   1.00
C185   C     0.74983   0.02111   0.31787   0.00000  Uiso   1.00
C186   C     0.93851   0.11306   0.09794   0.00000  Uiso   1.00
C187   C     0.71385   0.23892   0.40199   0.00000  Uiso   1.00
C188   C     0.87271   0.20747   0.40767   0.00000  Uiso   1.00
C189   C     0.81016   0.17447   0.46005   0.00000  Uiso   1.00
C190   C     0.76584   0.17698   0.48040   0.00000  Uiso   1.00
C191   C     0.83592   0.15798   0.47900   0.00000  Uiso   1.00
C192   C     0.82041   0.15378   0.02031   0.00000  Uiso   1.00
C193   C     0.77669   0.15945   0.04017   0.00000  Uiso   1.00
C194   C     0.74966   0.16954   0.02013   0.00000  Uiso   1.00
H195   H     0.71582   0.17174   0.03596   0.00000  Uiso   1.00
H196   H     0.94273   0.05359   0.48185   0.00000  Uiso   1.00
H197   H     0.94978   0.04760   0.02934   0.00000  Uiso   1.00
H198   H     0.99639   0.05890   0.48804   0.00000  Uiso   1.00
H199   H     0.67888   0.21160   0.18242   0.00000  Uiso   1.00
H200   H     0.75708   0.30891   0.26911   0.00000  Uiso   1.00
H201   H     0.72170   0.00189   0.33587   0.00000  Uiso   1.00
H202   H     0.73755   0.04487   0.30599   0.00000  Uiso   1.00
H203   H     0.76981   0.03670   0.33744   0.00000  Uiso   1.00
H204   H     0.97266   0.11353   0.08197   0.00000  Uiso   1.00
H205   H     0.69372   0.17665   0.40850   0.00000  Uiso   1.00
H206   H     0.98417   0.14289   0.28537   0.00000  Uiso   1.00
H207   H     0.69763   0.25104   0.43301   0.00000  Uiso   1.00
H208   H     0.69236   0.24014   0.38326   0.00000  Uiso   1.00
H209   H     0.74458   0.25911   0.39058   0.00000  Uiso   1.00
H210   H     0.89300   0.21270   0.42752   0.00000  Uiso   1.00
H211   H     0.87647   0.00356   0.22004   0.00000  Uiso   1.00
H212   H     0.80835   0.15647   0.10029   0.00000  Uiso   1.00
H213   H     0.93087   0.11693   0.45702   0.00000  Uiso   1.00
H214   H     0.70378   0.18789   0.47636   0.00000  Uiso   1.00
H215   H     0.76160   0.15381   0.07067   0.00000  Uiso   1.00
H216   H     0.88467   0.13824   0.42501   0.00000  Uiso   1.00
H217   H     0.97779   0.12742   0.49207   0.00000  Uiso   1.00
N218   N     0.96083   0.10920   0.01434   0.00000  Uiso   1.00
N219   N     0.77508   0.32790   0.28567   0.00000  Uiso   1.00
N220   N     0.72212   0.19634   0.40038   0.00000  Uiso   1.00
O221   O     0.83333   0.16667   0.25000   0.00000  Uiso   1.00
O222   O     0.82360   0.12393   0.16625   0.00000  Uiso   1.00
O223   O     0.79354   0.20646   0.33749   0.00000  Uiso   1.00
O224   O     0.87755   0.17493   0.15877   0.00000  Uiso   1.00
O225   O     0.83865   0.16135   0.33749   0.00000  Uiso   1.00
O226   O     0.73081   0.20446   0.19747   0.00000  Uiso   1.00
O227   O     0.92655   0.10298   0.13163   0.00000  Uiso   1.00
O228   O     0.88806   0.21981   0.37496   0.00000  Uiso   1.00
O229   O     0.84515   0.08101   0.27820   0.00000  Uiso   1.00
O230   O     0.81247   0.26136   0.26767   0.00000  Uiso   1.00
O231   O     0.74119   0.13251   0.23607   0.00000  Uiso   1.00
O232   O     0.93452   0.19179   0.21805   0.00000  Uiso   1.00
O233   O     0.73656   0.18960   0.27820   0.00000  Uiso   1.00
O234   O     0.92106   0.15277   0.26767   0.00000  Uiso   1.00
O235   O     0.80467   0.06903   0.23607   0.00000  Uiso   1.00
O236   O     0.87104   0.25527   0.21805   0.00000  Uiso   1.00
Zn237  Zn    0.85910   0.14090   0.28277   0.00000  Uiso   1.00
Zn238  Zn    0.80125   0.12378   0.22257   0.00000  Uiso   1.00
Zn239  Zn    0.87833   0.19664   0.21188   0.00000  Uiso   1.00
Zn240  Zn    0.79465   0.20535   0.28277   0.00000  Uiso   1.00
C241   C     0.05229   0.49281   0.25948   0.00000  Uiso   1.00
C242   C     0.20812   0.47517   0.45710   0.00000  Uiso   1.00
C243   C     0.23462   0.46189   0.47578   0.00000  Uiso   1.00
C244   C     0.28129   0.50698   0.24083   0.00000  Uiso   1.00
C245   C     0.22340   0.46407   0.01730   0.00000  Uiso   1.00
C246   C     0.18211   0.47600   0.03994   0.00000  Uiso   1.00
C247   C     0.25238   0.45397   0.03653   0.00000  Uiso   1.00
C248   C     0.24060   0.45651   0.07834   0.00000  Uiso   1.00
C249   C     0.17121   0.47820   0.08154   0.00000  Uiso   1.00
C250   C     0.32792   0.50993   0.23587   0.00000  Uiso   1.00
C251   C     0.00742   0.49192   0.26149   0.00000  Uiso   1.00
C252   C     0.08594   0.52520   0.42051   0.00000  Uiso   1.00
C253   C     0.18046   0.65572   0.23972   0.00000  Uiso   1.00
C254   C     0.14954   0.34576   0.26245   0.00000  Uiso   1.00
C255   C     0.15639   0.38956   0.25831   0.00000  Uiso   1.00
C256   C     0.17662   0.61105   0.24143   0.00000  Uiso   1.00
C257   C     0.18845   0.47867   0.14379   0.00000  Uiso   1.00
C258   C     0.14492   0.52087   0.35633   0.00000  Uiso   1.00
C259   C     0.13050   0.52474   0.40018   0.00000  Uiso   1.00
C260   C     0.19985   0.46922   0.10057   0.00000  Uiso   1.00
C261   C     0.07116   0.51984   0.46082   0.00000  Uiso   1.00
C262   C     0.29566   0.39833   0.00282   0.00000  Uiso   1.00
C263   C     0.15999   0.52166   0.42158   0.00000  Uiso   1.00
C264   C     0.02500   0.53252   0.20271   0.00000  Uiso   1.00
C265   C     0.08316   0.35444   0.31787   0.00000  Uiso   1.00
C266   C     0.27184   0.44640   0.09794   0.00000  Uiso   1.00
C267   C     0.04718   0.57225   0.40199   0.00000  Uiso   1.00
C268   C     0.20604   0.54081   0.40767   0.00000  Uiso   1.00
C269   C     0.14349   0.50780   0.46005   0.00000  Uiso   1.00
C270   C     0.09918   0.51032   0.48040   0.00000  Uiso   1.00
C271   C     0.16925   0.49131   0.47900   0.00000  Uiso   1.00
C272   C     0.15374   0.48711   0.02031   0.00000  Uiso   1.00
C273   C     0.11002   0.49278   0.04017   0.00000  Uiso   1.00
C274   C     0.08300   0.50287   0.02013   0.00000  Uiso   1.00
H275   H     0.04915   0.50507   0.03596   0.00000  Uiso   1.00
H276   H     0.27607   0.38692   0.48185   0.00000  Uiso   1.00
H277   H     0.28311   0.38094   0.02934   0.00000  Uiso   1.00
H278   H     0.32972   0.39223   0.48804   0.00000  Uiso   1.00
H279   H     0.01221   0.54494   0.18242   0.00000  Uiso   1.00
H280   H     0.09041   0.64225   0.26911   0.00000  Uiso   1.00
H281   H     0.05504   0.33523   0.33587   0.00000  Uiso   1.00
H282   H     0.07089   0.37820   0.30599   0.00000  Uiso   1.00
H283   H     0.10315   0.37003   0.33744   0.00000  Uiso   1.00
H284   H     0.30599   0.44686   0.08197   0.00000  Uiso   1.00
H285   H     0.02706   0.50999   0.40850   0.00000  Uiso   1.00
H286   H     0.31750   0.47622   0.28537   0.00000  Uiso   1.00
H287   H     0.03097   0.58438   0.43301   0.00000  Uiso   1.00
H288   H     0.02569   0.57347   0.38326   0.00000  Uiso   1.00
H289   H     0.07791   0.59245   0.39058   0.00000  Uiso   1.00
H290   H     0.22634   0.54603   0.42752   0.00000  Uiso   1.00
H291   H     0.20980   0.33689   0.22004   0.00000  Uiso   1.00
H292   H     0.14169   0.48980   0.10029   0.00000  Uiso   1.00
H293   H     0.26421   0.45026   0.45702   0.00000  Uiso   1.00
H294   H     0.03712   0.52122   0.47636   0.00000  Uiso   1.00
H295   H     0.09494   0.48714   0.07067   0.00000  Uiso   1.00
H296   H     0.21800   0.47157   0.42501   0.00000  Uiso   1.00
H297   H     0.31113   0.46075   0.49207   0.00000  Uiso   1.00
N298   N     0.29416   0.44253   0.01434   0.00000  Uiso   1.00
N299   N     0.10842   0.66123   0.28567   0.00000  Uiso   1.00
N300   N     0.05545   0.52968   0.40038   0.00000  Uiso   1.00
O301   O     0.16667   0.50000   0.25000   0.00000  Uiso   1.00
O302   O     0.15693   0.45726   0.16625   0.00000  Uiso   1.00
O303   O     0.12687   0.53979   0.33749   0.00000  Uiso   1.00
O304   O     0.21088   0.50826   0.15877   0.00000  Uiso   1.00
O305   O     0.17198   0.49468   0.33749   0.00000  Uiso   1.00
O306   O     0.06415   0.53779   0.19747   0.00000  Uiso   1.00
O307   O     0.25988   0.43631   0.13163   0.00000  Uiso   1.00
O308   O     0.22139   0.55314   0.37496   0.00000  Uiso   1.00
O309   O     0.17849   0.41434   0.27820   0.00000  Uiso   1.00
O310   O     0.14581   0.59469   0.26767   0.00000  Uiso   1.00
O311   O     0.07452   0.46584   0.23607   0.00000  Uiso   1.00
O312   O     0.26785   0.52512   0.21805   0.00000  Uiso   1.00
O313   O     0.06990   0.52293   0.27820   0.00000  Uiso   1.00
O314   O     0.25440   0.48610   0.26767   0.00000  Uiso   1.00
O315   O     0.13800   0.40236   0.23607   0.00000  Uiso   1.00
O316   O     0.20437   0.58860   0.21805   0.00000  Uiso   1.00
Zn317  Zn    0.19244   0.47423   0.28277   0.00000  Uiso   1.00
Zn318  Zn    0.13459   0.45711   0.22257   0.00000  Uiso   1.00
Zn319  Zn    0.21166   0.52997   0.21188   0.00000  Uiso   1.00
Zn320  Zn    0.12798   0.53868   0.28277   0.00000  Uiso   1.00
C321   C     0.38563   0.49281   0.25948   0.00000  Uiso   1.00
C322   C     0.54145   0.47517   0.45710   0.00000  Uiso   1.00
C323   C     0.56795   0.46189   0.47578   0.00000  Uiso   1.00
C324   C     0.61462   0.50698   0.24083   0.00000  Uiso   1.00
C325   C     0.55673   0.46407   0.01730   0.00000  Uiso   1.00
C326   C     0.51544   0.47600   0.03994   0.00000  Uiso   1.00
C327   C     0.58572   0.45397   0.03653   0.00000  Uiso   1.00
C328   C     0.57393   0.45651   0.07834   0.00000  Uiso   1.00
C329   C     0.50455   0.47820   0.08154   0.00000  Uiso   1.00
C330   C     0.66125   0.50993   0.23587   0.00000  Uiso   1.00
C331   C     0.34075   0.49192   0.26149   0.00000  Uiso   1.00
C332   C     0.41927   0.52520   0.42051   0.00000  Uiso   1.00
C333   C     0.51380   0.65572   0.23972   0.00000  Uiso   1.00
C334   C     0.48288   0.34576   0.26245   0.00000  Uiso   1.00
C335   C     0.48972   0.38956   0.25831   0.00000  Uiso   1.00
C336   C     0.50996   0.61105   0.24143   0.00000  Uiso   1.00
C337   C     0.52178   0.47867   0.14379   0.00000  Uiso   1.00
C338   C     0.47825   0.52087   0.35633   0.00000  Uiso   1.00
C339   C     0.46383   0.52474   0.40018   0.00000  Uiso   1.00
C340   C     0.53319   0.46922   0.10057   0.00000  Uiso   1.00
C341   C     0.40449   0.51984   0.46082   0.00000  Uiso   1.00
C342   C     0.62899   0.39833   0.00282   0.00000  Uiso   1.00
C343   C     0.49332   0.52166   0.42158   0.00000  Uiso   1.00
C344   C     0.35833   0.53252   0.20271   0.00000  Uiso   1.00
C345   C     0.41650   0.35444   0.31787   0.00000  Uiso   1.00
C346   C     0.60517   0.44640   0.09794   0.00000  Uiso   1.00
C347   C     0.38051   0.57225   0.40199   0.00000  Uiso   1.00
C348   C     0.53937   0.54081   0.40767   0.00000  Uiso   1.00
C349   C     0.47682   0.50780   0.46005   0.00000  Uiso   1.00
C350   C     0.43251   0.51032   0.48040   0.00000  Uiso   1.00
C351   C     0.50259   0.49131   0.47900   0.00000  Uiso   1.00
C352   C     0.48708   0.48711   0.02031   0.00000  Uiso   1.00
C353   C     0.44336   0.49278   0.04017   0.00000  Uiso   1.00
C354   C     0.41633   0.50287   0.02013   0.00000  Uiso   1.00
H355   H     0.38248   0.50507   0.03596   0.00000  Uiso   1.00
H356   H     0.60940   0.38692   0.48185   0.00000  Uiso   1.00
H357   H     0.61644   0.38094   0.02934   0.00000  Uiso   1.00
H358   H     0.66306   0.39223   0.48804   0.00000  Uiso   1.00
H359   H     0.34555   0.54494   0.18242   0.00000  Uiso   1.00
H360   H     0.42375   0.64225   0.26911   0.00000  Uiso   1.00
H361   H     0.38837   0.33523   0.33587   0.00000  Uiso   1.00
H362   H     0.40422   0.37820   0.30599   0.00000  Uiso   1.00
H363   H     0.43648   0.37003   0.33744   0.00000  Uiso   1.00
H364   H     0.63933   0.44686   0.08197   0.00000  Uiso   1.00
H365   H     0.36039   0.50999   0.40850   0.00000  Uiso   1.00
H366   H     0.65084   0.47622   0.28537   0.00000  Uiso   1.00
H367   H     0.36430   0.58438   0.43301   0.00000  Uiso   1.00
H368   H     0.35902   0.57347   0.38326   0.00000  Uiso   1.00
H369   H     0.41125   0.59245   0.39058   0.00000  Uiso   1.00
H370   H     0.55967   0.54603   0.42752   0.00000  Uiso   1.00
H371   H     0.54314   0.33689   0.22004   0.00000  Uiso   1.00
H372   H     0.47502   0.48980   0.10029   0.00000  Uiso   1.00
H373   H     0.59754   0.45026   0.45702   0.00000  Uiso   1.00
H374   H     0.37045   0.52122   0.47636   0.00000  Uiso   1.00
H375   H     0.42827   0.48714   0.07067   0.00000  Uiso   1.00
H376   H     0.55134   0.47157   0.42501   0.00000  Uiso   1.00
H377   H     0.64446   0.46075   0.49207   0.00000  Uiso   1.00
N378   N     0.62750   0.44253   0.01434   0.00000  Uiso   1.00
N379   N     0.44175   0.66123   0.28567   0.00000  Uiso   1.00
N380   N     0.38878   0.52968   0.40038   0.00000  Uiso   1.00
O381   O     0.50000   0.50000   0.25000   0.00000  Uiso   1.00
O382   O     0.49027   0.45726   0.16625   0.00000  Uiso   1.00
O383   O     0.46020   0.53979   0.33749   0.00000  Uiso   1.00
O384   O     0.54421   0.50826   0.15877   0.00000  Uiso   1.00
O385   O     0.50532   0.49468   0.33749   0.00000  Uiso   1.00
O386   O     0.39748   0.53779   0.19747   0.00000  Uiso   1.00
O387   O     0.59321   0.43631   0.13163   0.00000  Uiso   1.00
O388   O     0.55473   0.55314   0.37496   0.00000  Uiso   1.00
O389   O     0.51182   0.41434   0.27820   0.00000  Uiso   1.00
O390   O     0.47914   0.59469   0.26767   0.00000  Uiso   1.00
O391   O     0.40785   0.46584   0.23607   0.00000  Uiso   1.00
O392   O     0.60119   0.52512   0.21805   0.00000  Uiso   1.00
O393   O     0.40323   0.52293   0.27820   0.00000  Uiso   1.00
O394   O     0.58773   0.48610   0.26767   0.00000  Uiso   1.00
O395   O     0.47133   0.40236   0.23607   0.00000  Uiso   1.00
O396   O     0.53771   0.58860   0.21805   0.00000  Uiso   1.00
Zn397  Zn    0.52577   0.47423   0.28277   0.00000  Uiso   1.00
Zn398  Zn    0.46792   0.45711   0.22257   0.00000  Uiso   1.00
Zn399  Zn    0.54500   0.52997   0.21188   0.00000  Uiso   1.00
Zn400  Zn    0.46131   0.53868   0.28277   0.00000  Uiso   1.00
C401   C     0.71896   0.49281   0.25948   0.00000  Uiso   1.00
C402   C     0.87479   0.47517   0.45710   0.00000  Uiso   1.00
C403   C     0.90129   0.46189   0.47578   0.00000  Uiso   1.00
C404   C     0.94796   0.50698   0.24083   0.00000  Uiso   1.00
C405   C     0.89007   0.46407   0.01730   0.00000  Uiso   1.00
C406   C     0.84878   0.47600   0.03994   0.00000  Uiso   1.00
C407   C     0.91905   0.45397   0.03653   0.00000  Uiso   1.00
C408   C     0.90727   0.45651   0.07834   0.00000  Uiso   1.00
C409   C     0.83788   0.47820   0.08154   0.00000  Uiso   1.00
C410   C     0.99459   0.50993   0.23587   0.00000  Uiso   1.00
C411   C     0.67409   0.49192   0.26149   0.00000  Uiso   1.00
C412   C     0.75260   0.52520   0.42051   0.00000  Uiso   1.00
C413   C     0.84713   0.65572   0.23972   0.00000  Uiso   1.00
C414   C     0.81621   0.34576   0.26245   0.00000  Uiso   1.00
C415   C     0.82305   0.38956   0.25831   0.00000  Uiso   1.00
C416   C     0.84329   0.61105   0.24143   0.00000  Uiso   1.00
C417   C     0.85511   0.47867   0.14379   0.00000  Uiso   1.00
C418   C     0.81158   0.52087   0.35633   0.00000  Uiso   1.00
C419   C     0.79716   0.52474   0.40018   0.00000  Uiso   1.00
C420   C     0.86652   0.46922   0.10057   0.00000  Uiso   1.00
C421   C     0.73782   0.51984   0.46082   0.00000  Uiso   1.00
C422   C     0.96233   0.39833   0.00282   0.00000  Uiso   1.00
C423   C     0.82665   0.52166   0.42158   0.00000  Uiso   1.00
C424   C     0.69166   0.53252   0.20271   0.00000  Uiso   1.00
C425   C     0.74983   0.35444   0.31787   0.00000  Uiso   1.00
C426   C     0.93851   0.44640   0.09794   0.00000  Uiso   1.00
C427   C     0.71385   0.57225   0.40199   0.00000  Uiso   1.00
C428   C     0.87271   0.54081   0.40767   0.00000  Uiso   1.00
C429   C     0.81016   0.50780   0.46005   0.00000  Uiso   1.00
C430   C     0.76584   0.51032   0.48040   0.00000  Uiso   1.00
C431   C     0.83592   0.49131   0.47900   0.00000  Uiso   1.00
C432   C     0.82041   0.48711   0.02031   0.00000  Uiso   1.00
C433   C     0.77669   0.49278   0.04017   0.00000  Uiso   1.00
C434   C     0.74966   0.50287   0.02013   0.00000  Uiso   1.00
H435   H     0.71582   0.50507   0.03596   0.00000  Uiso   1.00
H436   H     0.94273   0.38692   0.48185   0.00000  Uiso   1.00
H437   H     0.94978   0.38094   0.02934   0.00000  Uiso   1.00
H438   H     0.99639   0.39223   0.48804   0.00000  Uiso   1.00
H439   H     0.67888   0.54494   0.18242   0.00000  Uiso   1.00
H440   H     0.75708   0.64225   0.26911   0.00000  Uiso   1.00
H441   H     0.72170   0.33523   0.33587   0.00000  Uiso   1.00
H442   H     0.73755   0.37820   0.30599   0.00000  Uiso   1.00
H443   H     0.76981   0.37003   0.33744   0.00000  Uiso   1.00
H444   H     0.97266   0.44686   0.08197   0.00000  Uiso   1.00
H445   H     0.69372   0.50999   0.40850   0.00000  Uiso   1.00
H446   H     0.98417   0.47622   0.28537   0.00000  Uiso   1.00
H447   H     0.69763   0.58438   0.43301   0.00000  Uiso   1.00
H448   H     0.69236   0.57347   0.38326   0.00000  Uiso   1.00
H449   H     0.74458   0.59245   0.39058   0.00000  Uiso   1.00
H450   H     0.89300   0.54603   0.42752   0.00000  Uiso   1.00
H451   H     0.87647   0.33689   0.22004   0.00000  Uiso   1.00
H452   H     0.80835   0.48980   0.10029   0.00000  Uiso   1.00
H453   H     0.93087   0.45026   0.45702   0.00000  Uiso   1.00
H454   H     0.70378   0.52122   0.47636   0.00000  Uiso   1.00
H455   H     0.76160   0.48714   0.07067   0.00000  Uiso   1.00
H456   H     0.88467   0.47157   0.42501   0.00000  Uiso   1.00
H457   H     0.97779   0.46075   0.49207   0.00000  Uiso   1.00
N458   N     0.96083   0.44253   0.01434   0.00000  Uiso   1.00
N459   N     0.77508   0.66123   0.28567   0.00000  Uiso   1.00
N460   N     0.72212   0.52968   0.40038   0.00000  Uiso   1.00
O461   O     0.83333   0.50000   0.25000   0.00000  Uiso   1.00
O462   O     0.82360   0.45726   0.16625   0.00000  Uiso   1.00
O463   O     0.79354   0.53979   0.33749   0.00000  Uiso   1.00
O464   O     0.87755   0.50826   0.15877   0.00000  Uiso   1.00
O465   O     0.83865   0.49468   0.33749   0.00000  Uiso   1.00
O466   O     0.73081   0.53779   0.19747   0.00000  Uiso   1.00
O467   O     0.92655   0.43631   0.13163   0.00000  Uiso   1.00
O468   O     0.88806   0.55314   0.37496   0.00000  Uiso   1.00
O469   O     0.84515   0.41434   0.27820   0.00000  Uiso   1.00
O470   O     0.81247   0.59469   0.26767   0.00000  Uiso   1.00
O471   O     0.74119   0.46584   0.23607   0.00000  Uiso   1.00
O472   O     0.93452   0.52512   0.21805   0.00000  Uiso   1.00
O473   O     0.73656   0.52293   0.27820   0.00000  Uiso   1.00
O474   O     0.92106   0.48610   0.26767   0.00000  Uiso   1.00
O475   O     0.80467   0.40236   0.23607   0.00000  Uiso   1.00
O476   O     0.87104   0.58860   0.21805   0.00000  Uiso   1.00
Zn477  Zn    0.85910   0.47423   0.28277   0.00000  Uiso   1.00
Zn478  Zn    0.80125   0.45711   0.22257   0.00000  Uiso   1.00
Zn479  Zn    0.87833   0.52997   0.21188   0.00000  Uiso   1.00
Zn480  Zn    0.79465   0.53868   0.28277   0.00000  Uiso   1.00
C481   C     0.05229   0.82614   0.25948   0.00000  Uiso   1.00
C482   C     0.20812   0.80850   0.45710   0.00000  Uiso   1.00
C483   C     0.23462   0.79523   0.47578   0.00000  Uiso   1.00
C484   C     0.28129   0.84031   0.24083   0.00000  Uiso   1.00
C485   C     0.22340   0.79741   0.01730   0.00000  Uiso   1.00
C486   C     0.18211   0.80933   0.03994   0.00000  Uiso   1.00
C487   C     0.25238   0.78730   0.03653   0.00000  Uiso   1.00
C488   C     0.24060   0.78985   0.07834   0.00000  Uiso   1.00
C489   C     0.17121   0.81153   0.08154   0.00000  Uiso   1.00
C490   C     0.32792   0.84326   0.23587   0.00000  Uiso   1.00
C491   C     0.00742   0.82526   0.26149   0.00000  Uiso   1.00
C492   C     0.08594   0.85853   0.42051   0.00000  Uiso   1.00
C493   C     0.18046   0.98906   0.23972   0.00000  Uiso   1.00
C494   C     0.14954   0.67909   0.26245   0.00000  Uiso   1.00
C495   C     0.15639   0.72290   0.25831   0.00000  Uiso   1.00
C496   C     0.17662   0.94438   0.24143   0.00000  Uiso   1.00
C497   C     0.18845   0.81201   0.14379   0.00000  Uiso   1.00
C498   C     0.14492   0.85420   0.35633   0.00000  Uiso   1.00
C499   C     0.13050   0.85808   0.40018   0.00000  Uiso   1.00
C500   C     0.19985   0.80256   0.10057   0.00000  Uiso   1.00
C501   C     0.07116   0.85317   0.46082   0.00000  Uiso   1.00
C502   C     0.29566   0.73166   0.00282   0.00000  Uiso   1.00
C503   C     0.15999   0.85499   0.42158   0.00000  Uiso   1.00
C504   C     0.02500   0.86585   0.20271   0.00000  Uiso   1.00
C505   C     0.08316   0.68778   0.31787   0.00000  Uiso   1.00
C506   C     0.27184   0.77973   0.09794   0.00000  Uiso   1.00
C507   C     0.04718   0.90559   0.40199   0.00000  Uiso   1.00
C508   C     0.20604   0.87414   0.40767   0.00000  Uiso   1.00
C509   C     0.14349   0.84113   0.46005   0.00000  Uiso   1.00
C510   C     0.09918   0.84365   0.48040   0.00000  Uiso   1.00
C511   C     0.16925   0.82465   0.47900   0.00000  Uiso   1.00
C512   C     0.15374   0.82045   0.02031   0.00000  Uiso   1.00
C513   C     0.11002   0.82612   0.04017   0.00000  Uiso   1.00
C514   C     0.08300   0.83621   0.02013   0.00000  Uiso   1.00
H515   H     0.04915   0.83841   0.03596   0.00000  Uiso   1.00
H516   H     0.27607   0.72025   0.48185   0.00000  Uiso   1.00
H517   H     0.28311   0.71427   0.02934   0.00000  Uiso   1.00
H518   H     0.32972   0.72556   0.48804   0.00000  Uiso   1.00
H519   H     0.01221   0.87827   0.18242   0.00000  Uiso   1.00
H520   H     0.09041   0.97558   0.26911   0.00000  Uiso   1.00
H521   H     0.05504   0.66856   0.33587   0.00000  Uiso   1.00
H522   H     0.07089   0.71153   0.30599   0.00000  Uiso   1.00
H523   H     0.10315   0.70337   0.33744   0.00000  Uiso   1.00
H524   H     0.30599   0.78020   0.08197   0.00000  Uiso   1.00
H525   H     0.02706   0.84332   0.40850   0.00000  Uiso   1.00
H526   H     0.31750   0.80955   0.28537   0.00000  Uiso   1.00
H527   H     0.03097   0.91771   0.43301   0.00000  Uiso   1.00
H528   H     0.02569   0.90680   0.38326   0.00000  Uiso   1.00
H529   H     0.07791   0.92578   0.39058   0.00000  Uiso   1.00
H530   H     0.22634   0.87936   0.42752   0.00000  Uiso   1.00
H531   H     0.20980   0.67023   0.22004   0.00000  Uiso   1.00
H532   H     0.14169   0.82314   0.10029   0.00000  Uiso   1.00
H533   H     0.26421   0.78359   0.45702   0.00000  Uiso   1.00
H534   H     0.03712   0.85455   0.47636   0.00000  Uiso   1.00
H535   H     0.09494   0.82047   0.07067   0.00000  Uiso   1.00
H536   H     0.21800   0.80491   0.42501   0.00000  Uiso   1.00
H537   H     0.31113   0.79409   0.49207   0.00000  Uiso   1.00
N538   N     0.29416   0.77587   0.01434   0.00000  Uiso   1.00
N539   N     0.10842   0.99456   0.28567   0.00000  Uiso   1.00
N540   N     0.05545   0.86301   0.40038   0.00000  Uiso   1.00
O541   O     0.16667   0.83333   0.25000   0.00000  Uiso   1.00
O542   O     0.15693   0.79060   0.16625   0.00000  Uiso   1.00
O543   O     0.12687   0.87313   0.33749   0.00000  Uiso   1.00
O544   O     0.21088   0.84159   0.15877   0.00000  Uiso   1.00
O545   O     0.17198   0.82802   0.33749   0.00000  Uiso   1.00
O546   O     0.06415   0.87112   0.19747   0.00000  Uiso   1.00
O547   O     0.25988   0.76964   0.13163   0.00000  Uiso   1.00
O548   O     0.22139   0.88647   0.37496   0.00000  Uiso   1.00
O549   O     0.17849   0.74768   0.27820   0.00000  Uiso   1.00
O550   O     0.14581   0.92803   0.26767   0.00000  Uiso   1.00
O551   O     0.07452   0.79917   0.23607   0.00000  Uiso   1.00
O552   O     0.26785   0.85845   0.21805   0.00000  Uiso   1.00
O553   O     0.06990   0.85627   0.27820   0.00000  Uiso   1.00
O554   O     0.25440   0.81944   0.26767   0.00000  Uiso   1.00
O555   O     0.13800   0.73570   0.23607   0.00000  Uiso   1.00
O556   O     0.20437   0.92193   0.21805   0.00000  Uiso   1.00
Zn557  Zn    0.19244   0.80756   0.28277   0.00000  Uiso   1.00
Zn558  Zn    0.13459   0.79044   0.22257   0.00000  Uiso   1.00
Zn559  Zn    0.21166   0.86331   0.21188   0.00000  Uiso   1.00
Zn560  Zn    0.12798   0.87202   0.28277   0.00000  Uiso   1.00
C561   C     0.38563   0.82614   0.25948   0.00000  Uiso   1.00
C562   C     0.54145   0.80850   0.45710   0.00000  Uiso   1.00
C563   C     0.56795   0.79523   0.47578   0.00000  Uiso   1.00
C564   C     0.61462   0.84031   0.24083   0.00000  Uiso   1.00
C565   C     0.55673   0.79741   0.01730   0.00000  Uiso   1.00
C566   C     0.51544   0.80933   0.03994   0.00000  Uiso   1.00
C567   C     0.58572   0.78730   0.03653   0.00000  Uiso   1.00
C568   C     0.57393   0.78985   0.07834   0.00000  Uiso   1.00
C569   C     0.50455   0.81153   0.08154   0.00000  Uiso   1.00
C570   C     0.66125   0.84326   0.23587   0.00000  Uiso   1.00
C571   C     0.34075   0.82526   0.26149   0.00000  Uiso   1.00
C572   C     0.41927   0.85853   0.42051   0.00000  Uiso   1.00
C573   C     0.51380   0.98906   0.23972   0.00000  Uiso   1.00
C574   C     0.48288   0.67909   0.26245   0.00000  Uiso   1.00
C575   C     0.48972   0.72290   0.25831   0.00000  Uiso   1.00
C576   C     0.50996   0.94438   0.24143   0.00000  Uiso   1.00
C577   C     0.52178   0.81201   0.14379   0.00000  Uiso   1.00
C578   C     0.47825   0.85420   0.35633   0.00000  Uiso   1.00
C579   C     0.46383   0.85808   0.40018   0.00000  Uiso   1.00
C580   C     0.53319   0.80256   0.10057   0.00000  Uiso   1.00
C581   C     0.40449   0.85317   0.46082   0.00000  Uiso   1.00
C582   C     0.62899   0.73166   0.00282   0.00000  Uiso   1.00
C583   C     0.49332   0.85499   0.42158   0.00000  Uiso   1.00
C584   C     0.35833   0.86585   0.20271   0.00000  Uiso   1.00
C585   C     0.41650   0.68778   0.31787   0.00000  Uiso   1.00
C586   C     0.60517   0.77973   0.09794   0.00000  Uiso   1.00
C587   C     0.38051   0.90559   0.40199   0.00000  Uiso   1.00
C588   C     0.53937   0.87414   0.40767   0.00000  Uiso   1.00
C589   C     0.47682   0.84113   0.46005   0.00000  Uiso   1.00
C590   C     0.43251   0.84365   0.48040   0.00000  Uiso   1.00
C591   C     0.50259   0.82465   0.47900   0.00000  Uiso   1.00
C592   C     0.48708   0.82045   0.02031   0.00000  Uiso   1.00
C593   C     0.44336   0.82612   0.04017   0.00000  Uiso   1.00
C594   C     0.41633   0.83621   0.02013   0.00000  Uiso   1.00
H595   H     0.38248   0.83841   0.03596   0.00000  Uiso   1.00
H596   H     0.60940   0.72025   0.48185   0.00000  Uiso   1.00
H597   H     0.61644   0.71427   0.02934   0.00000  Uiso   1.00
H598   H     0.66306   0.72556   0.48804   0.00000  Uiso   1.00
H599   H     0.34555   0.87827   0.18242   0.00000  Uiso   1.00
H600   H     0.42375   0.97558   0.26911   0.00000  Uiso   1.00
H601   H     0.38837   0.66856   0.33587   0.00000  Uiso   1.00
H602   H     0.40422   0.71153   0.30599   0.00000  Uiso   1.00
H603   H     0.43648   0.70337   0.33744   0.00000  Uiso   1.00
H604   H     0.63933   0.78020   0.08197   0.00000  Uiso   1.00
H605   H     0.36039   0.84332   0.40850   0.00000  Uiso   1.00
H606   H     0.65084   0.80955   0.28537   0.00000  Uiso   1.00
H607   H     0.36430   0.91771   0.43301   0.00000  Uiso   1.00
H608   H     0.35902   0.90680   0.38326   0.00000  Uiso   1.00
H609   H     0.41125   0.92578   0.39058   0.00000  Uiso   1.00
H610   H     0.55967   0.87936   0.42752   0.00000  Uiso   1.00
H611   H     0.54314   0.67023   0.22004   0.00000  Uiso   1.00
H612   H     0.47502   0.82314   0.10029   0.00000  Uiso   1.00
H613   H     0.59754   0.78359   0.45702   0.00000  Uiso   1.00
H614   H     0.37045   0.85455   0.47636   0.00000  Uiso   1.00
H615   H     0.42827   0.82047   0.07067   0.00000  Uiso   1.00
H616   H     0.55134   0.80491   0.42501   0.00000  Uiso   1.00
H617   H     0.64446   0.79409   0.49207   0.00000  Uiso   1.00
N618   N     0.62750   0.77587   0.01434   0.00000  Uiso   1.00
N619   N     0.44175   0.99456   0.28567   0.00000  Uiso   1.00
N620   N     0.38878   0.86301   0.40038   0.00000  Uiso   1.00
O621   O     0.50000   0.83333   0.25000   0.00000  Uiso   1.00
O622   O     0.49027   0.79060   0.16625   0.00000  Uiso   1.00
O623   O     0.46020   0.87313   0.33749   0.00000  Uiso   1.00
O624   O     0.54421   0.84159   0.15877   0.00000  Uiso   1.00
O625   O     0.50532   0.82802   0.33749   0.00000  Uiso   1.00
O626   O     0.39748   0.87112   0.19747   0.00000  Uiso   1.00
O627   O     0.59321   0.76964   0.13163   0.00000  Uiso   1.00
O628   O     0.55473   0.88647   0.37496   0.00000  Uiso   1.00
O629   O     0.51182   0.74768   0.27820   0.00000  Uiso   1.00
O630   O     0.47914   0.92803   0.26767   0.00000  Uiso   1.00
O631   O     0.40785   0.79917   0.23607   0.00000  Uiso   1.00
O632   O     0.60119   0.85845   0.21805   0.00000  Uiso   1.00
O633   O     0.40323   0.85627   0.27820   0.00000  Uiso   1.00
O634   O     0.58773   0.81944   0.26767   0.00000  Uiso   1.00
O635   O     0.47133   0.73570   0.23607   0.00000  Uiso   1.00
O636   O     0.53771   0.92193   0.21805   0.00000  Uiso   1.00
Zn637  Zn    0.52577   0.80756   0.28277   0.00000  Uiso   1.00
Zn638  Zn    0.46792   0.79044   0.22257   0.00000  Uiso   1.00
Zn639  Zn    0.54500   0.86331   0.21188   0.00000  Uiso   1.00
Zn640  Zn    0.46131   0.87202   0.28277   0.00000  Uiso   1.00
C641   C     0.71896   0.82614   0.25948   0.00000  Uiso   1.00
C642   C     0.87479   0.80850   0.45710   0.00000  Uiso   1.00
C643   C     0.90129   0.79523   0.47578   0.00000  Uiso   1.00
C644   C     0.94796   0.84031   0.24083   0.00000  Uiso   1.00
C645   C     0.89007   0.79741   0.01730   0.00000  Uiso   1.00
C646   C     0.84878   0.80933   0.03994   0.00000  Uiso   1.00
C647   C     0.91905   0.78730   0.03653   0.00000  Uiso   1.00
C648   C     0.90727   0.78985   0.07834   0.00000  Uiso   1.00
C649   C     0.83788   0.81153   0.08154   0.00000  Uiso   1.00
C650   C     0.99459   0.84326   0.23587   0.00000  Uiso   1.00
C651   C     0.67409   0.82526   0.26149   0.00000  Uiso   1.00
C652   C     0.75260   0.85853   0.42051   0.00000  Uiso   1.00
C653   C     0.84713   0.98906   0.23972   0.00000  Uiso   1.00
C654   C     0.81621   0.67909   0.26245   0.00000  Uiso   1.00
C655   C     0.82305   0.72290   0.25831   0.00000  Uiso   1.00
C656   C     0.84329   0.94438   0.24143   0.00000  Uiso   1.00
C657   C     0.85511   0.81201   0.14379   0.00000  Uiso   1.00
C658   C     0.81158   0.85420   0.35633   0.00000  Uiso   1.00
C659   C     0.79716   0.85808   0.40018   0.00000  Uiso   1.00
C660   C     0.86652   0.80256   0.10057   0.00000  Uiso   1.00
C661   C     0.73782   0.85317   0.46082   0.00000  Uiso   1.00
C662   C     0.96233   0.73166   0.00282   0.00000  Uiso   1.00
C663   C     0.82665   0.85499   0.42158   0.00000  Uiso   1.00
C664   C     0.69166   0.86585   0.20271   0.00000  Uiso   1.00
C665   C     0.74983   0.68778   0.31787   0.00000  Uiso   1.00
C666   C     0.93851   0.77973   0.09794   0.00000  Uiso   1.00
C667   C     0.71385   0.90559   0.40199   0.00000  Uiso   1.00
C668   C     0.87271   0.87414   0.40767   0.00000  Uiso   1.00
C669   C     0.81016   0.84113   0.46005   0.00000  Uiso   1.00
C670   C     0.76584   0.84365   0.48040   0.00000  Uiso   1.00
C671   C     0.83592   0.82465   0.47900   0.00000  Uiso   1.00
C672   C     0.82041   0.82045   0.02031   0.00000  Uiso   1.00
C673   C     0.77669   0.82612   0.04017   0.00000  Uiso   1.00
C674   C     0.74966   0.83621   0.02013   0.00000  Uiso   1.00
H675   H     0.71582   0.83841   0.03596   0.00000  Uiso   1.00
H676   H     0.94273   0.72025   0.48185   0.00000  Uiso   1.00
H677   H     0.94978   0.71427   0.02934   0.00000  Uiso   1.00
H678   H     0.99639   0.72556   0.48804   0.00000  Uiso   1.00
H679   H     0.67888   0.87827   0.18242   0.00000  Uiso   1.00
H680   H     0.75708   0.97558   0.26911   0.00000  Uiso   1.00
H681   H     0.72170   0.66856   0.33587   0.00000  Uiso   1.00
H682   H     0.73755   0.71153   0.30599   0.00000  Uiso   1.00
H683   H     0.76981   0.70337   0.33744   0.00000  Uiso   1.00
H684   H     0.97266   0.78020   0.08197   0.00000  Uiso   1.00
H685   H     0.69372   0.84332   0.40850   0.00000  Uiso   1.00
H686   H     0.98417   0.80955   0.28537   0.00000  Uiso   1.00
H687   H     0.69763   0.91771   0.43301   0.00000  Uiso   1.00
H688   H     0.69236   0.90680   0.38326   0.00000  Uiso   1.00
H689   H     0.74458   0.92578   0.39058   0.00000  Uiso   1.00
H690   H     0.89300   0.87936   0.42752   0.00000  Uiso   1.00
H691   H     0.87647   0.67023   0.22004   0.00000  Uiso   1.00
H692   H     0.80835   0.82314   0.10029   0.00000  Uiso   1.00
H693   H     0.93087   0.78359   0.45702   0.00000  Uiso   1.00
H694   H     0.70378   0.85455   0.47636   0.00000  Uiso   1.00
H695   H     0.76160   0.82047   0.07067   0.00000  Uiso   1.00
H696   H     0.88467   0.80491   0.42501   0.00000  Uiso   1.00
H697   H     0.97779   0.79409   0.49207   0.00000  Uiso   1.00
N698   N     0.96083   0.77587   0.01434   0.00000  Uiso   1.00
N699   N     0.77508   0.99456   0.28567   0.00000  Uiso   1.00
N700   N     0.72212   0.86301   0.40038   0.00000  Uiso   1.00
O701   O     0.83333   0.83333   0.25000   0.00000  Uiso   1.00
O702   O     0.82360   0.79060   0.16625   0.00000  Uiso   1.00
O703   O     0.79354   0.87313   0.33749   0.00000  Uiso   1.00
O704   O     0.87755   0.84159   0.15877   0.00000  Uiso   1.00
O705   O     0.83865   0.82802   0.33749   0.00000  Uiso   1.00
O706   O     0.73081   0.87112   0.19747   0.00000  Uiso   1.00
O707   O     0.92655   0.76964   0.13163   0.00000  Uiso   1.00
O708   O     0.88806   0.88647   0.37496   0.00000  Uiso   1.00
O709   O     0.84515   0.74768   0.27820   0.00000  Uiso   1.00
O710   O     0.81247   0.92803   0.26767   0.00000  Uiso   1.00
O711   O     0.74119   0.79917   0.23607   0.00000  Uiso   1.00
O712   O     0.93452   0.85845   0.21805   0.00000  Uiso   1.00
O713   O     0.73656   0.85627   0.27820   0.00000  Uiso   1.00
O714   O     0.92106   0.81944   0.26767   0.00000  Uiso   1.00
O715   O     0.80467   0.73570   0.23607   0.00000  Uiso   1.00
O716   O     0.87104   0.92193   0.21805   0.00000  Uiso   1.00
Zn717  Zn    0.85910   0.80756   0.28277   0.00000  Uiso   1.00
Zn718  Zn    0.80125   0.79044   0.22257   0.00000  Uiso   1.00
Zn719  Zn    0.87833   0.86331   0.21188   0.00000  Uiso   1.00
Zn720  Zn    0.79465   0.87202   0.28277   0.00000  Uiso   1.00
C721   C     0.05229   0.15948   0.75948   0.00000  Uiso   1.00
C722   C     0.20812   0.14184   0.95710   0.00000  Uiso   1.00
C723   C     0.23462   0.12856   0.97578   0.00000  Uiso   1.00
C724   C     0.28129   0.17365   0.74083   0.00000  Uiso   1.00
C725   C     0.22340   0.13074   0.51730   0.00000  Uiso   1.00
C726   C     0.18211   0.14267   0.53994   0.00000  Uiso   1.00
C727   C     0.25238   0.12063   0.53653   0.00000  Uiso   1.00
C728   C     0.24060   0.12318   0.57834   0.00000  Uiso   1.00
C729   C     0.17121   0.14486   0.58154   0.00000  Uiso   1.00
C730   C     0.32792   0.17659   0.73587   0.00000  Uiso   1.00
C731   C     0.00742   0.15859   0.76149   0.00000  Uiso   1.00
C732   C     0.08594   0.19186   0.92051   0.00000  Uiso   1.00
C733   C     0.18046   0.32239   0.73972   0.00000  Uiso   1.00
C734   C     0.14954   0.01243   0.76245   0.00000  Uiso   1.00
C735   C     0.15639   0.05623   0.75831   0.00000  Uiso   1.00
C736   C     0.17662   0.27772   0.74143   0.00000  Uiso   1.00
C737   C     0.18845   0.14534   0.64379   0.00000  Uiso   1.00
C738   C     0.14492   0.18753   0.85633   0.00000  Uiso   1.00
C739   C     0.13050   0.19141   0.90018   0.00000  Uiso   1.00
C740   C     0.19985   0.13589   0.60057   0.00000  Uiso   1.00
C741   C     0.07116   0.18650   0.96082   0.00000  Uiso   1.00
C742   C     0.29566   0.06499   0.50282   0.00000  Uiso   1.00
C743   C     0.15999   0.18833   0.92158   0.00000  Uiso   1.00
C744   C     0.02500   0.19919   0.70271   0.00000  Uiso   1.00
C745   C     0.08316   0.02111   0.81787   0.00000  Uiso   1.00
C746   C     0.27184   0.11306   0.59794   0.00000  Uiso   1.00
C747   C     0.04718   0.23892   0.90199   0.00000  Uiso   1.00
C748   C     0.20604   0.20747   0.90767   0.00000  Uiso   1.00
C749   C     0.14349   0.17447   0.96005   0.00000  Uiso   1.00
C750   C     0.09918   0.17698   0.98040   0.00000  Uiso   1.00
C751   C     0.16925   0.15798   0.97900   0.00000  Uiso   1.00
C752   C     0.15374   0.15378   0.52031   0.00000  Uiso   1.00
C753   C     0.11002   0.15945   0.54017   0.00000  Uiso   1.00
C754   C     0.08300   0.16954   0.52013   0.00000  Uiso   1.00
H755   H     0.04915   0.17174   0.53596   0.00000  Uiso   1.00
H756   H     0.27607   0.05359   0.98185   0.00000  Uiso   1.00
H757   H     0.28311   0.04760   0.52934   0.00000  Uiso   1.00
H758   H     0.32972   0.05890   0.98804   0.00000  Uiso   1.00
H759   H     0.01221   0.21160   0.68242   0.00000  Uiso   1.00
H760   H     0.09041   0.30891   0.76911   0.00000  Uiso   1.00
H761   H     0.05504   0.00189   0.83587   0.00000  Uiso   1.00
H762   H     0.07089   0.04487   0.80599   0.00000  Uiso   1.00
H763   H     0.10315   0.03670   0.83744   0.00000  Uiso   1.00
H764   H     0.30599   0.11353   0.58197   0.00000  Uiso   1.00
H765   H     0.02706   0.17665   0.90850   0.00000  Uiso   1.00
H766   H     0.31750   0.14289   0.78537   0.00000  Uiso   1.00
H767   H     0.03097   0.25104   0.93301   0.00000  Uiso   1.00
H768   H     0.02569   0.24014   0.88326   0.00000  Uiso   1.00
H769   H     0.07791   0.25911   0.89058   0.00000  Uiso   1.00
H770   H     0.22634   0.21270   0.92752   0.00000  Uiso   1.00
H771   H     0.20980   0.00356   0.72004   0.00000  Uiso   1.00
H772   H     0.14169   0.15647   0.60029   0.00000  Uiso   1.00
H773   H     0.26421   0.11693   0.95702   0.00000  Uiso   1.00
H774   H     0.03712   0.18789   0.97636   0.00000  Uiso   1.00
H775   H     0.09494   0.15381   0.57067   0.00000  Uiso   1.00
H776   H     0.21800   0.13824   0.92501   0.00000  Uiso   1.00
H777   H     0.31113   0.12742   0.99207   0.00000  Uiso   1.00
N778   N     0.29416   0.10920   0.51434   0.00000  Uiso   1.00
N779   N     0.10842   0.32790   0.78567   0.00000  Uiso   1.00
N780   N     0.05545   0.19634   0.90038   0.00000  Uiso   1.00
O781   O     0.16667   0.16667   0.75000   0.00000  Uiso   1.00
O782   O     0.15693   0.12393   0.66625   0.00000  Uiso   1.00
O783   O     0.12687   0.20646   0.83749   0.00000  Uiso   1.00
O784   O     0.21088   0.17493   0.65877   0.00000  Uiso   1.00
O785   O     0.17198   0.16135   0.83749   0.00000  Uiso   1.00
O786   O     0.06415   0.20446   0.69747   0.00000  Uiso   1.00
O787   O     0.25988   0.10298   0.63163   0.00000  Uiso   1.00
O788   O     0.22139   0.21981   0.87496   0.00000  Uiso   1.00
O789   O     0.17849   0.08101   0.77820   0.00000  Uiso   1.00
O790   O     0.14581   0.26136   0.76767   0.00000  Uiso   1.00
O791   O     0.07452   0.13251   0.73607   0.00000  Uiso   1.00
O792   O     0.26785   0.19179   0.71805   0.00000  Uiso   1.00
O793   O     0.06990   0.18960   0.77820   0.00000  Uiso   1.00
O794   O     0.25440   0.15277   0.76767   0.00000  Uiso   1.00
O795   O     0.13800   0.06903   0.73607   0.00000  Uiso   1.00
O796   O     0.20437   0.25527   0.71805   0.00000  Uiso   1.00
Zn797  Zn    0.19244   0.14090   0.78277   0.00000  Uiso   1.00
Zn798  Zn    0.13459   0.12378   0.72257   0.00000  Uiso   1.00
Zn799  Zn    0.21166   0.19664   0.71188   0.00000  Uiso   1.00
Zn800  Zn    0.12798   0.20535   0.78277   0.00000  Uiso   1.00
C801   C     0.38563   0.15948   0.75948   0.00000  Uiso   1.00
C802   C     0.54145   0.14184   0.95710   0.00000  Uiso   1.00
C803   C     0.56795   0.12856   0.97578   0.00000  Uiso   1.00
C804   C     0.61462   0.17365   0.74083   0.00000  Uiso   1.00
C805   C     0.55673   0.13074   0.51730   0.00000  Uiso   1.00
C806   C     0.51544   0.14267   0.53994   0.00000  Uiso   1.00
C807   C     0.58572   0.12063   0.53653   0.00000  Uiso   1.00
C808   C     0.57393   0.12318   0.57834   0.00000  Uiso   1.00
C809   C     0.50455   0.14486   0.58154   0.00000  Uiso   1.00
C810   C     0.66125   0.17659   0.73587   0.00000  Uiso   1.00
C811   C     0.34075   0.15859   0.76149   0.00000  Uiso   1.00
C812   C     0.41927   0.19186   0.92051   0.00000  Uiso   1.00
C813   C     0.51380   0.32239   0.73972   0.00000  Uiso   1.00
C814   C     0.48288   0.01243   0.76245   0.00000  Uiso   1.00
C815   C     0.48972   0.05623   0.75831   0.00000  Uiso   1.00
C816   C     0.50996   0.27772   0.74143   0.00000  Uiso   1.00
C817   C     0.52178   0.14534   0.64379   0.00000  Uiso   1.00
C818   C     0.47825   0.18753   0.85633   0.00000  Uiso   1.00
C819   C     0.46383   0.19141   0.90018   0.00000  Uiso   1.00
C820   C     0.53319   0.13589   0.60057   0.00000  Uiso   1.00
C821   C     0.40449   0.18650   0.96082   0.00000  Uiso   1.00
C822   C     0.62899   0.06499   0.50282   0.00000  Uiso   1.00
C823   C     0.49332   0.18833   0.92158   0.00000  Uiso   1.00
C824   C     0.35833   0.19919   0.70271   0.00000  Uiso   1.00
C825   C     0.41650   0.02111   0.81787   0.00000  Uiso   1.00
C826   C     0.60517   0.11306   0.59794   0.00000  Uiso   1.00
C827   C     0.38051   0.23892   0.90199   0.00000  Uiso   1.00
C828   C     0.53937   0.20747   0.90767   0.00000  Uiso   1.00
C829   C     0.47682   0.17447   0.96005   0.00000  Uiso   1.00
C830   C     0.43251   0.17698   0.98040   0.00000  Uiso   1.00
C831   C     0.50259   0.15798   0.97900   0.00000  Uiso   1.00
C832   C     0.48708   0.15378   0.52031   0.00000  Uiso   1.00
C833   C     0.44336   0.15945   0.54017   0.00000  Uiso   1.00
C834   C     0.41633   0.16954   0.52013   0.00000  Uiso   1.00
H835   H     0.38248   0.17174   0.53596   0.00000  Uiso   1.00
H836   H     0.60940   0.05359   0.98185   0.00000  Uiso   1.00
H837   H     0.61644   0.04760   0.52934   0.00000  Uiso   1.00
H838   H     0.66306   0.05890   0.98804   0.00000  Uiso   1.00
H839   H     0.34555   0.21160   0.68242   0.00000  Uiso   1.00
H840   H     0.42375   0.30891   0.76911   0.00000  Uiso   1.00
H841   H     0.38837   0.00189   0.83587   0.00000  Uiso   1.00
H842   H     0.40422   0.04487   0.80599   0.00000  Uiso   1.00
H843   H     0.43648   0.03670   0.83744   0.00000  Uiso   1.00
H844   H     0.63933   0.11353   0.58197   0.00000  Uiso   1.00
H845   H     0.36039   0.17665   0.90850   0.00000  Uiso   1.00
H846   H     0.65084   0.14289   0.78537   0.00000  Uiso   1.00
H847   H     0.36430   0.25104   0.93301   0.00000  Uiso   1.00
H848   H     0.35902   0.24014   0.88326   0.00000  Uiso   1.00
H849   H     0.41125   0.25911   0.89058   0.00000  Uiso   1.00
H850   H     0.55967   0.21270   0.92752   0.00000  Uiso   1.00
H851   H     0.54314   0.00356   0.72004   0.00000  Uiso   1.00
H852   H     0.47502   0.15647   0.60029   0.00000  Uiso   1.00
H853   H     0.59754   0.11693   0.95702   0.00000  Uiso   1.00
H854   H     0.37045   0.18789   0.97636   0.00000  Uiso   1.00
H855   H     0.42827   0.15381   0.57067   0.00000  Uiso   1.00
H856   H     0.55134   0.13824   0.92501   0.00000  Uiso   1.00
H857   H     0.64446   0.12742   0.99207   0.00000  Uiso   1.00
N858   N     0.62750   0.10920   0.51434   0.00000  Uiso   1.00
N859   N     0.44175   0.32790   0.78567   0.00000  Uiso   1.00
N860   N     0.38878   0.19634   0.90038   0.00000  Uiso   1.00
O861   O     0.50000   0.16667   0.75000   0.00000  Uiso   1.00
O862   O     0.49027   0.12393   0.66625   0.00000  Uiso   1.00
O863   O     0.46020   0.20646   0.83749   0.00000  Uiso   1.00
O864   O     0.54421   0.17493   0.65877   0.00000  Uiso   1.00
O865   O     0.50532   0.16135   0.83749   0.00000  Uiso   1.00
O866   O     0.39748   0.20446   0.69747   0.00000  Uiso   1.00
O867   O     0.59321   0.10298   0.63163   0.00000  Uiso   1.00
O868   O     0.55473   0.21981   0.87496   0.00000  Uiso   1.00
O869   O     0.51182   0.08101   0.77820   0.00000  Uiso   1.00
O870   O     0.47914   0.26136   0.76767   0.00000  Uiso   1.00
O871   O     0.40785   0.13251   0.73607   0.00000  Uiso   1.00
O872   O     0.60119   0.19179   0.71805   0.00000  Uiso   1.00
O873   O     0.40323   0.18960   0.77820   0.00000  Uiso   1.00
O874   O     0.58773   0.15277   0.76767   0.00000  Uiso   1.00
O875   O     0.47133   0.06903   0.73607   0.00000  Uiso   1.00
O876   O     0.53771   0.25527   0.71805   0.00000  Uiso   1.00
Zn877  Zn    0.52577   0.14090   0.78277   0.00000  Uiso   1.00
Zn878  Zn    0.46792   0.12378   0.72257   0.00000  Uiso   1.00
Zn879  Zn    0.54500   0.19664   0.71188   0.00000  Uiso   1.00
Zn880  Zn    0.46131   0.20535   0.78277   0.00000  Uiso   1.00
C881   C     0.71896   0.15948   0.75948   0.00000  Uiso   1.00
C882   C     0.87479   0.14184   0.95710   0.00000  Uiso   1.00
C883   C     0.90129   0.12856   0.97578   0.00000  Uiso   1.00
C884   C     0.94796   0.17365   0.74083   0.00000  Uiso   1.00
C885   C     0.89007   0.13074   0.51730   0.00000  Uiso   1.00
C886   C     0.84878   0.14267   0.53994   0.00000  Uiso   1.00
C887   C     0.91905   0.12063   0.53653   0.00000  Uiso   1.00
C888   C     0.90727   0.12318   0.57834   0.00000  Uiso   1.00
C889   C     0.83788   0.14486   0.58154   0.00000  Uiso   1.00
C890   C     0.99459   0.17659   0.73587   0.00000  Uiso   1.00
C891   C     0.67409   0.15859   0.76149   0.00000  Uiso   1.00
C892   C     0.75260   0.19186   0.92051   0.00000  Uiso   1.00
C893   C     0.84713   0.32239   0.73972   0.00000  Uiso   1.00
C894   C     0.81621   0.01243   0.76245   0.00000  Uiso   1.00
C895   C     0.82305   0.05623   0.75831   0.00000  Uiso   1.00
C896   C     0.84329   0.27772   0.74143   0.00000  Uiso   1.00
C897   C     0.85511   0.14534   0.64379   0.00000  Uiso   1.00
C898   C     0.81158   0.18753   0.85633   0.00000  Uiso   1.00
C899   C     0.79716   0.19141   0.90018   0.00000  Uiso   1.00
C900   C     0.86652   0.13589   0.60057   0.00000  Uiso   1.00
C901   C     0.73782   0.18650   0.96082   0.00000  Uiso   1.00
C902   C     0.96233   0.06499   0.50282   0.00000  Uiso   1.00
C903   C     0.82665   0.18833   0.92158   0.00000  Uiso   1.00
C904   C     0.69166   0.19919   0.70271   0.00000  Uiso   1.00
C905   C     0.74983   0.02111   0.81787   0.00000  Uiso   1.00
C906   C     0.93851   0.11306   0.59794   0.00000  Uiso   1.00
C907   C     0.71385   0.23892   0.90199   0.00000  Uiso   1.00
C908   C     0.87271   0.20747   0.90767   0.00000  Uiso   1.00
C909   C     0.81016   0.17447   0.96005   0.00000  Uiso   1.00
C910   C     0.76584   0.17698   0.98040   0.00000  Uiso   1.00
C911   C     0.83592   0.15798   0.97900   0.00000  Uiso   1.00
C912   C     0.82041   0.15378   0.52031   0.00000  Uiso   1.00
C913   C     0.77669   0.15945   0.54017   0.00000  Uiso   1.00
C914   C     0.74966   0.16954   0.52013   0.00000  Uiso   1.00
H915   H     0.71582   0.17174   0.53596   0.00000  Uiso   1.00
H916   H     0.94273   0.05359   0.98185   0.00000  Uiso   1.00
H917   H     0.94978   0.04760   0.52934   0.00000  Uiso   1.00
H918   H     0.99639   0.05890   0.98804   0.00000  Uiso   1.00
H919   H     0.67888   0.21160   0.68242   0.00000  Uiso   1.00
H920   H     0.75708   0.30891   0.76911   0.00000  Uiso   1.00
H921   H     0.72170   0.00189   0.83587   0.00000  Uiso   1.00
H922   H     0.73755   0.04487   0.80599   0.00000  Uiso   1.00
H923   H     0.76981   0.03670   0.83744   0.00000  Uiso   1.00
H924   H     0.97266   0.11353   0.58197   0.00000  Uiso   1.00
H925   H     0.69372   0.17665   0.90850   0.00000  Uiso   1.00
H926   H     0.98417   0.14289   0.78537   0.00000  Uiso   1.00
H927   H     0.69763   0.25104   0.93301   0.00000  Uiso   1.00
H928   H     0.69236   0.24014   0.88326   0.00000  Uiso   1.00
H929   H     0.74458   0.25911   0.89058   0.00000  Uiso   1.00
H930   H     0.89300   0.21270   0.92752   0.00000  Uiso   1.00
H931   H     0.87647   0.00356   0.72004   0.00000  Uiso   1.00
H932   H     0.80835   0.15647   0.60029   0.00000  Uiso   1.00
H933   H     0.93087   0.11693   0.95702   0.00000  Uiso   1.00
H934   H     0.70378   0.18789   0.97636   0.00000  Uiso   1.00
H935   H     0.76160   0.15381   0.57067   0.00000  Uiso   1.00
H936   H     0.88467   0.13824   0.92501   0.00000  Uiso   1.00
H937   H     0.97779   0.12742   0.99207   0.00000  Uiso   1.00
N938   N     0.96083   0.10920   0.51434   0.00000  Uiso   1.00
N939   N     0.77508   0.32790   0.78567   0.00000  Uiso   1.00
N940   N     0.72212   0.19634   0.90038   0.00000  Uiso   1.00
O941   O     0.83333   0.16667   0.75000   0.00000  Uiso   1.00
O942   O     0.82360   0.12393   0.66625   0.00000  Uiso   1.00
O943   O     0.79354   0.20646   0.83749   0.00000  Uiso   1.00
O944   O     0.87755   0.17493   0.65877   0.00000  Uiso   1.00
O945   O     0.83865   0.16135   0.83749   0.00000  Uiso   1.00
O946   O     0.73081   0.20446   0.69747   0.00000  Uiso   1.00
O947   O     0.92655   0.10298   0.63163   0.00000  Uiso   1.00
O948   O     0.88806   0.21981   0.87496   0.00000  Uiso   1.00
O949   O     0.84515   0.08101   0.77820   0.00000  Uiso   1.00
O950   O     0.81247   0.26136   0.76767   0.00000  Uiso   1.00
O951   O     0.74119   0.13251   0.73607   0.00000  Uiso   1.00
O952   O     0.93452   0.19179   0.71805   0.00000  Uiso   1.00
O953   O     0.73656   0.18960   0.77820   0.00000  Uiso   1.00
O954   O     0.92106   0.15277   0.76767   0.00000  Uiso   1.00
O955   O     0.80467   0.06903   0.73607   0.00000  Uiso   1.00
O956   O     0.87104   0.25527   0.71805   0.00000  Uiso   1.00
Zn957  Zn    0.85910   0.14090   0.78277   0.00000  Uiso   1.00
Zn958  Zn    0.80125   0.12378   0.72257   0.00000  Uiso   1.00
Zn959  Zn    0.87833   0.19664   0.71188   0.00000  Uiso   1.00
Zn960  Zn    0.79465   0.20535   0.78277   0.00000  Uiso   1.00
C961   C     0.05229   0.49281   0.75948   0.00000  Uiso   1.00
C962   C     0.20812   0.47517   0.95710   0.00000  Uiso   1.00
C963   C     0.23462   0.46189   0.97578   0.00000  Uiso   1.00
C964   C     0.28129   0.50698   0.74083   0.00000  Uiso   1.00
C965   C     0.22340   0.46407   0.51730   0.00000  Uiso   1.00
C966   C     0.18211   0.47600   0.53994   0.00000  Uiso   1.00
C967   C     0.25238   0.45397   0.53653   0.00000  Uiso   1.00
C968   C     0.24060   0.45651   0.57834   0.00000  Uiso   1.00
C969   C     0.17121   0.47820   0.58154   0.00000  Uiso   1.00
C970   C     0.32792   0.50993   0.73587   0.00000  Uiso   1.00
C971   C     0.00742   0.49192   0.76149   0.00000  Uiso   1.00
C972   C     0.08594   0.52520   0.92051   0.00000  Uiso   1.00
C973   C     0.18046   0.65572   0.73972   0.00000  Uiso   1.00
C974   C     0.14954   0.34576   0.76245   0.00000  Uiso   1.00
C975   C     0.15639   0.38956   0.75831   0.00000  Uiso   1.00
C976   C     0.17662   0.61105   0.74143   0.00000  Uiso   1.00
C977   C     0.18845   0.47867   0.64379   0.00000  Uiso   1.00
C978   C     0.14492   0.52087   0.85633   0.00000  Uiso   1.00
C979   C     0.13050   0.52474   0.90018   0.00000  Uiso   1.00
C980   C     0.19985   0.46922   0.60057   0.00000  Uiso   1.00
C981   C     0.07116   0.51984   0.96082   0.00000  Uiso   1.00
C982   C     0.29566   0.39833   0.50282   0.00000  Uiso   1.00
C983   C     0.15999   0.52166   0.92158   0.00000  Uiso   1.00
C984   C     0.02500   0.53252   0.70271   0.00000  Uiso   1.00
C985   C     0.08316   0.35444   0.81787   0.00000  Uiso   1.00
C986   C     0.27184   0.44640   0.59794   0.00000  Uiso   1.00
C987   C     0.04718   0.57225   0.90199   0.00000  Uiso   1.00
C988   C     0.20604   0.54081   0.90767   0.00000  Uiso   1.00
C989   C     0.14349   0.50780   0.96005   0.00000  Uiso   1.00
C990   C     0.09918   0.51032   0.98040   0.00000  Uiso   1.00
C991   C     0.16925   0.49131   0.97900   0.00000  Uiso   1.00
C992   C     0.15374   0.48711   0.52031   0.00000  Uiso   1.00
C993   C     0.11002   0.49278   0.54017   0.00000  Uiso   1.00
C994   C     0.08300   0.50287   0.52013   0.00000  Uiso   1.00
H995   H     0.04915   0.50507   0.53596   0.00000  Uiso   1.00
H996   H     0.27607   0.38692   0.98185   0.00000  Uiso   1.00
H997   H     0.28311   0.38094   0.52934   0.00000  Uiso   1.00
H998   H     0.32972   0.39223   0.98804   0.00000  Uiso   1.00
H999   H     0.01221   0.54494   0.68242   0.00000  Uiso   1.00
H1000  H     0.09041   0.64225   0.76911   0.00000  Uiso   1.00
H1001  H     0.05504   0.33523   0.83587   0.00000  Uiso   1.00
H1002  H     0.07089   0.37820   0.80599   0.00000  Uiso   1.00
H1003  H     0.10315   0.37003   0.83744   0.00000  Uiso   1.00
H1004  H     0.30599   0.44686   0.58197   0.00000  Uiso   1.00
H1005  H     0.02706   0.50999   0.90850   0.00000  Uiso   1.00
H1006  H     0.31750   0.47622   0.78537   0.00000  Uiso   1.00
H1007  H     0.03097   0.58438   0.93301   0.00000  Uiso   1.00
H1008  H     0.02569   0.57347   0.88326   0.00000  Uiso   1.00
H1009  H     0.07791   0.59245   0.89058   0.00000  Uiso   1.00
H1010  H     0.22634   0.54603   0.92752   0.00000  Uiso   1.00
H1011  H     0.20980   0.33689   0.72004   0.00000  Uiso   1.00
H1012  H     0.14169   0.48980   0.60029   0.00000  Uiso   1.00
H1013  H     0.26421   0.45026   0.95702   0.00000  Uiso   1.00
H1014  H     0.03712   0.52122   0.97636   0.00000  Uiso   1.00
H1015  H     0.09494   0.48714   0.57067   0.00000  Uiso   1.00
H1016  H     0.21800   0.47157   0.92501   0.00000  Uiso   1.00
H1017  H     0.31113   0.46075   0.99207   0.00000  Uiso   1.00
N1018  N     0.29416   0.44253   0.51434   0.00000  Uiso   1.00
N1019  N     0.10842   0.66123   0.78567   0.00000  Uiso   1.00
N1020  N     0.05545   0.52968   0.90038   0.00000  Uiso   1.00
O1021  O     0.16667   0.50000   0.75000   0.00000  Uiso   1.00
O1022  O     0.15693   0.45726   0.66625   0.00000  Uiso   1.00
O1023  O     0.12687   0.53979   0.83749   0.00000  Uiso   1.00
O1024  O     0.21088   0.50826   0.65877   0.00000  Uiso   1.00
O1025  O     0.17198   0.49468   0.83749   0.00000  Uiso   1.00
O1026  O     0.06415   0.53779   0.69747   0.00000  Uiso   1.00
O1027  O     0.25988   0.43631   0.63163   0.00000  Uiso   1.00
O1028  O     0.22139   0.55314   0.87496   0.00000  Uiso   1.00
O1029  O     0.17849   0.41434   0.77820   0.00000  Uiso   1.00
O1030  O     0.14581   0.59469   0.76767   0.00000  Uiso   1.00
O1031  O     0.07452   0.46584   0.73607   0.00000  Uiso   1.00
O1032  O     0.26785   0.52512   0.71805   0.00000  Uiso   1.00
O1033  O     0.06990   0.52293   0.77820   0.00000  Uiso   1.00
O1034  O     0.25440   0.48610   0.76767   0.00000  Uiso   1.00
O1035  O     0.13800   0.40236   0.73607   0.00000  Uiso   1.00
O1036  O     0.20437   0.58860   0.71805   0.00000  Uiso   1.00
Zn1037 Zn    0.19244   0.47423   0.78277   0.00000  Uiso   1.00
Zn1038 Zn    0.13459   0.45711   0.72257   0.00000  Uiso   1.00
Zn1039 Zn    0.21166   0.52997   0.71188   0.00000  Uiso   1.00
Zn1040 Zn    0.12798   0.53868   0.78277   0.00000  Uiso   1.00
C1041  C     0.38563   0.49281   0.75948   0.00000  Uiso   1.00
C1042  C     0.54145   0.47517   0.95710   0.00000  Uiso   1.00
C1043  C     0.56795   0.46189   0.97578   0.00000  Uiso   1.00
C1044  C     0.61462   0.50698   0.74083   0.00000  Uiso   1.00
C1045  C     0.55673   0.46407   0.51730   0.00000  Uiso   1.00
C1046  C     0.51544   0.47600   0.53994   0.00000  Uiso   1.00
C1047  C     0.58572   0.45397   0.53653   0.00000  Uiso   1.00
C1048  C     0.57393   0.45651   0.57834   0.00000  Uiso   1.00
C1049  C     0.50455   0.47820   0.58154   0.00000  Uiso   1.00
C1050  C     0.66125   0.50993   0.73587   0.00000  Uiso   1.00
C1051  C     0.34075   0.49192   0.76149   0.00000  Uiso   1.00
C1052  C     0.41927   0.52520   0.92051   0.00000  Uiso   1.00
C1053  C     0.51380   0.65572   0.73972   0.00000  Uiso   1.00
C1054  C     0.48288   0.34576   0.76245   0.00000  Uiso   1.00
C1055  C     0.48972   0.38956   0.75831   0.00000  Uiso   1.00
C1056  C     0.50996   0.61105   0.74143   0.00000  Uiso   1.00
C1057  C     0.52178   0.47867   0.64379   0.00000  Uiso   1.00
C1058  C     0.47825   0.52087   0.85633   0.00000  Uiso   1.00
C1059  C     0.46383   0.52474   0.90018   0.00000  Uiso   1.00
C1060  C     0.53319   0.46922   0.60057   0.00000  Uiso   1.00
C1061  C     0.40449   0.51984   0.96082   0.00000  Uiso   1.00
C1062  C     0.62899   0.39833   0.50282   0.00000  Uiso   1.00
C1063  C     0.49332   0.52166   0.92158   0.00000  Uiso   1.00
C1064  C     0.35833   0.53252   0.70271   0.00000  Uiso   1.00
C1065  C     0.41650   0.35444   0.81787   0.00000  Uiso   1.00
C1066  C     0.60517   0.44640   0.59794   0.00000  Uiso   1.00
C1067  C     0.38051   0.57225   0.90199   0.00000  Uiso   1.00
C1068  C     0.53937   0.54081   0.90767   0.00000  Uiso   1.00
C1069  C     0.47682   0.50780   0.96005   0.00000  Uiso   1.00
C1070  C     0.43251   0.51032   0.98040   0.00000  Uiso   1.00
C1071  C     0.50259   0.49131   0.97900   0.00000  Uiso   1.00
C1072  C     0.48708   0.48711   0.52031   0.00000  Uiso   1.00
C1073  C     0.44336   0.49278   0.54017   0.00000  Uiso   1.00
C1074  C     0.41633   0.50287   0.52013   0.00000  Uiso   1.00
H1075  H     0.38248   0.50507   0.53596   0.00000  Uiso   1.00
H1076  H     0.60940   0.38692   0.98185   0.00000  Uiso   1.00
H1077  H     0.61644   0.38094   0.52934   0.00000  Uiso   1.00
H1078  H     0.66306   0.39223   0.98804   0.00000  Uiso   1.00
H1079  H     0.34555   0.54494   0.68242   0.00000  Uiso   1.00
H1080  H     0.42375   0.64225   0.76911   0.00000  Uiso   1.00
H1081  H     0.38837   0.33523   0.83587   0.00000  Uiso   1.00
H1082  H     0.40422   0.37820   0.80599   0.00000  Uiso   1.00
H1083  H     0.43648   0.37003   0.83744   0.00000  Uiso   1.00
H1084  H     0.63933   0.44686   0.58197   0.00000  Uiso   1.00
H1085  H     0.36039   0.50999   0.90850   0.00000  Uiso   1.00
H1086  H     0.65084   0.47622   0.78537   0.00000  Uiso   1.00
H1087  H     0.36430   0.58438   0.93301   0.00000  Uiso   1.00
H1088  H     0.35902   0.57347   0.88326   0.00000  Uiso   1.00
H1089  H     0.41125   0.59245   0.89058   0.00000  Uiso   1.00
H1090  H     0.55967   0.54603   0.92752   0.00000  Uiso   1.00
H1091  H     0.54314   0.33689   0.72004   0.00000  Uiso   1.00
H1092  H     0.47502   0.48980   0.60029   0.00000  Uiso   1.00
H1093  H     0.59754   0.45026   0.95702   0.00000  Uiso   1.00
H1094  H     0.37045   0.52122   0.97636   0.00000  Uiso   1.00
H1095  H     0.42827   0.48714   0.57067   0.00000  Uiso   1.00
H1096  H     0.55134   0.47157   0.92501   0.00000  Uiso   1.00
H1097  H     0.64446   0.46075   0.99207   0.00000  Uiso   1.00
N1098  N     0.62750   0.44253   0.51434   0.00000  Uiso   1.00
N1099  N     0.44175   0.66123   0.78567   0.00000  Uiso   1.00
N1100  N     0.38878   0.52968   0.90038   0.00000  Uiso   1.00
O1101  O     0.50000   0.50000   0.75000   0.00000  Uiso   1.00
O1102  O     0.49027   0.45726   0.66625   0.00000  Uiso   1.00
O1103  O     0.46020   0.53979   0.83749   0.00000  Uiso   1.00
O1104  O     0.54421   0.50826   0.65877   0.00000  Uiso   1.00
O1105  O     0.50532   0.49468   0.83749   0.00000  Uiso   1.00
O1106  O     0.39748   0.53779   0.69747   0.00000  Uiso   1.00
O1107  O     0.59321   0.43631   0.63163   0.00000  Uiso   1.00
O1108  O     0.55473   0.55314   0.87496   0.00000  Uiso   1.00
O1109  O     0.51182   0.41434   0.77820   0.00000  Uiso   1.00
O1110  O     0.47914   0.59469   0.76767   0.00000  Uiso   1.00
O1111  O     0.40785   0.46584   0.73607   0.00000  Uiso   1.00
O1112  O     0.60119   0.52512   0.71805   0.00000  Uiso   1.00
O1113  O     0.40323   0.52293   0.77820   0.00000  Uiso   1.00
O1114  O     0.58773   0.48610   0.76767   0.00000  Uiso   1.00
O1115  O     0.47133   0.40236   0.73607   0.00000  Uiso   1.00
O1116  O     0.53771   0.58860   0.71805   0.00000  Uiso   1.00
Zn1117 Zn    0.52577   0.47423   0.78277   0.00000  Uiso   1.00
Zn1118 Zn    0.46792   0.45711   0.72257   0.00000  Uiso   1.00
Zn1119 Zn    0.54500   0.52997   0.71188   0.00000  Uiso   1.00
Zn1120 Zn    0.46131   0.53868   0.78277   0.00000  Uiso   1.00
C1121  C     0.71896   0.49281   0.75948   0.00000  Uiso   1.00
C1122  C     0.87479   0.47517   0.95710   0.00000  Uiso   1.00
C1123  C     0.90129   0.46189   0.97578   0.00000  Uiso   1.00
C1124  C     0.94796   0.50698   0.74083   0.00000  Uiso   1.00
C1125  C     0.89007   0.46407   0.51730   0.00000  Uiso   1.00
C1126  C     0.84878   0.47600   0.53994   0.00000  Uiso   1.00
C1127  C     0.91905   0.45397   0.53653   0.00000  Uiso   1.00
C1128  C     0.90727   0.45651   0.57834   0.00000  Uiso   1.00
C1129  C     0.83788   0.47820   0.58154   0.00000  Uiso   1.00
C1130  C     0.99459   0.50993   0.73587   0.00000  Uiso   1.00
C1131  C     0.67409   0.49192   0.76149   0.00000  Uiso   1.00
C1132  C     0.75260   0.52520   0.92051   0.00000  Uiso   1.00
C1133  C     0.84713   0.65572   0.73972   0.00000  Uiso   1.00
C1134  C     0.81621   0.34576   0.76245   0.00000  Uiso   1.00
C1135  C     0.82305   0.38956   0.75831   0.00000  Uiso   1.00
C1136  C     0.84329   0.61105   0.74143   0.00000  Uiso   1.00
C1137  C     0.85511   0.47867   0.64379   0.00000  Uiso   1.00
C1138  C     0.81158   0.52087   0.85633   0.00000  Uiso   1.00
C1139  C     0.79716   0.52474   0.90018   0.00000  Uiso   1.00
C1140  C     0.86652   0.46922   0.60057   0.00000  Uiso   1.00
C1141  C     0.73782   0.51984   0.96082   0.00000  Uiso   1.00
C1142  C     0.96233   0.39833   0.50282   0.00000  Uiso   1.00
C1143  C     0.82665   0.52166   0.92158   0.00000  Uiso   1.00
C1144  C     0.69166   0.53252   0.70271   0.00000  Uiso   1.00
C1145  C     0.74983   0.35444   0.81787   0.00000  Uiso   1.00
C1146  C     0.93851   0.44640   0.59794   0.00000  Uiso   1.00
C1147  C     0.71385   0.57225   0.90199   0.00000  Uiso   1.00
C1148  C     0.87271   0.54081   0.90767   0.00000  Uiso   1.00
C1149  C     0.81016   0.50780   0.96005   0.00000  Uiso   1.00
C1150  C     0.76584   0.51032   0.98040   0.00000  Uiso   1.00
C1151  C     0.83592   0.49131   0.97900   0.00000  Uiso   1.00
C1152  C     0.82041   0.48711   0.52031   0.00000  Uiso   1.00
C1153  C     0.77669   0.49278   0.54017   0.00000  Uiso   1.00
C1154  C     0.74966   0.50287   0.52013   0.00000  Uiso   1.00
H1155  H     0.71582   0.50507   0.53596   0.00000  Uiso   1.00
H1156  H     0.94273   0.38692   0.98185   0.00000  Uiso   1.00
H1157  H     0.94978   0.38094   0.52934   0.00000  Uiso   1.00
H1158  H     0.99639   0.39223   0.98804   0.00000  Uiso   1.00
H1159  H     0.67888   0.54494   0.68242   0.00000  Uiso   1.00
H1160  H     0.75708   0.64225   0.76911   0.00000  Uiso   1.00
H1161  H     0.72170   0.33523   0.83587   0.00000  Uiso   1.00
H1162  H     0.73755   0.37820   0.80599   0.00000  Uiso   1.00
H1163  H     0.76981   0.37003   0.83744   0.00000  Uiso   1.00
H1164  H     0.97266   0.44686   0.58197   0.00000  Uiso   1.00
H1165  H     0.69372   0.50999   0.90850   0.00000  Uiso   1.00
H1166  H     0.98417   0.47622   0.78537   0.00000  Uiso   1.00
H1167  H     0.69763   0.58438   0.93301   0.00000  Uiso   1.00
H1168  H     0.69236   0.57347   0.88326   0.00000  Uiso   1.00
H1169  H     0.74458   0.59245   0.89058   0.00000  Uiso   1.00
H1170  H     0.89300   0.54603   0.92752   0.00000  Uiso   1.00
H1171  H     0.87647   0.33689   0.72004   0.00000  Uiso   1.00
H1172  H     0.80835   0.48980   0.60029   0.00000  Uiso   1.00
H1173  H     0.93087   0.45026   0.95702   0.00000  Uiso   1.00
H1174  H     0.70378   0.52122   0.97636   0.00000  Uiso   1.00
H1175  H     0.76160   0.48714   0.57067   0.00000  Uiso   1.00
H1176  H     0.88467   0.47157   0.92501   0.00000  Uiso   1.00
H1177  H     0.97779   0.46075   0.99207   0.00000  Uiso   1.00
N1178  N     0.96083   0.44253   0.51434   0.00000  Uiso   1.00
N1179  N     0.77508   0.66123   0.78567   0.00000  Uiso   1.00
N1180  N     0.72212   0.52968   0.90038   0.00000  Uiso   1.00
O1181  O     0.83333   0.50000   0.75000   0.00000  Uiso   1.00
O1182  O     0.82360   0.45726   0.66625   0.00000  Uiso   1.00
O1183  O     0.79354   0.53979   0.83749   0.00000  Uiso   1.00
O1184  O     0.87755   0.50826   0.65877   0.00000  Uiso   1.00
O1185  O     0.83865   0.49468   0.83749   0.00000  Uiso   1.00
O1186  O     0.73081   0.53779   0.69747   0.00000  Uiso   1.00
O1187  O     0.92655   0.43631   0.63163   0.00000  Uiso   1.00
O1188  O     0.88806   0.55314   0.87496   0.00000  Uiso   1.00
O1189  O     0.84515   0.41434   0.77820   0.00000  Uiso   1.00
O1190  O     0.81247   0.59469   0.76767   0.00000  Uiso   1.00
O1191  O     0.74119   0.46584   0.73607   0.00000  Uiso   1.00
O1192  O     0.93452   0.52512   0.71805   0.00000  Uiso   1.00
O1193  O     0.73656   0.52293   0.77820   0.00000  Uiso   1.00
O1194  O     0.92106   0.48610   0.76767   0.00000  Uiso   1.00
O1195  O     0.80467   0.40236   0.73607   0.00000  Uiso   1.00
O1196  O     0.87104   0.58860   0.71805   0.00000  Uiso   1.00
Zn1197 Zn    0.85910   0.47423   0.78277   0.00000  Uiso   1.00
Zn1198 Zn    0.80125   0.45711   0.72257   0.00000  Uiso   1.00
Zn1199 Zn    0.87833   0.52997   0.71188   0.00000  Uiso   1.00
Zn1200 Zn    0.79465   0.53868   0.78277   0.00000  Uiso   1.00
C1201  C     0.05229   0.82614   0.75948   0.00000  Uiso   1.00
C1202  C     0.20812   0.80850   0.95710   0.00000  Uiso   1.00
C1203  C     0.23462   0.79523   0.97578   0.00000  Uiso   1.00
C1204  C     0.28129   0.84031   0.74083   0.00000  Uiso   1.00
C1205  C     0.22340   0.79741   0.51730   0.00000  Uiso   1.00
C1206  C     0.18211   0.80933   0.53994   0.00000  Uiso   1.00
C1207  C     0.25238   0.78730   0.53653   0.00000  Uiso   1.00
C1208  C     0.24060   0.78985   0.57834   0.00000  Uiso   1.00
C1209  C     0.17121   0.81153   0.58154   0.00000  Uiso   1.00
C1210  C     0.32792   0.84326   0.73587   0.00000  Uiso   1.00
C1211  C     0.00742   0.82526   0.76149   0.00000  Uiso   1.00
C1212  C     0.08594   0.85853   0.92051   0.00000  Uiso   1.00
C1213  C     0.18046   0.98906   0.73972   0.00000  Uiso   1.00
C1214  C     0.14954   0.67909   0.76245   0.00000  Uiso   1.00
C1215  C     0.15639   0.72290   0.75831   0.00000  Uiso   1.00
C1216  C     0.17662   0.94438   0.74143   0.00000  Uiso   1.00
C1217  C     0.18845   0.81201   0.64379   0.00000  Uiso   1.00
C1218  C     0.14492   0.85420   0.85633   0.00000  Uiso   1.00
C1219  C     0.13050   0.85808   0.90018   0.00000  Uiso   1.00
C1220  C     0.19985   0.80256   0.60057   0.00000  Uiso   1.00
C1221  C     0.07116   0.85317   0.96082   0.00000  Uiso   1.00
C1222  C     0.29566   0.73166   0.50282   0.00000  Uiso   1.00
C1223  C     0.15999   0.85499   0.92158   0.00000  Uiso   1.00
C1224  C     0.02500   0.86585   0.70271   0.00000  Uiso   1.00
C1225  C     0.08316   0.68778   0.81787   0.00000  Uiso   1.00
C1226  C     0.27184   0.77973   0.59794   0.00000  Uiso   1.00
C1227  C     0.04718   0.90559   0.90199   0.00000  Uiso   1.00
C1228  C     0.20604   0.87414   0.90767   0.00000  Uiso   1.00
C1229  C     0.14349   0.84113   0.96005   0.00000  Uiso   1.00
C1230  C     0.09918   0.84365   0.98040   0.00000  Uiso   1.00
C1231  C     0.16925   0.82465   0.97900   0.00000  Uiso   1.00
C1232  C     0.15374   0.82045   0.52031   0.00000  Uiso   1.00
C1233  C     0.11002   0.82612   0.54017   0.00000  Uiso   1.00
C1234  C     0.08300   0.83621   0.52013   0.00000  Uiso   1.00
H1235  H     0.04915   0.83841   0.53596   0.00000  Uiso   1.00
H1236  H     0.27607   0.72025   0.98185   0.00000  Uiso   1.00
H1237  H     0.28311   0.71427   0.52934   0.00000  Uiso   1.00
H1238  H     0.32972   0.72556   0.98804   0.00000  Uiso   1.00
H1239  H     0.01221   0.87827   0.68242   0.00000  Uiso   1.00
H1240  H     0.09041   0.97558   0.76911   0.00000  Uiso   1.00
H1241  H     0.05504   0.66856   0.83587   0.00000  Uiso   1.00
H1242  H     0.07089   0.71153   0.80599   0.00000  Uiso   1.00
H1243  H     0.10315   0.70337   0.83744   0.00000  Uiso   1.00
H1244  H     0.30599   0.78020   0.58197   0.00000  Uiso   1.00
H1245  H     0.02706   0.84332   0.90850   0.00000  Uiso   1.00
H1246  H     0.31750   0.80955   0.78537   0.00000  Uiso   1.00
H1247  H     0.03097   0.91771   0.93301   0.00000  Uiso   1.00
H1248  H     0.02569   0.90680   0.88326   0.00000  Uiso   1.00
H1249  H     0.07791   0.92578   0.89058   0.00000  Uiso   1.00
H1250  H     0.22634   0.87936   0.92752   0.00000  Uiso   1.00
H1251  H     0.20980   0.67023   0.72004   0.00000  Uiso   1.00
H1252  H     0.14169   0.82314   0.60029   0.00000  Uiso   1.00
H1253  H     0.26421   0.78359   0.95702   0.00000  Uiso   1.00
H1254  H     0.03712   0.85455   0.97636   0.00000  Uiso   1.00
H1255  H     0.09494   0.82047   0.57067   0.00000  Uiso   1.00
H1256  H     0.21800   0.80491   0.92501   0.00000  Uiso   1.00
H1257  H     0.31113   0.79409   0.99207   0.00000  Uiso   1.00
N1258  N     0.29416   0.77587   0.51434   0.00000  Uiso   1.00
N1259  N     0.10842   0.99456   0.78567   0.00000  Uiso   1.00
N1260  N     0.05545   0.86301   0.90038   0.00000  Uiso   1.00
O1261  O     0.16667   0.83333   0.75000   0.00000  Uiso   1.00
O1262  O     0.15693   0.79060   0.66625   0.00000  Uiso   1.00
O1263  O     0.12687   0.87313   0.83749   0.00000  Uiso   1.00
O1264  O     0.21088   0.84159   0.65877   0.00000  Uiso   1.00
O1265  O     0.17198   0.82802   0.83749   0.00000  Uiso   1.00
O1266  O     0.06415   0.87112   0.69747   0.00000  Uiso   1.00
O1267  O     0.25988   0.76964   0.63163   0.00000  Uiso   1.00
O1268  O     0.22139   0.88647   0.87496   0.00000  Uiso   1.00
O1269  O     0.17849   0.74768   0.77820   0.00000  Uiso   1.00
O1270  O     0.14581   0.92803   0.76767   0.00000  Uiso   1.00
O1271  O     0.07452   0.79917   0.73607   0.00000  Uiso   1.00
O1272  O     0.26785   0.85845   0.71805   0.00000  Uiso   1.00
O1273  O     0.06990   0.85627   0.77820   0.00000  Uiso   1.00
O1274  O     0.25440   0.81944   0.76767   0.00000  Uiso   1.00
O1275  O     0.13800   0.73570   0.73607   0.00000  Uiso   1.00
O1276  O     0.20437   0.92193   0.71805   0.00000  Uiso   1.00
Zn1277 Zn    0.19244   0.80756   0.78277   0.00000  Uiso   1.00
Zn1278 Zn    0.13459   0.79044   0.72257   0.00000  Uiso   1.00
Zn1279 Zn    0.21166   0.86331   0.71188   0.00000  Uiso   1.00
Zn1280 Zn    0.12798   0.87202   0.78277   0.00000  Uiso   1.00
C1281  C     0.38563   0.82614   0.75948   0.00000  Uiso   1.00
C1282  C     0.54145   0.80850   0.95710   0.00000  Uiso   1.00
C1283  C     0.56795   0.79523   0.97578   0.00000  Uiso   1.00
C1284  C     0.61462   0.84031   0.74083   0.00000  Uiso   1.00
C1285  C     0.55673   0.79741   0.51730   0.00000  Uiso   1.00
C1286  C     0.51544   0.80933   0.53994   0.00000  Uiso   1.00
C1287  C     0.58572   0.78730   0.53653   0.00000  Uiso   1.00
C1288  C     0.57393   0.78985   0.57834   0.00000  Uiso   1.00
C1289  C     0.50455   0.81153   0.58154   0.00000  Uiso   1.00
C1290  C     0.66125   0.84326   0.73587   0.00000  Uiso   1.00
C1291  C     0.34075   0.82526   0.76149   0.00000  Uiso   1.00
C1292  C     0.41927   0.85853   0.92051   0.00000  Uiso   1.00
C1293  C     0.51380   0.98906   0.73972   0.00000  Uiso   1.00
C1294  C     0.48288   0.67909   0.76245   0.00000  Uiso   1.00
C1295  C     0.48972   0.72290   0.75831   0.00000  Uiso   1.00
C1296  C     0.50996   0.94438   0.74143   0.00000  Uiso   1.00
C1297  C     0.52178   0.81201   0.64379   0.00000  Uiso   1.00
C1298  C     0.47825   0.85420   0.85633   0.00000  Uiso   1.00
C1299  C     0.46383   0.85808   0.90018   0.00000  Uiso   1.00
C1300  C     0.53319   0.80256   0.60057   0.00000  Uiso   1.00
C1301  C     0.40449   0.85317   0.96082   0.00000  Uiso   1.00
C1302  C     0.62899   0.73166   0.50282   0.00000  Uiso   1.00
C1303  C     0.49332   0.85499   0.92158   0.00000  Uiso   1.00
C1304  C     0.35833   0.86585   0.70271   0.00000  Uiso   1.00
C1305  C     0.41650   0.68778   0.81787   0.00000  Uiso   1.00
C1306  C     0.60517   0.77973   0.59794   0.00000  Uiso   1.00
C1307  C     0.38051   0.90559   0.90199   0.00000  Uiso   1.00
C1308  C     0.53937   0.87414   0.90767   0.00000  Uiso   1.00
C1309  C     0.47682   0.84113   0.96005   0.00000  Uiso   1.00
C1310  C     0.43251   0.84365   0.98040   0.00000  Uiso   1.00
C1311  C     0.50259   0.82465   0.97900   0.00000  Uiso   1.00
C1312  C     0.48708   0.82045   0.52031   0.00000  Uiso   1.00
C1313  C     0.44336   0.82612   0.54017   0.00000  Uiso   1.00
C1314  C     0.41633   0.83621   0.52013   0.00000  Uiso   1.00
H1315  H     0.38248   0.83841   0.53596   0.00000  Uiso   1.00
H1316  H     0.60940   0.72025   0.98185   0.00000  Uiso   1.00
H1317  H     0.61644   0.71427   0.52934   0.00000  Uiso   1.00
H1318  H     0.66306   0.72556   0.98804   0.00000  Uiso   1.00
H1319  H     0.34555   0.87827   0.68242   0.00000  Uiso   1.00
H1320  H     0.42375   0.97558   0.76911   0.00000  Uiso   1.00
H1321  H     0.38837   0.66856   0.83587   0.00000  Uiso   1.00
H1322  H     0.40422   0.71153   0.80599   0.00000  Uiso   1.00
H1323  H     0.43648   0.70337   0.83744   0.00000  Uiso   1.00
H1324  H     0.63933   0.78020   0.58197   0.00000  Uiso   1.00
H1325  H     0.36039   0.84332   0.90850   0.00000  Uiso   1.00
H1326  H     0.65084   0.80955   0.78537   0.00000  Uiso   1.00
H1327  H     0.36430   0.91771   0.93301   0.00000  Uiso   1.00
H1328  H     0.35902   0.90680   0.88326   0.00000  Uiso   1.00
H1329  H     0.41125   0.92578   0.89058   0.00000  Uiso   1.00
H1330  H     0.55967   0.87936   0.92752   0.00000  Uiso   1.00
H1331  H     0.54314   0.67023   0.72004   0.00000  Uiso   1.00
H1332  H     0.47502   0.82314   0.60029   0.00000  Uiso   1.00
H1333  H     0.59754   0.78359   0.95702   0.00000  Uiso   1.00
H1334  H     0.37045   0.85455   0.97636   0.00000  Uiso   1.00
H1335  H     0.42827   0.82047   0.57067   0.00000  Uiso   1.00
H1336  H     0.55134   0.80491   0.92501   0.00000  Uiso   1.00
H1337  H     0.64446   0.79409   0.99207   0.00000  Uiso   1.00
N1338  N     0.62750   0.77587   0.51434   0.00000  Uiso   1.00
N1339  N     0.44175   0.99456   0.78567   0.00000  Uiso   1.00
N1340  N     0.38878   0.86301   0.90038   0.00000  Uiso   1.00
O1341  O     0.50000   0.83333   0.75000   0.00000  Uiso   1.00
O1342  O     0.49027   0.79060   0.66625   0.00000  Uiso   1.00
O1343  O     0.46020   0.87313   0.83749   0.00000  Uiso   1.00
O1344  O     0.54421   0.84159   0.65877   0.00000  Uiso   1.00
O1345  O     0.50532   0.82802   0.83749   0.00000  Uiso   1.00
O1346  O     0.39748   0.87112   0.69747   0.00000  Uiso   1.00
O1347  O     0.59321   0.76964   0.63163   0.00000  Uiso   1.00
O1348  O     0.55473   0.88647   0.87496   0.00000  Uiso   1.00
O1349  O     0.51182   0.74768   0.77820   0.00000  Uiso   1.00
O1350  O     0.47914   0.92803   0.76767   0.00000  Uiso   1.00
O1351  O     0.40785   0.79917   0.73607   0.00000  Uiso   1.00
O1352  O     0.60119   0.85845   0.71805   0.00000  Uiso   1.00
O1353  O     0.40323   0.85627   0.77820   0.00000  Uiso   1.00
O1354  O     0.58773   0.81944   0.76767   0.00000  Uiso   1.00
O1355  O     0.47133   0.73570   0.73607   0.00000  Uiso   1.00
O1356  O     0.53771   0.92193   0.71805   0.00000  Uiso   1.00
Zn1357 Zn    0.52577   0.80756   0.78277   0.00000  Uiso   1.00
Zn1358 Zn    0.46792   0.79044   0.72257   0.00000  Uiso   1.00
Zn1359 Zn    0.54500   0.86331   0.71188   0.00000  Uiso   1.00
Zn1360 Zn    0.46131   0.87202   0.78277   0.00000  Uiso   1.00
C1361  C     0.71896   0.82614   0.75948   0.00000  Uiso   1.00
C1362  C     0.87479   0.80850   0.95710   0.00000  Uiso   1.00
C1363  C     0.90129   0.79523   0.97578   0.00000  Uiso   1.00
C1364  C     0.94796   0.84031   0.74083   0.00000  Uiso   1.00
C1365  C     0.89007   0.79741   0.51730   0.00000  Uiso   1.00
C1366  C     0.84878   0.80933   0.53994   0.00000  Uiso   1.00
C1367  C     0.91905   0.78730   0.53653   0.00000  Uiso   1.00
C1368  C     0.90727   0.78985   0.57834   0.00000  Uiso   1.00
C1369  C     0.83788   0.81153   0.58154   0.00000  Uiso   1.00
C1370  C     0.99459   0.84326   0.73587   0.00000  Uiso   1.00
C1371  C     0.67409   0.82526   0.76149   0.00000  Uiso   1.00
C1372  C     0.75260   0.85853   0.92051   0.00000  Uiso   1.00
C1373  C     0.84713   0.98906   0.73972   0.00000  Uiso   1.00
C1374  C     0.81621   0.67909   0.76245   0.00000  Uiso   1.00
C1375  C     0.82305   0.72290   0.75831   0.00000  Uiso   1.00
C1376  C     0.84329   0.94438   0.74143   0.00000  Uiso   1.00
C1377  C     0.85511   0.81201   0.64379   0.00000  Uiso   1.00
C1378  C     0.81158   0.85420   0.85633   0.00000  Uiso   1.00
C1379  C     0.79716   0.85808   0.90018   0.00000  Uiso   1.00
C1380  C     0.86652   0.80256   0.60057   0.00000  Uiso   1.00
C1381  C     0.73782   0.85317   0.96082   0.00000  Uiso   1.00
C1382  C     0.96233   0.73166   0.50282   0.00000  Uiso   1.00
C1383  C     0.82665   0.85499   0.92158   0.00000  Uiso   1.00
C1384  C     0.69166   0.86585   0.70271   0.00000  Uiso   1.00
C1385  C     0.74983   0.68778   0.81787   0.00000  Uiso   1.00
C1386  C     0.93851   0.77973   0.59794   0.00000  Uiso   1.00
C1387  C     0.71385   0.90559   0.90199   0.00000  Uiso   1.00
C1388  C     0.87271   0.87414   0.90767   0.00000  Uiso   1.00
C1389  C     0.81016   0.84113   0.96005   0.00000  Uiso   1.00
C1390  C     0.76584   0.84365   0.98040   0.00000  Uiso   1.00
C1391  C     0.83592   0.82465   0.97900   0.00000  Uiso   1.00
C1392  C     0.82041   0.82045   0.52031   0.00000  Uiso   1.00
C1393  C     0.77669   0.82612   0.54017   0.00000  Uiso   1.00
C1394  C     0.74966   0.83621   0.52013   0.00000  Uiso   1.00
H1395  H     0.71582   0.83841   0.53596   0.00000  Uiso   1.00
H1396  H     0.94273   0.72025   0.98185   0.00000  Uiso   1.00
H1397  H     0.94978   0.71427   0.52934   0.00000  Uiso   1.00
H1398  H     0.99639   0.72556   0.98804   0.00000  Uiso   1.00
H1399  H     0.67888   0.87827   0.68242   0.00000  Uiso   1.00
H1400  H     0.75708   0.97558   0.76911   0.00000  Uiso   1.00
H1401  H     0.72170   0.66856   0.83587   0.00000  Uiso   1.00
H1402  H     0.73755   0.71153   0.80599   0.00000  Uiso   1.00
H1403  H     0.76981   0.70337   0.83744   0.00000  Uiso   1.00
H1404  H     0.97266   0.78020   0.58197   0.00000  Uiso   1.00
H1405  H     0.69372   0.84332   0.90850   0.00000  Uiso   1.00
H1406  H     0.98417   0.80955   0.78537   0.00000  Uiso   1.00
H1407  H     0.69763   0.91771   0.93301   0.00000  Uiso   1.00
H1408  H     0.69236   0.90680   0.88326   0.00000  Uiso   1.00
H1409  H     0.74458   0.92578   0.89058   0.00000  Uiso   1.00
H1410  H     0.89300   0.87936   0.92752   0.00000  Uiso   1.00
H1411  H     0.87647   0.67023   0.72004   0.00000  Uiso   1.00
H1412  H     0.80835   0.82314   0.60029   0.00000  Uiso   1.00
H1413  H     0.93087   0.78359   0.95702   0.00000  Uiso   1.00
H1414  H     0.70378   0.85455   0.97636   0.00000  Uiso   1.00
H1415  H     0.76160   0.82047   0.57067   0.00000  Uiso   1.00
H1416  H     0.88467   0.80491   0.92501   0.00000  Uiso   1.00
H1417  H     0.97779   0.79409   0.99207   0.00000  Uiso   1.00
N1418  N     0.96083   0.77587   0.51434   0.00000  Uiso   1.00
N1419  N     0.77508   0.99456   0.78567   0.00000  Uiso   1.00
N1420  N     0.72212   0.86301   0.90038   0.00000  Uiso   1.00
O1421  O     0.83333   0.83333   0.75000   0.00000  Uiso   1.00
O1422  O     0.82360   0.79060   0.66625   0.00000  Uiso   1.00
O1423  O     0.79354   0.87313   0.83749   0.00000  Uiso   1.00
O1424  O     0.87755   0.84159   0.65877   0.00000  Uiso   1.00
O1425  O     0.83865   0.82802   0.83749   0.00000  Uiso   1.00
O1426  O     0.73081   0.87112   0.69747   0.00000  Uiso   1.00
O1427  O     0.92655   0.76964   0.63163   0.00000  Uiso   1.00
O1428  O     0.88806   0.88647   0.87496   0.00000  Uiso   1.00
O1429  O     0.84515   0.74768   0.77820   0.00000  Uiso   1.00
O1430  O     0.81247   0.92803   0.76767   0.00000  Uiso   1.00
O1431  O     0.74119   0.79917   0.73607   0.00000  Uiso   1.00
O1432  O     0.93452   0.85845   0.71805   0.00000  Uiso   1.00
O1433  O     0.73656   0.85627   0.77820   0.00000  Uiso   1.00
O1434  O     0.92106   0.81944   0.76767   0.00000  Uiso   1.00
O1435  O     0.80467   0.73570   0.73607   0.00000  Uiso   1.00
O1436  O     0.87104   0.92193   0.71805   0.00000  Uiso   1.00
Zn1437 Zn    0.85910   0.80756   0.78277   0.00000  Uiso   1.00
Zn1438 Zn    0.80125   0.79044   0.72257   0.00000  Uiso   1.00
Zn1439 Zn    0.87833   0.86331   0.71188   0.00000  Uiso   1.00
Zn1440 Zn    0.79465   0.87202   0.78277   0.00000  Uiso   1.00
loop_
_geom_bond_atom_site_label_1
_geom_bond_atom_site_label_2
_geom_bond_distance
_geom_bond_site_symmetry_2
_ccdc_geom_bond_type
C1     C11     1.438   .     S
C1     O71     1.268   .     A
C1     O73     1.267   .     A
C2     C31     1.406   .     A
C2     C3      1.386   .     A
C2     H56     1.081   .     S
C3     H53     1.081   .     S
C3     C725    1.403   .     S
C4     O74     1.284   .     A
C4     C10     1.465   .     S
C4     O72     1.278   .     A
C5     C6      1.423   .     A
C5     C7      1.421   .     A
C5     C723    1.403   1_554 S
C6     C9      1.407   .     A
C6     C32     1.428   .     A
C7     C8      1.412   .     A
C7     N58     1.427   .     S
C8     C26     1.493   .     S
C8     C20     1.414   .     A
C9     H52     1.079   .     S
C9     C20     1.392   .     A
C10    C91     1.347   .     S
C10    C104    1.499   .     S
C11    C170    1.347   1_455 S
C11    H206    1.086   1_455 S
C12    C21     1.396   .     A
C12    C19     1.415   .     A
C12    N60     1.423   .     S
C13    C16     1.455   .     S
C13    C254    1.347   .     S
C13    H291    1.088   .     S
C14    C15     1.437   .     S
C14    C493    1.347   1_545 S
C14    N539    1.433   1_545 S
C15    O75     1.272   .     A
C15    O69     1.278   .     A
C16    O70     1.258   .     A
C16    O76     1.271   .     A
C17    O64     1.272   .     A
C17    C20     1.464   .     S
C17    O62     1.278   .     A
C18    O65     1.290   .     A
C18    C19     1.478   .     S
C18    O63     1.284   .     A
C19    C23     1.416   .     A
C21    C30     1.396   .     A
C21    H54     1.084   .     S
C22    H37     1.111   .     S
C22    N58     1.446   .     S
C22    H756    1.111   1_554 S
C22    H758    1.110   1_554 S
C23    C29     1.425   .     A
C23    C28     1.498   .     S
C24    O66     1.221   .     D
C24    H39     1.085   .     S
C24    C170    1.499   1_455 S
C25    H43     1.111   .     S
C25    H41     1.110   .     S
C25    H42     1.111   .     S
C25    N539    1.448   1_545 S
C26    H44     1.085   .     S
C26    O67     1.221   .     D
C27    H48     1.110   .     S
C27    N60     1.447   .     S
C27    H47     1.112   .     S
C27    H49     1.111   .     S
C28    O68     1.221   .     D
C28    H50     1.084   .     S
C29    C30     1.416   .     A
C29    C31     1.427   .     A
C30    C754    1.395   .     S
C31    C752    1.422   .     S
C32    C33     1.413   .     A
C32    C751    1.422   1_554 S
C33    H55     1.078   .     S
C33    C34     1.389   .     A
C34    H35     1.085   .     S
C34    C750    1.395   1_554 S
H36    C742    1.111   .     S
H38    C742    1.110   .     S
H40    N59     1.032   .     S
H45    N60     1.032   .     S
H46    C91     1.086   .     S
H51    C493    1.088   1_545 S
H57    N778    1.030   .     S
N58    H777    1.030   1_554 S
N59    C254    1.433   .     S
N59    C265    1.448   .     S
O61    Zn80    1.926   .     S
O61    Zn77    1.967   .     S
O61    Zn78    1.942   .     S
O61    Zn79    1.924   .     S
O62    Zn78    1.914   .     S
O63    Zn80    1.930   .     S
O64    Zn79    1.923   .     S
O65    Zn77    1.909   .     S
O69    Zn77    1.934   .     S
O70    Zn80    1.937   .     S
O71    Zn78    1.925   .     S
O72    Zn79    1.941   .     S
O73    Zn80    1.933   .     S
O74    Zn77    1.919   .     S
O75    Zn78    1.947   .     S
O76    Zn79    1.938   .     S
C81    C91     1.438   .     S
C81    O151    1.268   .     A
C81    O153    1.267   .     A
C82    C111    1.406   .     A
C82    C83     1.386   .     A
C82    H136    1.081   .     S
C83    H133    1.081   .     S
C83    C805    1.403   .     S
C84    O154    1.284   .     A
C84    C90     1.465   .     S
C84    O152    1.278   .     A
C85    C86     1.423   .     A
C85    C87     1.421   .     A
C85    C803    1.403   1_554 S
C86    C89     1.407   .     A
C86    C112    1.428   .     A
C87    C88     1.412   .     A
C87    N138    1.427   .     S
C88    C106    1.493   .     S
C88    C100    1.414   .     A
C89    H132    1.079   .     S
C89    C100    1.392   .     A
C90    C171    1.347   .     S
C90    C184    1.499   .     S
C92    C101    1.396   .     A
C92    C99     1.415   .     A
C92    N140    1.423   .     S
C93    C96     1.455   .     S
C93    C334    1.347   .     S
C93    H371    1.088   .     S
C94    C95     1.437   .     S
C94    C573    1.347   1_545 S
C94    N619    1.433   1_545 S
C95    O155    1.272   .     A
C95    O149    1.278   .     A
C96    O150    1.258   .     A
C96    O156    1.271   .     A
C97    O144    1.272   .     A
C97    C100    1.464   .     S
C97    O142    1.278   .     A
C98    O145    1.290   .     A
C98    C99     1.478   .     S
C98    O143    1.284   .     A
C99    C103    1.416   .     A
C101   C110    1.396   .     A
C101   H134    1.084   .     S
C102   H117    1.111   .     S
C102   N138    1.446   .     S
C102   H836    1.111   1_554 S
C102   H838    1.110   1_554 S
C103   C109    1.425   .     A
C103   C108    1.498   .     S
C104   O146    1.221   .     D
C104   H119    1.085   .     S
C105   H123    1.111   .     S
C105   H121    1.110   .     S
C105   H122    1.111   .     S
C105   N619    1.448   1_545 S
C106   H124    1.085   .     S
C106   O147    1.221   .     D
C107   H128    1.110   .     S
C107   N140    1.447   .     S
C107   H127    1.112   .     S
C107   H129    1.111   .     S
C108   O148    1.221   .     D
C108   H130    1.084   .     S
C109   C110    1.416   .     A
C109   C111    1.427   .     A
C110   C834    1.395   .     S
C111   C832    1.422   .     S
C112   C113    1.413   .     A
C112   C831    1.422   1_554 S
C113   H135    1.078   .     S
C113   C114    1.389   .     A
C114   H115    1.085   .     S
C114   C830    1.395   1_554 S
H116   C822    1.111   .     S
H118   C822    1.110   .     S
H120   N139    1.032   .     S
H125   N140    1.032   .     S
H126   C171    1.086   .     S
H131   C573    1.088   1_545 S
H137   N858    1.030   .     S
N138   H857    1.030   1_554 S
N139   C334    1.433   .     S
N139   C345    1.448   .     S
O141   Zn160   1.926   .     S
O141   Zn157   1.967   .     S
O141   Zn158   1.942   .     S
O141   Zn159   1.924   .     S
O142   Zn158   1.914   .     S
O143   Zn160   1.930   .     S
O144   Zn159   1.923   .     S
O145   Zn157   1.909   .     S
O149   Zn157   1.934   .     S
O150   Zn160   1.937   .     S
O151   Zn158   1.925   .     S
O152   Zn159   1.941   .     S
O153   Zn160   1.933   .     S
O154   Zn157   1.919   .     S
O155   Zn158   1.947   .     S
O156   Zn159   1.938   .     S
C161   C171    1.438   .     S
C161   O231    1.268   .     A
C161   O233    1.267   .     A
C162   C191    1.406   .     A
C162   C163    1.386   .     A
C162   H216    1.081   .     S
C163   H213    1.081   .     S
C163   C885    1.403   .     S
C164   O234    1.284   .     A
C164   C170    1.465   .     S
C164   O232    1.278   .     A
C165   C166    1.423   .     A
C165   C167    1.421   .     A
C165   C883    1.403   1_554 S
C166   C169    1.407   .     A
C166   C192    1.428   .     A
C167   C168    1.412   .     A
C167   N218    1.427   .     S
C168   C186    1.493   .     S
C168   C180    1.414   .     A
C169   H212    1.079   .     S
C169   C180    1.392   .     A
C170   C11     1.347   1_655 S
C170   C24     1.499   1_655 S
C172   C181    1.396   .     A
C172   C179    1.415   .     A
C172   N220    1.423   .     S
C173   C176    1.455   .     S
C173   C414    1.347   .     S
C173   H451    1.088   .     S
C174   C175    1.437   .     S
C174   C653    1.347   1_545 S
C174   N699    1.433   1_545 S
C175   O235    1.272   .     A
C175   O229    1.278   .     A
C176   O230    1.258   .     A
C176   O236    1.271   .     A
C177   O224    1.272   .     A
C177   C180    1.464   .     S
C177   O222    1.278   .     A
C178   O225    1.290   .     A
C178   C179    1.478   .     S
C178   O223    1.284   .     A
C179   C183    1.416   .     A
C181   C190    1.396   .     A
C181   H214    1.084   .     S
C182   H197    1.111   .     S
C182   N218    1.446   .     S
C182   H916    1.111   1_554 S
C182   H918    1.110   1_554 S
C183   C189    1.425   .     A
C183   C188    1.498   .     S
C184   O226    1.221   .     D
C184   H199    1.085   .     S
C185   H203    1.111   .     S
C185   H201    1.110   .     S
C185   H202    1.111   .     S
C185   N699    1.448   1_545 S
C186   H204    1.085   .     S
C186   O227    1.221   .     D
C187   H208    1.110   .     S
C187   N220    1.447   .     S
C187   H207    1.112   .     S
C187   H209    1.111   .     S
C188   O228    1.221   .     D
C188   H210    1.084   .     S
C189   C190    1.416   .     A
C189   C191    1.427   .     A
C190   C914    1.395   .     S
C191   C912    1.422   .     S
C192   C193    1.413   .     A
C192   C911    1.422   1_554 S
C193   H215    1.078   .     S
C193   C194    1.389   .     A
C194   H195    1.085   .     S
C194   C910    1.395   1_554 S
H196   C902    1.111   .     S
H198   C902    1.110   .     S
H200   N219    1.032   .     S
H205   N220    1.032   .     S
H206   C11     1.086   1_655 S
H211   C653    1.088   1_545 S
H217   N938    1.030   .     S
N218   H937    1.030   1_554 S
N219   C414    1.433   .     S
N219   C425    1.448   .     S
O221   Zn240   1.926   .     S
O221   Zn237   1.967   .     S
O221   Zn238   1.942   .     S
O221   Zn239   1.924   .     S
O222   Zn238   1.914   .     S
O223   Zn240   1.930   .     S
O224   Zn239   1.923   .     S
O225   Zn237   1.909   .     S
O229   Zn237   1.934   .     S
O230   Zn240   1.937   .     S
O231   Zn238   1.925   .     S
O232   Zn239   1.941   .     S
O233   Zn240   1.933   .     S
O234   Zn237   1.919   .     S
O235   Zn238   1.947   .     S
O236   Zn239   1.938   .     S
C241   C251    1.438   .     S
C241   O311    1.268   .     A
C241   O313    1.267   .     A
C242   C271    1.406   .     A
C242   C243    1.386   .     A
C242   H296    1.081   .     S
C243   H293    1.081   .     S
C243   C965    1.403   .     S
C244   O314    1.284   .     A
C244   C250    1.465   .     S
C244   O312    1.278   .     A
C245   C246    1.423   .     A
C245   C247    1.421   .     A
C245   C963    1.403   1_554 S
C246   C249    1.407   .     A
C246   C272    1.428   .     A
C247   C248    1.412   .     A
C247   N298    1.427   .     S
C248   C266    1.493   .     S
C248   C260    1.414   .     A
C249   H292    1.079   .     S
C249   C260    1.392   .     A
C250   C331    1.347   .     S
C250   C344    1.499   .     S
C251   C410    1.347   1_455 S
C251   H446    1.086   1_455 S
C252   C261    1.396   .     A
C252   C259    1.415   .     A
C252   N300    1.423   .     S
C253   C256    1.455   .     S
C253   C494    1.347   .     S
C253   H531    1.088   .     S
C254   C255    1.437   .     S
C255   O315    1.272   .     A
C255   O309    1.278   .     A
C256   O310    1.258   .     A
C256   O316    1.271   .     A
C257   O304    1.272   .     A
C257   C260    1.464   .     S
C257   O302    1.278   .     A
C258   O305    1.290   .     A
C258   C259    1.478   .     S
C258   O303    1.284   .     A
C259   C263    1.416   .     A
C261   C270    1.396   .     A
C261   H294    1.084   .     S
C262   H277    1.111   .     S
C262   N298    1.446   .     S
C262   H996    1.111   1_554 S
C262   H998    1.110   1_554 S
C263   C269    1.425   .     A
C263   C268    1.498   .     S
C264   O306    1.221   .     D
C264   H279    1.085   .     S
C264   C410    1.499   1_455 S
C265   H283    1.111   .     S
C265   H281    1.110   .     S
C265   H282    1.111   .     S
C266   H284    1.085   .     S
C266   O307    1.221   .     D
C267   H288    1.110   .     S
C267   N300    1.447   .     S
C267   H287    1.112   .     S
C267   H289    1.111   .     S
C268   O308    1.221   .     D
C268   H290    1.084   .     S
C269   C270    1.416   .     A
C269   C271    1.427   .     A
C270   C994    1.395   .     S
C271   C992    1.422   .     S
C272   C273    1.413   .     A
C272   C991    1.422   1_554 S
C273   H295    1.078   .     S
C273   C274    1.389   .     A
C274   H275    1.085   .     S
C274   C990    1.395   1_554 S
H276   C982    1.111   .     S
H278   C982    1.110   .     S
H280   N299    1.032   .     S
H285   N300    1.032   .     S
H286   C331    1.086   .     S
H297   N1018   1.030   .     S
N298   H1017   1.030   1_554 S
N299   C494    1.433   .     S
N299   C505    1.448   .     S
O301   Zn320   1.926   .     S
O301   Zn317   1.967   .     S
O301   Zn318   1.942   .     S
O301   Zn319   1.924   .     S
O302   Zn318   1.914   .     S
O303   Zn320   1.930   .     S
O304   Zn319   1.923   .     S
O305   Zn317   1.909   .     S
O309   Zn317   1.934   .     S
O310   Zn320   1.937   .     S
O311   Zn318   1.925   .     S
O312   Zn319   1.941   .     S
O313   Zn320   1.933   .     S
O314   Zn317   1.919   .     S
O315   Zn318   1.947   .     S
O316   Zn319   1.938   .     S
C321   C331    1.438   .     S
C321   O391    1.268   .     A
C321   O393    1.267   .     A
C322   C351    1.406   .     A
C322   C323    1.386   .     A
C322   H376    1.081   .     S
C323   H373    1.081   .     S
C323   C1045   1.403   .     S
C324   O394    1.284   .     A
C324   C330    1.465   .     S
C324   O392    1.278   .     A
C325   C326    1.423   .     A
C325   C327    1.421   .     A
C325   C1043   1.403   1_554 S
C326   C329    1.407   .     A
C326   C352    1.428   .     A
C327   C328    1.412   .     A
C327   N378    1.427   .     S
C328   C346    1.493   .     S
C328   C340    1.414   .     A
C329   H372    1.079   .     S
C329   C340    1.392   .     A
C330   C411    1.347   .     S
C330   C424    1.499   .     S
C332   C341    1.396   .     A
C332   C339    1.415   .     A
C332   N380    1.423   .     S
C333   C336    1.455   .     S
C333   C574    1.347   .     S
C333   H611    1.088   .     S
C334   C335    1.437   .     S
C335   O395    1.272   .     A
C335   O389    1.278   .     A
C336   O390    1.258   .     A
C336   O396    1.271   .     A
C337   O384    1.272   .     A
C337   C340    1.464   .     S
C337   O382    1.278   .     A
C338   O385    1.290   .     A
C338   C339    1.478   .     S
C338   O383    1.284   .     A
C339   C343    1.416   .     A
C341   C350    1.396   .     A
C341   H374    1.084   .     S
C342   H357    1.111   .     S
C342   N378    1.446   .     S
C342   H1076   1.111   1_554 S
C342   H1078   1.110   1_554 S
C343   C349    1.425   .     A
C343   C348    1.498   .     S
C344   O386    1.221   .     D
C344   H359    1.085   .     S
C345   H363    1.111   .     S
C345   H361    1.110   .     S
C345   H362    1.111   .     S
C346   H364    1.085   .     S
C346   O387    1.221   .     D
C347   H368    1.110   .     S
C347   N380    1.447   .     S
C347   H367    1.112   .     S
C347   H369    1.111   .     S
C348   O388    1.221   .     D
C348   H370    1.084   .     S
C349   C350    1.416   .     A
C349   C351    1.427   .     A
C350   C1074   1.395   .     S
C351   C1072   1.422   .     S
C352   C353    1.413   .     A
C352   C1071   1.422   1_554 S
C353   H375    1.078   .     S
C353   C354    1.389   .     A
C354   H355    1.085   .     S
C354   C1070   1.395   1_554 S
H356   C1062   1.111   .     S
H358   C1062   1.110   .     S
H360   N379    1.032   .     S
H365   N380    1.032   .     S
H366   C411    1.086   .     S
H377   N1098   1.030   .     S
N378   H1097   1.030   1_554 S
N379   C574    1.433   .     S
N379   C585    1.448   .     S
O381   Zn400   1.926   .     S
O381   Zn397   1.967   .     S
O381   Zn398   1.942   .     S
O381   Zn399   1.924   .     S
O382   Zn398   1.914   .     S
O383   Zn400   1.930   .     S
O384   Zn399   1.923   .     S
O385   Zn397   1.909   .     S
O389   Zn397   1.934   .     S
O390   Zn400   1.937   .     S
O391   Zn398   1.925   .     S
O392   Zn399   1.941   .     S
O393   Zn400   1.933   .     S
O394   Zn397   1.919   .     S
O395   Zn398   1.947   .     S
O396   Zn399   1.938   .     S
C401   C411    1.438   .     S
C401   O471    1.268   .     A
C401   O473    1.267   .     A
C402   C431    1.406   .     A
C402   C403    1.386   .     A
C402   H456    1.081   .     S
C403   H453    1.081   .     S
C403   C1125   1.403   .     S
C404   O474    1.284   .     A
C404   C410    1.465   .     S
C404   O472    1.278   .     A
C405   C406    1.423   .     A
C405   C407    1.421   .     A
C405   C1123   1.403   1_554 S
C406   C409    1.407   .     A
C406   C432    1.428   .     A
C407   C408    1.412   .     A
C407   N458    1.427   .     S
C408   C426    1.493   .     S
C408   C420    1.414   .     A
C409   H452    1.079   .     S
C409   C420    1.392   .     A
C410   C251    1.347   1_655 S
C410   C264    1.499   1_655 S
C412   C421    1.396   .     A
C412   C419    1.415   .     A
C412   N460    1.423   .     S
C413   C416    1.455   .     S
C413   C654    1.347   .     S
C413   H691    1.088   .     S
C414   C415    1.437   .     S
C415   O475    1.272   .     A
C415   O469    1.278   .     A
C416   O470    1.258   .     A
C416   O476    1.271   .     A
C417   O464    1.272   .     A
C417   C420    1.464   .     S
C417   O462    1.278   .     A
C418   O465    1.290   .     A
C418   C419    1.478   .     S
C418   O463    1.284   .     A
C419   C423    1.416   .     A
C421   C430    1.396   .     A
C421   H454    1.084   .     S
C422   H437    1.111   .     S
C422   N458    1.446   .     S
C422   H1156   1.111   1_554 S
C422   H1158   1.110   1_554 S
C423   C429    1.425   .     A
C423   C428    1.498   .     S
C424   O466    1.221   .     D
C424   H439    1.085   .     S
C425   H443    1.111   .     S
C425   H441    1.110   .     S
C425   H442    1.111   .     S
C426   H444    1.085   .     S
C426   O467    1.221   .     D
C427   H448    1.110   .     S
C427   N460    1.447   .     S
C427   H447    1.112   .     S
C427   H449    1.111   .     S
C428   O468    1.221   .     D
C428   H450    1.084   .     S
C429   C430    1.416   .     A
C429   C431    1.427   .     A
C430   C1154   1.395   .     S
C431   C1152   1.422   .     S
C432   C433    1.413   .     A
C432   C1151   1.422   1_554 S
C433   H455    1.078   .     S
C433   C434    1.389   .     A
C434   H435    1.085   .     S
C434   C1150   1.395   1_554 S
H436   C1142   1.111   .     S
H438   C1142   1.110   .     S
H440   N459    1.032   .     S
H445   N460    1.032   .     S
H446   C251    1.086   1_655 S
H457   N1178   1.030   .     S
N458   H1177   1.030   1_554 S
N459   C654    1.433   .     S
N459   C665    1.448   .     S
O461   Zn480   1.926   .     S
O461   Zn477   1.967   .     S
O461   Zn478   1.942   .     S
O461   Zn479   1.924   .     S
O462   Zn478   1.914   .     S
O463   Zn480   1.930   .     S
O464   Zn479   1.923   .     S
O465   Zn477   1.909   .     S
O469   Zn477   1.934   .     S
O470   Zn480   1.937   .     S
O471   Zn478   1.925   .     S
O472   Zn479   1.941   .     S
O473   Zn480   1.933   .     S
O474   Zn477   1.919   .     S
O475   Zn478   1.947   .     S
O476   Zn479   1.938   .     S
C481   C491    1.438   .     S
C481   O551    1.268   .     A
C481   O553    1.267   .     A
C482   C511    1.406   .     A
C482   C483    1.386   .     A
C482   H536    1.081   .     S
C483   H533    1.081   .     S
C483   C1205   1.403   .     S
C484   O554    1.284   .     A
C484   C490    1.465   .     S
C484   O552    1.278   .     A
C485   C486    1.423   .     A
C485   C487    1.421   .     A
C485   C1203   1.403   1_554 S
C486   C489    1.407   .     A
C486   C512    1.428   .     A
C487   C488    1.412   .     A
C487   N538    1.427   .     S
C488   C506    1.493   .     S
C488   C500    1.414   .     A
C489   H532    1.079   .     S
C489   C500    1.392   .     A
C490   C571    1.347   .     S
C490   C584    1.499   .     S
C491   C650    1.347   1_455 S
C491   H686    1.086   1_455 S
C492   C501    1.396   .     A
C492   C499    1.415   .     A
C492   N540    1.423   .     S
C493   C496    1.455   .     S
C493   C14     1.347   1_565 S
C493   H51     1.088   1_565 S
C494   C495    1.437   .     S
C495   O555    1.272   .     A
C495   O549    1.278   .     A
C496   O550    1.258   .     A
C496   O556    1.271   .     A
C497   O544    1.272   .     A
C497   C500    1.464   .     S
C497   O542    1.278   .     A
C498   O545    1.290   .     A
C498   C499    1.478   .     S
C498   O543    1.284   .     A
C499   C503    1.416   .     A
C501   C510    1.396   .     A
C501   H534    1.084   .     S
C502   H517    1.111   .     S
C502   N538    1.446   .     S
C502   H1236   1.111   1_554 S
C502   H1238   1.110   1_554 S
C503   C509    1.425   .     A
C503   C508    1.498   .     S
C504   O546    1.221   .     D
C504   H519    1.085   .     S
C504   C650    1.499   1_455 S
C505   H523    1.111   .     S
C505   H521    1.110   .     S
C505   H522    1.111   .     S
C506   H524    1.085   .     S
C506   O547    1.221   .     D
C507   H528    1.110   .     S
C507   N540    1.447   .     S
C507   H527    1.112   .     S
C507   H529    1.111   .     S
C508   O548    1.221   .     D
C508   H530    1.084   .     S
C509   C510    1.416   .     A
C509   C511    1.427   .     A
C510   C1234   1.395   .     S
C511   C1232   1.422   .     S
C512   C513    1.413   .     A
C512   C1231   1.422   1_554 S
C513   H535    1.078   .     S
C513   C514    1.389   .     A
C514   H515    1.085   .     S
C514   C1230   1.395   1_554 S
H516   C1222   1.111   .     S
H518   C1222   1.110   .     S
H520   N539    1.032   .     S
H525   N540    1.032   .     S
H526   C571    1.086   .     S
H537   N1258   1.030   .     S
N538   H1257   1.030   1_554 S
N539   C14     1.433   1_565 S
N539   C25     1.448   1_565 S
O541   Zn560   1.926   .     S
O541   Zn557   1.967   .     S
O541   Zn558   1.942   .     S
O541   Zn559   1.924   .     S
O542   Zn558   1.914   .     S
O543   Zn560   1.930   .     S
O544   Zn559   1.923   .     S
O545   Zn557   1.909   .     S
O549   Zn557   1.934   .     S
O550   Zn560   1.937   .     S
O551   Zn558   1.925   .     S
O552   Zn559   1.941   .     S
O553   Zn560   1.933   .     S
O554   Zn557   1.919   .     S
O555   Zn558   1.947   .     S
O556   Zn559   1.938   .     S
C561   C571    1.438   .     S
C561   O631    1.268   .     A
C561   O633    1.267   .     A
C562   C591    1.406   .     A
C562   C563    1.386   .     A
C562   H616    1.081   .     S
C563   H613    1.081   .     S
C563   C1285   1.403   .     S
C564   O634    1.284   .     A
C564   C570    1.465   .     S
C564   O632    1.278   .     A
C565   C566    1.423   .     A
C565   C567    1.421   .     A
C565   C1283   1.403   1_554 S
C566   C569    1.407   .     A
C566   C592    1.428   .     A
C567   C568    1.412   .     A
C567   N618    1.427   .     S
C568   C586    1.493   .     S
C568   C580    1.414   .     A
C569   H612    1.079   .     S
C569   C580    1.392   .     A
C570   C651    1.347   .     S
C570   C664    1.499   .     S
C572   C581    1.396   .     A
C572   C579    1.415   .     A
C572   N620    1.423   .     S
C573   C576    1.455   .     S
C573   C94     1.347   1_565 S
C573   H131    1.088   1_565 S
C574   C575    1.437   .     S
C575   O635    1.272   .     A
C575   O629    1.278   .     A
C576   O630    1.258   .     A
C576   O636    1.271   .     A
C577   O624    1.272   .     A
C577   C580    1.464   .     S
C577   O622    1.278   .     A
C578   O625    1.290   .     A
C578   C579    1.478   .     S
C578   O623    1.284   .     A
C579   C583    1.416   .     A
C581   C590    1.396   .     A
C581   H614    1.084   .     S
C582   H597    1.111   .     S
C582   N618    1.446   .     S
C582   H1316   1.111   1_554 S
C582   H1318   1.110   1_554 S
C583   C589    1.425   .     A
C583   C588    1.498   .     S
C584   O626    1.221   .     D
C584   H599    1.085   .     S
C585   H603    1.111   .     S
C585   H601    1.110   .     S
C585   H602    1.111   .     S
C586   H604    1.085   .     S
C586   O627    1.221   .     D
C587   H608    1.110   .     S
C587   N620    1.447   .     S
C587   H607    1.112   .     S
C587   H609    1.111   .     S
C588   O628    1.221   .     D
C588   H610    1.084   .     S
C589   C590    1.416   .     A
C589   C591    1.427   .     A
C590   C1314   1.395   .     S
C591   C1312   1.422   .     S
C592   C593    1.413   .     A
C592   C1311   1.422   1_554 S
C593   H615    1.078   .     S
C593   C594    1.389   .     A
C594   H595    1.085   .     S
C594   C1310   1.395   1_554 S
H596   C1302   1.111   .     S
H598   C1302   1.110   .     S
H600   N619    1.032   .     S
H605   N620    1.032   .     S
H606   C651    1.086   .     S
H617   N1338   1.030   .     S
N618   H1337   1.030   1_554 S
N619   C94     1.433   1_565 S
N619   C105    1.448   1_565 S
O621   Zn640   1.926   .     S
O621   Zn637   1.967   .     S
O621   Zn638   1.942   .     S
O621   Zn639   1.924   .     S
O622   Zn638   1.914   .     S
O623   Zn640   1.930   .     S
O624   Zn639   1.923   .     S
O625   Zn637   1.909   .     S
O629   Zn637   1.934   .     S
O630   Zn640   1.937   .     S
O631   Zn638   1.925   .     S
O632   Zn639   1.941   .     S
O633   Zn640   1.933   .     S
O634   Zn637   1.919   .     S
O635   Zn638   1.947   .     S
O636   Zn639   1.938   .     S
C641   C651    1.438   .     S
C641   O711    1.268   .     A
C641   O713    1.267   .     A
C642   C671    1.406   .     A
C642   C643    1.386   .     A
C642   H696    1.081   .     S
C643   H693    1.081   .     S
C643   C1365   1.403   .     S
C644   O714    1.284   .     A
C644   C650    1.465   .     S
C644   O712    1.278   .     A
C645   C646    1.423   .     A
C645   C647    1.421   .     A
C645   C1363   1.403   1_554 S
C646   C649    1.407   .     A
C646   C672    1.428   .     A
C647   C648    1.412   .     A
C647   N698    1.427   .     S
C648   C666    1.493   .     S
C648   C660    1.414   .     A
C649   H692    1.079   .     S
C649   C660    1.392   .     A
C650   C491    1.347   1_655 S
C650   C504    1.499   1_655 S
C652   C661    1.396   .     A
C652   C659    1.415   .     A
C652   N700    1.423   .     S
C653   C656    1.455   .     S
C653   C174    1.347   1_565 S
C653   H211    1.088   1_565 S
C654   C655    1.437   .     S
C655   O715    1.272   .     A
C655   O709    1.278   .     A
C656   O710    1.258   .     A
C656   O716    1.271   .     A
C657   O704    1.272   .     A
C657   C660    1.464   .     S
C657   O702    1.278   .     A
C658   O705    1.290   .     A
C658   C659    1.478   .     S
C658   O703    1.284   .     A
C659   C663    1.416   .     A
C661   C670    1.396   .     A
C661   H694    1.084   .     S
C662   H677    1.111   .     S
C662   N698    1.446   .     S
C662   H1396   1.111   1_554 S
C662   H1398   1.110   1_554 S
C663   C669    1.425   .     A
C663   C668    1.498   .     S
C664   O706    1.221   .     D
C664   H679    1.085   .     S
C665   H683    1.111   .     S
C665   H681    1.110   .     S
C665   H682    1.111   .     S
C666   H684    1.085   .     S
C666   O707    1.221   .     D
C667   H688    1.110   .     S
C667   N700    1.447   .     S
C667   H687    1.112   .     S
C667   H689    1.111   .     S
C668   O708    1.221   .     D
C668   H690    1.084   .     S
C669   C670    1.416   .     A
C669   C671    1.427   .     A
C670   C1394   1.395   .     S
C671   C1392   1.422   .     S
C672   C673    1.413   .     A
C672   C1391   1.422   1_554 S
C673   H695    1.078   .     S
C673   C674    1.389   .     A
C674   H675    1.085   .     S
C674   C1390   1.395   1_554 S
H676   C1382   1.111   .     S
H678   C1382   1.110   .     S
H680   N699    1.032   .     S
H685   N700    1.032   .     S
H686   C491    1.086   1_655 S
H697   N1418   1.030   .     S
N698   H1417   1.030   1_554 S
N699   C174    1.433   1_565 S
N699   C185    1.448   1_565 S
O701   Zn720   1.926   .     S
O701   Zn717   1.967   .     S
O701   Zn718   1.942   .     S
O701   Zn719   1.924   .     S
O702   Zn718   1.914   .     S
O703   Zn720   1.930   .     S
O704   Zn719   1.923   .     S
O705   Zn717   1.909   .     S
O709   Zn717   1.934   .     S
O710   Zn720   1.937   .     S
O711   Zn718   1.925   .     S
O712   Zn719   1.941   .     S
O713   Zn720   1.933   .     S
O714   Zn717   1.919   .     S
O715   Zn718   1.947   .     S
O716   Zn719   1.938   .     S
C721   C731    1.438   .     S
C721   O791    1.268   .     A
C721   O793    1.267   .     A
C722   C751    1.406   .     A
C722   C723    1.386   .     A
C722   H776    1.081   .     S
C723   H773    1.081   .     S
C723   C5      1.403   1_556 S
C724   O794    1.284   .     A
C724   C730    1.465   .     S
C724   O792    1.278   .     A
C725   C726    1.423   .     A
C725   C727    1.421   .     A
C726   C729    1.407   .     A
C726   C752    1.428   .     A
C727   C728    1.412   .     A
C727   N778    1.427   .     S
C728   C746    1.493   .     S
C728   C740    1.414   .     A
C729   H772    1.079   .     S
C729   C740    1.392   .     A
C730   C811    1.347   .     S
C730   C824    1.499   .     S
C731   C890    1.347   1_455 S
C731   H926    1.086   1_455 S
C732   C741    1.396   .     A
C732   C739    1.415   .     A
C732   N780    1.423   .     S
C733   C736    1.455   .     S
C733   C974    1.347   .     S
C733   H1011   1.088   .     S
C734   C735    1.437   .     S
C734   C1213   1.347   1_545 S
C734   N1259   1.433   1_545 S
C735   O795    1.272   .     A
C735   O789    1.278   .     A
C736   O790    1.258   .     A
C736   O796    1.271   .     A
C737   O784    1.272   .     A
C737   C740    1.464   .     S
C737   O782    1.278   .     A
C738   O785    1.290   .     A
C738   C739    1.478   .     S
C738   O783    1.284   .     A
C739   C743    1.416   .     A
C741   C750    1.396   .     A
C741   H774    1.084   .     S
C742   H757    1.111   .     S
C742   N778    1.446   .     S
C743   C749    1.425   .     A
C743   C748    1.498   .     S
C744   O786    1.221   .     D
C744   H759    1.085   .     S
C744   C890    1.499   1_455 S
C745   H763    1.111   .     S
C745   H761    1.110   .     S
C745   H762    1.111   .     S
C745   N1259   1.448   1_545 S
C746   H764    1.085   .     S
C746   O787    1.221   .     D
C747   H768    1.110   .     S
C747   N780    1.447   .     S
C747   H767    1.112   .     S
C747   H769    1.111   .     S
C748   O788    1.221   .     D
C748   H770    1.084   .     S
C749   C750    1.416   .     A
C749   C751    1.427   .     A
C750   C34     1.395   1_556 S
C751   C32     1.422   1_556 S
C752   C753    1.413   .     A
C753   H775    1.078   .     S
C753   C754    1.389   .     A
C754   H755    1.085   .     S
H756   C22     1.111   1_556 S
H758   C22     1.110   1_556 S
H760   N779    1.032   .     S
H765   N780    1.032   .     S
H766   C811    1.086   .     S
H771   C1213   1.088   1_545 S
H777   N58     1.030   1_556 S
N779   C974    1.433   .     S
N779   C985    1.448   .     S
O781   Zn800   1.926   .     S
O781   Zn797   1.967   .     S
O781   Zn798   1.942   .     S
O781   Zn799   1.924   .     S
O782   Zn798   1.914   .     S
O783   Zn800   1.930   .     S
O784   Zn799   1.923   .     S
O785   Zn797   1.909   .     S
O789   Zn797   1.934   .     S
O790   Zn800   1.937   .     S
O791   Zn798   1.925   .     S
O792   Zn799   1.941   .     S
O793   Zn800   1.933   .     S
O794   Zn797   1.919   .     S
O795   Zn798   1.947   .     S
O796   Zn799   1.938   .     S
C801   C811    1.438   .     S
C801   O871    1.268   .     A
C801   O873    1.267   .     A
C802   C831    1.406   .     A
C802   C803    1.386   .     A
C802   H856    1.081   .     S
C803   H853    1.081   .     S
C803   C85     1.403   1_556 S
C804   O874    1.284   .     A
C804   C810    1.465   .     S
C804   O872    1.278   .     A
C805   C806    1.423   .     A
C805   C807    1.421   .     A
C806   C809    1.407   .     A
C806   C832    1.428   .     A
C807   C808    1.412   .     A
C807   N858    1.427   .     S
C808   C826    1.493   .     S
C808   C820    1.414   .     A
C809   H852    1.079   .     S
C809   C820    1.392   .     A
C810   C891    1.347   .     S
C810   C904    1.499   .     S
C812   C821    1.396   .     A
C812   C819    1.415   .     A
C812   N860    1.423   .     S
C813   C816    1.455   .     S
C813   C1054   1.347   .     S
C813   H1091   1.088   .     S
C814   C815    1.437   .     S
C814   C1293   1.347   1_545 S
C814   N1339   1.433   1_545 S
C815   O875    1.272   .     A
C815   O869    1.278   .     A
C816   O870    1.258   .     A
C816   O876    1.271   .     A
C817   O864    1.272   .     A
C817   C820    1.464   .     S
C817   O862    1.278   .     A
C818   O865    1.290   .     A
C818   C819    1.478   .     S
C818   O863    1.284   .     A
C819   C823    1.416   .     A
C821   C830    1.396   .     A
C821   H854    1.084   .     S
C822   H837    1.111   .     S
C822   N858    1.446   .     S
C823   C829    1.425   .     A
C823   C828    1.498   .     S
C824   O866    1.221   .     D
C824   H839    1.085   .     S
C825   H843    1.111   .     S
C825   H841    1.110   .     S
C825   H842    1.111   .     S
C825   N1339   1.448   1_545 S
C826   H844    1.085   .     S
C826   O867    1.221   .     D
C827   H848    1.110   .     S
C827   N860    1.447   .     S
C827   H847    1.112   .     S
C827   H849    1.111   .     S
C828   O868    1.221   .     D
C828   H850    1.084   .     S
C829   C830    1.416   .     A
C829   C831    1.427   .     A
C830   C114    1.395   1_556 S
C831   C112    1.422   1_556 S
C832   C833    1.413   .     A
C833   H855    1.078   .     S
C833   C834    1.389   .     A
C834   H835    1.085   .     S
H836   C102    1.111   1_556 S
H838   C102    1.110   1_556 S
H840   N859    1.032   .     S
H845   N860    1.032   .     S
H846   C891    1.086   .     S
H851   C1293   1.088   1_545 S
H857   N138    1.030   1_556 S
N859   C1054   1.433   .     S
N859   C1065   1.448   .     S
O861   Zn880   1.926   .     S
O861   Zn877   1.967   .     S
O861   Zn878   1.942   .     S
O861   Zn879   1.924   .     S
O862   Zn878   1.914   .     S
O863   Zn880   1.930   .     S
O864   Zn879   1.923   .     S
O865   Zn877   1.909   .     S
O869   Zn877   1.934   .     S
O870   Zn880   1.937   .     S
O871   Zn878   1.925   .     S
O872   Zn879   1.941   .     S
O873   Zn880   1.933   .     S
O874   Zn877   1.919   .     S
O875   Zn878   1.947   .     S
O876   Zn879   1.938   .     S
C881   C891    1.438   .     S
C881   O951    1.268   .     A
C881   O953    1.267   .     A
C882   C911    1.406   .     A
C882   C883    1.386   .     A
C882   H936    1.081   .     S
C883   H933    1.081   .     S
C883   C165    1.403   1_556 S
C884   O954    1.284   .     A
C884   C890    1.465   .     S
C884   O952    1.278   .     A
C885   C886    1.423   .     A
C885   C887    1.421   .     A
C886   C889    1.407   .     A
C886   C912    1.428   .     A
C887   C888    1.412   .     A
C887   N938    1.427   .     S
C888   C906    1.493   .     S
C888   C900    1.414   .     A
C889   H932    1.079   .     S
C889   C900    1.392   .     A
C890   C731    1.347   1_655 S
C890   C744    1.499   1_655 S
C892   C901    1.396   .     A
C892   C899    1.415   .     A
C892   N940    1.423   .     S
C893   C896    1.455   .     S
C893   C1134   1.347   .     S
C893   H1171   1.088   .     S
C894   C895    1.437   .     S
C894   C1373   1.347   1_545 S
C894   N1419   1.433   1_545 S
C895   O955    1.272   .     A
C895   O949    1.278   .     A
C896   O950    1.258   .     A
C896   O956    1.271   .     A
C897   O944    1.272   .     A
C897   C900    1.464   .     S
C897   O942    1.278   .     A
C898   O945    1.290   .     A
C898   C899    1.478   .     S
C898   O943    1.284   .     A
C899   C903    1.416   .     A
C901   C910    1.396   .     A
C901   H934    1.084   .     S
C902   H917    1.111   .     S
C902   N938    1.446   .     S
C903   C909    1.425   .     A
C903   C908    1.498   .     S
C904   O946    1.221   .     D
C904   H919    1.085   .     S
C905   H923    1.111   .     S
C905   H921    1.110   .     S
C905   H922    1.111   .     S
C905   N1419   1.448   1_545 S
C906   H924    1.085   .     S
C906   O947    1.221   .     D
C907   H928    1.110   .     S
C907   N940    1.447   .     S
C907   H927    1.112   .     S
C907   H929    1.111   .     S
C908   O948    1.221   .     D
C908   H930    1.084   .     S
C909   C910    1.416   .     A
C909   C911    1.427   .     A
C910   C194    1.395   1_556 S
C911   C192    1.422   1_556 S
C912   C913    1.413   .     A
C913   H935    1.078   .     S
C913   C914    1.389   .     A
C914   H915    1.085   .     S
H916   C182    1.111   1_556 S
H918   C182    1.110   1_556 S
H920   N939    1.032   .     S
H925   N940    1.032   .     S
H926   C731    1.086   1_655 S
H931   C1373   1.088   1_545 S
H937   N218    1.030   1_556 S
N939   C1134   1.433   .     S
N939   C1145   1.448   .     S
O941   Zn960   1.926   .     S
O941   Zn957   1.967   .     S
O941   Zn958   1.942   .     S
O941   Zn959   1.924   .     S
O942   Zn958   1.914   .     S
O943   Zn960   1.930   .     S
O944   Zn959   1.923   .     S
O945   Zn957   1.909   .     S
O949   Zn957   1.934   .     S
O950   Zn960   1.937   .     S
O951   Zn958   1.925   .     S
O952   Zn959   1.941   .     S
O953   Zn960   1.933   .     S
O954   Zn957   1.919   .     S
O955   Zn958   1.947   .     S
O956   Zn959   1.938   .     S
C961   C971    1.438   .     S
C961   O1031   1.268   .     A
C961   O1033   1.267   .     A
C962   C991    1.406   .     A
C962   C963    1.386   .     A
C962   H1016   1.081   .     S
C963   H1013   1.081   .     S
C963   C245    1.403   1_556 S
C964   O1034   1.284   .     A
C964   C970    1.465   .     S
C964   O1032   1.278   .     A
C965   C966    1.423   .     A
C965   C967    1.421   .     A
C966   C969    1.407   .     A
C966   C992    1.428   .     A
C967   C968    1.412   .     A
C967   N1018   1.427   .     S
C968   C986    1.493   .     S
C968   C980    1.414   .     A
C969   H1012   1.079   .     S
C969   C980    1.392   .     A
C970   C1051   1.347   .     S
C970   C1064   1.499   .     S
C971   C1130   1.347   1_455 S
C971   H1166   1.086   1_455 S
C972   C981    1.396   .     A
C972   C979    1.415   .     A
C972   N1020   1.423   .     S
C973   C976    1.455   .     S
C973   C1214   1.347   .     S
C973   H1251   1.088   .     S
C974   C975    1.437   .     S
C975   O1035   1.272   .     A
C975   O1029   1.278   .     A
C976   O1030   1.258   .     A
C976   O1036   1.271   .     A
C977   O1024   1.272   .     A
C977   C980    1.464   .     S
C977   O1022   1.278   .     A
C978   O1025   1.290   .     A
C978   C979    1.478   .     S
C978   O1023   1.284   .     A
C979   C983    1.416   .     A
C981   C990    1.396   .     A
C981   H1014   1.084   .     S
C982   H997    1.111   .     S
C982   N1018   1.446   .     S
C983   C989    1.425   .     A
C983   C988    1.498   .     S
C984   O1026   1.221   .     D
C984   H999    1.085   .     S
C984   C1130   1.499   1_455 S
C985   H1003   1.111   .     S
C985   H1001   1.110   .     S
C985   H1002   1.111   .     S
C986   H1004   1.085   .     S
C986   O1027   1.221   .     D
C987   H1008   1.110   .     S
C987   N1020   1.447   .     S
C987   H1007   1.112   .     S
C987   H1009   1.111   .     S
C988   O1028   1.221   .     D
C988   H1010   1.084   .     S
C989   C990    1.416   .     A
C989   C991    1.427   .     A
C990   C274    1.395   1_556 S
C991   C272    1.422   1_556 S
C992   C993    1.413   .     A
C993   H1015   1.078   .     S
C993   C994    1.389   .     A
C994   H995    1.085   .     S
H996   C262    1.111   1_556 S
H998   C262    1.110   1_556 S
H1000  N1019   1.032   .     S
H1005  N1020   1.032   .     S
H1006  C1051   1.086   .     S
H1017  N298    1.030   1_556 S
N1019  C1214   1.433   .     S
N1019  C1225   1.448   .     S
O1021  Zn1040  1.926   .     S
O1021  Zn1037  1.967   .     S
O1021  Zn1038  1.942   .     S
O1021  Zn1039  1.924   .     S
O1022  Zn1038  1.914   .     S
O1023  Zn1040  1.930   .     S
O1024  Zn1039  1.923   .     S
O1025  Zn1037  1.909   .     S
O1029  Zn1037  1.934   .     S
O1030  Zn1040  1.937   .     S
O1031  Zn1038  1.925   .     S
O1032  Zn1039  1.941   .     S
O1033  Zn1040  1.933   .     S
O1034  Zn1037  1.919   .     S
O1035  Zn1038  1.947   .     S
O1036  Zn1039  1.938   .     S
C1041  C1051   1.438   .     S
C1041  O1111   1.268   .     A
C1041  O1113   1.267   .     A
C1042  C1071   1.406   .     A
C1042  C1043   1.386   .     A
C1042  H1096   1.081   .     S
C1043  H1093   1.081   .     S
C1043  C325    1.403   1_556 S
C1044  O1114   1.284   .     A
C1044  C1050   1.465   .     S
C1044  O1112   1.278   .     A
C1045  C1046   1.423   .     A
C1045  C1047   1.421   .     A
C1046  C1049   1.407   .     A
C1046  C1072   1.428   .     A
C1047  C1048   1.412   .     A
C1047  N1098   1.427   .     S
C1048  C1066   1.493   .     S
C1048  C1060   1.414   .     A
C1049  H1092   1.079   .     S
C1049  C1060   1.392   .     A
C1050  C1131   1.347   .     S
C1050  C1144   1.499   .     S
C1052  C1061   1.396   .     A
C1052  C1059   1.415   .     A
C1052  N1100   1.423   .     S
C1053  C1056   1.455   .     S
C1053  C1294   1.347   .     S
C1053  H1331   1.088   .     S
C1054  C1055   1.437   .     S
C1055  O1115   1.272   .     A
C1055  O1109   1.278   .     A
C1056  O1110   1.258   .     A
C1056  O1116   1.271   .     A
C1057  O1104   1.272   .     A
C1057  C1060   1.464   .     S
C1057  O1102   1.278   .     A
C1058  O1105   1.290   .     A
C1058  C1059   1.478   .     S
C1058  O1103   1.284   .     A
C1059  C1063   1.416   .     A
C1061  C1070   1.396   .     A
C1061  H1094   1.084   .     S
C1062  H1077   1.111   .     S
C1062  N1098   1.446   .     S
C1063  C1069   1.425   .     A
C1063  C1068   1.498   .     S
C1064  O1106   1.221   .     D
C1064  H1079   1.085   .     S
C1065  H1083   1.111   .     S
C1065  H1081   1.110   .     S
C1065  H1082   1.111   .     S
C1066  H1084   1.085   .     S
C1066  O1107   1.221   .     D
C1067  H1088   1.110   .     S
C1067  N1100   1.447   .     S
C1067  H1087   1.112   .     S
C1067  H1089   1.111   .     S
C1068  O1108   1.221   .     D
C1068  H1090   1.084   .     S
C1069  C1070   1.416   .     A
C1069  C1071   1.427   .     A
C1070  C354    1.395   1_556 S
C1071  C352    1.422   1_556 S
C1072  C1073   1.413   .     A
C1073  H1095   1.078   .     S
C1073  C1074   1.389   .     A
C1074  H1075   1.085   .     S
H1076  C342    1.111   1_556 S
H1078  C342    1.110   1_556 S
H1080  N1099   1.032   .     S
H1085  N1100   1.032   .     S
H1086  C1131   1.086   .     S
H1097  N378    1.030   1_556 S
N1099  C1294   1.433   .     S
N1099  C1305   1.448   .     S
O1101  Zn1120  1.926   .     S
O1101  Zn1117  1.967   .     S
O1101  Zn1118  1.942   .     S
O1101  Zn1119  1.924   .     S
O1102  Zn1118  1.914   .     S
O1103  Zn1120  1.930   .     S
O1104  Zn1119  1.923   .     S
O1105  Zn1117  1.909   .     S
O1109  Zn1117  1.934   .     S
O1110  Zn1120  1.937   .     S
O1111  Zn1118  1.925   .     S
O1112  Zn1119  1.941   .     S
O1113  Zn1120  1.933   .     S
O1114  Zn1117  1.919   .     S
O1115  Zn1118  1.947   .     S
O1116  Zn1119  1.938   .     S
C1121  C1131   1.438   .     S
C1121  O1191   1.268   .     A
C1121  O1193   1.267   .     A
C1122  C1151   1.406   .     A
C1122  C1123   1.386   .     A
C1122  H1176   1.081   .     S
C1123  H1173   1.081   .     S
C1123  C405    1.403   1_556 S
C1124  O1194   1.284   .     A
C1124  C1130   1.465   .     S
C1124  O1192   1.278   .     A
C1125  C1126   1.423   .     A
C1125  C1127   1.421   .     A
C1126  C1129   1.407   .     A
C1126  C1152   1.428   .     A
C1127  C1128   1.412   .     A
C1127  N1178   1.427   .     S
C1128  C1146   1.493   .     S
C1128  C1140   1.414   .     A
C1129  H1172   1.079   .     S
C1129  C1140   1.392   .     A
C1130  C971    1.347   1_655 S
C1130  C984    1.499   1_655 S
C1132  C1141   1.396   .     A
C1132  C1139   1.415   .     A
C1132  N1180   1.423   .     S
C1133  C1136   1.455   .     S
C1133  C1374   1.347   .     S
C1133  H1411   1.088   .     S
C1134  C1135   1.437   .     S
C1135  O1195   1.272   .     A
C1135  O1189   1.278   .     A
C1136  O1190   1.258   .     A
C1136  O1196   1.271   .     A
C1137  O1184   1.272   .     A
C1137  C1140   1.464   .     S
C1137  O1182   1.278   .     A
C1138  O1185   1.290   .     A
C1138  C1139   1.478   .     S
C1138  O1183   1.284   .     A
C1139  C1143   1.416   .     A
C1141  C1150   1.396   .     A
C1141  H1174   1.084   .     S
C1142  H1157   1.111   .     S
C1142  N1178   1.446   .     S
C1143  C1149   1.425   .     A
C1143  C1148   1.498   .     S
C1144  O1186   1.221   .     D
C1144  H1159   1.085   .     S
C1145  H1163   1.111   .     S
C1145  H1161   1.110   .     S
C1145  H1162   1.111   .     S
C1146  H1164   1.085   .     S
C1146  O1187   1.221   .     D
C1147  H1168   1.110   .     S
C1147  N1180   1.447   .     S
C1147  H1167   1.112   .     S
C1147  H1169   1.111   .     S
C1148  O1188   1.221   .     D
C1148  H1170   1.084   .     S
C1149  C1150   1.416   .     A
C1149  C1151   1.427   .     A
C1150  C434    1.395   1_556 S
C1151  C432    1.422   1_556 S
C1152  C1153   1.413   .     A
C1153  H1175   1.078   .     S
C1153  C1154   1.389   .     A
C1154  H1155   1.085   .     S
H1156  C422    1.111   1_556 S
H1158  C422    1.110   1_556 S
H1160  N1179   1.032   .     S
H1165  N1180   1.032   .     S
H1166  C971    1.086   1_655 S
H1177  N458    1.030   1_556 S
N1179  C1374   1.433   .     S
N1179  C1385   1.448   .     S
O1181  Zn1200  1.926   .     S
O1181  Zn1197  1.967   .     S
O1181  Zn1198  1.942   .     S
O1181  Zn1199  1.924   .     S
O1182  Zn1198  1.914   .     S
O1183  Zn1200  1.930   .     S
O1184  Zn1199  1.923   .     S
O1185  Zn1197  1.909   .     S
O1189  Zn1197  1.934   .     S
O1190  Zn1200  1.937   .     S
O1191  Zn1198  1.925   .     S
O1192  Zn1199  1.941   .     S
O1193  Zn1200  1.933   .     S
O1194  Zn1197  1.919   .     S
O1195  Zn1198  1.947   .     S
O1196  Zn1199  1.938   .     S
C1201  C1211   1.438   .     S
C1201  O1271   1.268   .     A
C1201  O1273   1.267   .     A
C1202  C1231   1.406   .     A
C1202  C1203   1.386   .     A
C1202  H1256   1.081   .     S
C1203  H1253   1.081   .     S
C1203  C485    1.403   1_556 S
C1204  O1274   1.284   .     A
C1204  C1210   1.465   .     S
C1204  O1272   1.278   .     A
C1205  C1206   1.423   .     A
C1205  C1207   1.421   .     A
C1206  C1209   1.407   .     A
C1206  C1232   1.428   .     A
C1207  C1208   1.412   .     A
C1207  N1258   1.427   .     S
C1208  C1226   1.493   .     S
C1208  C1220   1.414   .     A
C1209  H1252   1.079   .     S
C1209  C1220   1.392   .     A
C1210  C1291   1.347   .     S
C1210  C1304   1.499   .     S
C1211  C1370   1.347   1_455 S
C1211  H1406   1.086   1_455 S
C1212  C1221   1.396   .     A
C1212  C1219   1.415   .     A
C1212  N1260   1.423   .     S
C1213  C1216   1.455   .     S
C1213  C734    1.347   1_565 S
C1213  H771    1.088   1_565 S
C1214  C1215   1.437   .     S
C1215  O1275   1.272   .     A
C1215  O1269   1.278   .     A
C1216  O1270   1.258   .     A
C1216  O1276   1.271   .     A
C1217  O1264   1.272   .     A
C1217  C1220   1.464   .     S
C1217  O1262   1.278   .     A
C1218  O1265   1.290   .     A
C1218  C1219   1.478   .     S
C1218  O1263   1.284   .     A
C1219  C1223   1.416   .     A
C1221  C1230   1.396   .     A
C1221  H1254   1.084   .     S
C1222  H1237   1.111   .     S
C1222  N1258   1.446   .     S
C1223  C1229   1.425   .     A
C1223  C1228   1.498   .     S
C1224  O1266   1.221   .     D
C1224  H1239   1.085   .     S
C1224  C1370   1.499   1_455 S
C1225  H1243   1.111   .     S
C1225  H1241   1.110   .     S
C1225  H1242   1.111   .     S
C1226  H1244   1.085   .     S
C1226  O1267   1.221   .     D
C1227  H1248   1.110   .     S
C1227  N1260   1.447   .     S
C1227  H1247   1.112   .     S
C1227  H1249   1.111   .     S
C1228  O1268   1.221   .     D
C1228  H1250   1.084   .     S
C1229  C1230   1.416   .     A
C1229  C1231   1.427   .     A
C1230  C514    1.395   1_556 S
C1231  C512    1.422   1_556 S
C1232  C1233   1.413   .     A
C1233  H1255   1.078   .     S
C1233  C1234   1.389   .     A
C1234  H1235   1.085   .     S
H1236  C502    1.111   1_556 S
H1238  C502    1.110   1_556 S
H1240  N1259   1.032   .     S
H1245  N1260   1.032   .     S
H1246  C1291   1.086   .     S
H1257  N538    1.030   1_556 S
N1259  C734    1.433   1_565 S
N1259  C745    1.448   1_565 S
O1261  Zn1280  1.926   .     S
O1261  Zn1277  1.967   .     S
O1261  Zn1278  1.942   .     S
O1261  Zn1279  1.924   .     S
O1262  Zn1278  1.914   .     S
O1263  Zn1280  1.930   .     S
O1264  Zn1279  1.923   .     S
O1265  Zn1277  1.909   .     S
O1269  Zn1277  1.934   .     S
O1270  Zn1280  1.937   .     S
O1271  Zn1278  1.925   .     S
O1272  Zn1279  1.941   .     S
O1273  Zn1280  1.933   .     S
O1274  Zn1277  1.919   .     S
O1275  Zn1278  1.947   .     S
O1276  Zn1279  1.938   .     S
C1281  C1291   1.438   .     S
C1281  O1351   1.268   .     A
C1281  O1353   1.267   .     A
C1282  C1311   1.406   .     A
C1282  C1283   1.386   .     A
C1282  H1336   1.081   .     S
C1283  H1333   1.081   .     S
C1283  C565    1.403   1_556 S
C1284  O1354   1.284   .     A
C1284  C1290   1.465   .     S
C1284  O1352   1.278   .     A
C1285  C1286   1.423   .     A
C1285  C1287   1.421   .     A
C1286  C1289   1.407   .     A
C1286  C1312   1.428   .     A
C1287  C1288   1.412   .     A
C1287  N1338   1.427   .     S
C1288  C1306   1.493   .     S
C1288  C1300   1.414   .     A
C1289  H1332   1.079   .     S
C1289  C1300   1.392   .     A
C1290  C1371   1.347   .     S
C1290  C1384   1.499   .     S
C1292  C1301   1.396   .     A
C1292  C1299   1.415   .     A
C1292  N1340   1.423   .     S
C1293  C1296   1.455   .     S
C1293  C814    1.347   1_565 S
C1293  H851    1.088   1_565 S
C1294  C1295   1.437   .     S
C1295  O1355   1.272   .     A
C1295  O1349   1.278   .     A
C1296  O1350   1.258   .     A
C1296  O1356   1.271   .     A
C1297  O1344   1.272   .     A
C1297  C1300   1.464   .     S
C1297  O1342   1.278   .     A
C1298  O1345   1.290   .     A
C1298  C1299   1.478   .     S
C1298  O1343   1.284   .     A
C1299  C1303   1.416   .     A
C1301  C1310   1.396   .     A
C1301  H1334   1.084   .     S
C1302  H1317   1.111   .     S
C1302  N1338   1.446   .     S
C1303  C1309   1.425   .     A
C1303  C1308   1.498   .     S
C1304  O1346   1.221   .     D
C1304  H1319   1.085   .     S
C1305  H1323   1.111   .     S
C1305  H1321   1.110   .     S
C1305  H1322   1.111   .     S
C1306  H1324   1.085   .     S
C1306  O1347   1.221   .     D
C1307  H1328   1.110   .     S
C1307  N1340   1.447   .     S
C1307  H1327   1.112   .     S
C1307  H1329   1.111   .     S
C1308  O1348   1.221   .     D
C1308  H1330   1.084   .     S
C1309  C1310   1.416   .     A
C1309  C1311   1.427   .     A
C1310  C594    1.395   1_556 S
C1311  C592    1.422   1_556 S
C1312  C1313   1.413   .     A
C1313  H1335   1.078   .     S
C1313  C1314   1.389   .     A
C1314  H1315   1.085   .     S
H1316  C582    1.111   1_556 S
H1318  C582    1.110   1_556 S
H1320  N1339   1.032   .     S
H1325  N1340   1.032   .     S
H1326  C1371   1.086   .     S
H1337  N618    1.030   1_556 S
N1339  C814    1.433   1_565 S
N1339  C825    1.448   1_565 S
O1341  Zn1360  1.926   .     S
O1341  Zn1357  1.967   .     S
O1341  Zn1358  1.942   .     S
O1341  Zn1359  1.924   .     S
O1342  Zn1358  1.914   .     S
O1343  Zn1360  1.930   .     S
O1344  Zn1359  1.923   .     S
O1345  Zn1357  1.909   .     S
O1349  Zn1357  1.934   .     S
O1350  Zn1360  1.937   .     S
O1351  Zn1358  1.925   .     S
O1352  Zn1359  1.941   .     S
O1353  Zn1360  1.933   .     S
O1354  Zn1357  1.919   .     S
O1355  Zn1358  1.947   .     S
O1356  Zn1359  1.938   .     S
C1361  C1371   1.438   .     S
C1361  O1431   1.268   .     A
C1361  O1433   1.267   .     A
C1362  C1391   1.406   .     A
C1362  C1363   1.386   .     A
C1362  H1416   1.081   .     S
C1363  H1413   1.081   .     S
C1363  C645    1.403   1_556 S
C1364  O1434   1.284   .     A
C1364  C1370   1.465   .     S
C1364  O1432   1.278   .     A
C1365  C1366   1.423   .     A
C1365  C1367   1.421   .     A
C1366  C1369   1.407   .     A
C1366  C1392   1.428   .     A
C1367  C1368   1.412   .     A
C1367  N1418   1.427   .     S
C1368  C1386   1.493   .     S
C1368  C1380   1.414   .     A
C1369  H1412   1.079   .     S
C1369  C1380   1.392   .     A
C1370  C1211   1.347   1_655 S
C1370  C1224   1.499   1_655 S
C1372  C1381   1.396   .     A
C1372  C1379   1.415   .     A
C1372  N1420   1.423   .     S
C1373  C1376   1.455   .     S
C1373  C894    1.347   1_565 S
C1373  H931    1.088   1_565 S
C1374  C1375   1.437   .     S
C1375  O1435   1.272   .     A
C1375  O1429   1.278   .     A
C1376  O1430   1.258   .     A
C1376  O1436   1.271   .     A
C1377  O1424   1.272   .     A
C1377  C1380   1.464   .     S
C1377  O1422   1.278   .     A
C1378  O1425   1.290   .     A
C1378  C1379   1.478   .     S
C1378  O1423   1.284   .     A
C1379  C1383   1.416   .     A
C1381  C1390   1.396   .     A
C1381  H1414   1.084   .     S
C1382  H1397   1.111   .     S
C1382  N1418   1.446   .     S
C1383  C1389   1.425   .     A
C1383  C1388   1.498   .     S
C1384  O1426   1.221   .     D
C1384  H1399   1.085   .     S
C1385  H1403   1.111   .     S
C1385  H1401   1.110   .     S
C1385  H1402   1.111   .     S
C1386  H1404   1.085   .     S
C1386  O1427   1.221   .     D
C1387  H1408   1.110   .     S
C1387  N1420   1.447   .     S
C1387  H1407   1.112   .     S
C1387  H1409   1.111   .     S
C1388  O1428   1.221   .     D
C1388  H1410   1.084   .     S
C1389  C1390   1.416   .     A
C1389  C1391   1.427   .     A
C1390  C674    1.395   1_556 S
C1391  C672    1.422   1_556 S
C1392  C1393   1.413   .     A
C1393  H1415   1.078   .     S
C1393  C1394   1.389   .     A
C1394  H1395   1.085   .     S
H1396  C662    1.111   1_556 S
H1398  C662    1.110   1_556 S
H1400  N1419   1.032   .     S
H1405  N1420   1.032   .     S
H1406  C1211   1.086   1_655 S
H1417  N698    1.030   1_556 S
N1419  C894    1.433   1_565 S
N1419  C905    1.448   1_565 S
O1421  Zn1440  1.926   .     S
O1421  Zn1437  1.967   .     S
O1421  Zn1438  1.942   .     S
O1421  Zn1439  1.924   .     S
O1422  Zn1438  1.914   .     S
O1423  Zn1440  1.930   .     S
O1424  Zn1439  1.923   .     S
O1425  Zn1437  1.909   .     S
O1429  Zn1437  1.934   .     S
O1430  Zn1440  1.937   .     S
O1431  Zn1438  1.925   .     S
O1432  Zn1439  1.941   .     S
O1433  Zn1440  1.933   .     S
O1434  Zn1437  1.919   .     S
O1435  Zn1438  1.947   .     S
O1436  Zn1439  1.938   .     S
