data_str_m3_o1_o18_pcu_sym.83
_audit_creation_date              2020-01-03
_audit_creation_method            'Materials Studio'
_symmetry_space_group_name_H-M    'P1'
_symmetry_Int_Tables_number       1
_symmetry_cell_setting            triclinic
loop_
_symmetry_equiv_pos_as_xyz
  x,y,z
_cell_length_a                    29.4763
_cell_length_b                    32.1384
_cell_length_c                    30.9066
_cell_angle_alpha                 89.9661
_cell_angle_beta                  67.1483
_cell_angle_gamma                 89.9460
loop_
_atom_site_label
_atom_site_type_symbol
_atom_site_fract_x
_atom_site_fract_y
_atom_site_fract_z
_atom_site_U_iso_or_equiv
_atom_site_adp_type
_atom_site_occupancy
C1     C     0.16660   0.24672   0.25017   0.00000  Uiso   1.00
C2     C     0.12325   0.31204   0.25580   0.00000  Uiso   1.00
C3     C     0.16645   0.04245   0.25060   0.00000  Uiso   1.00
C4     C     0.16647   0.29085   0.25050   0.00000  Uiso   1.00
C5     C     0.32199   0.14258   0.21894   0.00000  Uiso   1.00
C6     C     0.01139   0.19085   0.28097   0.00000  Uiso   1.00
C7     C     0.03663   0.14255   0.21899   0.00000  Uiso   1.00
C8     C     0.29674   0.19086   0.28095   0.00000  Uiso   1.00
C9     C     0.13565   0.16527   0.33821   0.00000  Uiso   1.00
C10    C     0.19752   0.16818   0.16149   0.00000  Uiso   1.00
C11    C     0.11552   0.15892   0.38910   0.00000  Uiso   1.00
C12    C     0.16659   0.08660   0.25018   0.00000  Uiso   1.00
C13    C     0.21723   0.17186   0.10975   0.00000  Uiso   1.00
C14    C     0.06704   0.11783   0.45792   0.00000  Uiso   1.00
C15    C     0.28402   0.18144   0.03268   0.00000  Uiso   1.00
C16    C     0.07631   0.13104   0.41177   0.00000  Uiso   1.00
C17    C     0.26810   0.17547   0.08211   0.00000  Uiso   1.00
C18    C     0.14311   0.17494   0.41316   0.00000  Uiso   1.00
C19    C     0.18375   0.17181   0.08760   0.00000  Uiso   1.00
C20    C     0.14130   0.15503   0.45421   0.00000  Uiso   1.00
C21    C     0.20087   0.16504   0.03921   0.00000  Uiso   1.00
C22    C     0.10016   0.12908   0.47911   0.00000  Uiso   1.00
C23    C     0.12681   0.12719   0.04402   0.00000  Uiso   1.00
C24    C     0.25013   0.17515   0.01087   0.00000  Uiso   1.00
C25    C     0.17872   0.16105   0.47173   0.00000  Uiso   1.00
C26    C     0.16820   0.15175   0.01880   0.00000  Uiso   1.00
C27    C     0.11972   0.21861   0.10501   0.00000  Uiso   1.00
C28    C     0.11752   0.24798   0.14478   0.00000  Uiso   1.00
C29    C     0.09989   0.29126   0.13819   0.00000  Uiso   1.00
C30    C     0.14669   0.24511   0.40012   0.00000  Uiso   1.00
C31    C     0.18136   0.28073   0.37532   0.00000  Uiso   1.00
C32    C     0.15318   0.32111   0.37766   0.00000  Uiso   1.00
C33    C     0.22725   0.17329   0.44315   0.00000  Uiso   1.00
C34    C     0.09354   0.11476   0.02439   0.00000  Uiso   1.00
C35    C     0.26329   0.17950   0.46196   0.00000  Uiso   1.00
C36    C     0.20959   0.31200   0.24555   0.00000  Uiso   1.00
C37    C     0.12324   0.02130   0.25583   0.00000  Uiso   1.00
C38    C     0.20957   0.02124   0.24564   0.00000  Uiso   1.00
H39    H     0.12168   0.11536   0.07840   0.00000  Uiso   1.00
H40    H     0.26848   0.21021   0.30568   0.00000  Uiso   1.00
H41    H     0.05490   0.08281   0.08052   0.00000  Uiso   1.00
H42    H     0.31280   0.19447   0.40062   0.00000  Uiso   1.00
H43    H     0.08230   0.21629   0.10455   0.00000  Uiso   1.00
H44    H     0.14388   0.23213   0.07042   0.00000  Uiso   1.00
H45    H     0.09182   0.23509   0.17886   0.00000  Uiso   1.00
H46    H     0.15467   0.25061   0.14580   0.00000  Uiso   1.00
H47    H     0.12543   0.30511   0.10464   0.00000  Uiso   1.00
H48    H     0.09876   0.31172   0.16752   0.00000  Uiso   1.00
H49    H     0.06232   0.28958   0.13803   0.00000  Uiso   1.00
H50    H     0.23882   0.17515   0.40549   0.00000  Uiso   1.00
H51    H     0.12781   0.25272   0.43814   0.00000  Uiso   1.00
H52    H     0.11868   0.24209   0.38434   0.00000  Uiso   1.00
H53    H     0.20825   0.28560   0.39197   0.00000  Uiso   1.00
H54    H     0.20208   0.27234   0.33788   0.00000  Uiso   1.00
H55    H     0.12695   0.31715   0.36015   0.00000  Uiso   1.00
H56    H     0.17948   0.01291   0.35941   0.00000  Uiso   1.00
H57    H     0.13263   0.33048   0.41478   0.00000  Uiso   1.00
H58    H     0.33328   0.16436   0.08112   0.00000  Uiso   1.00
H59    H     0.03889   0.13638   0.37295   0.00000  Uiso   1.00
H60    H     0.00415   0.09190   0.46563   0.00000  Uiso   1.00
H61    H     0.24327   0.29580   0.24143   0.00000  Uiso   1.00
H62    H     0.01216   0.20860   0.02548   0.00000  Uiso   1.00
H63    H     0.08956   0.03751   0.25996   0.00000  Uiso   1.00
H64    H     0.24324   0.03739   0.24154   0.00000  Uiso   1.00
H65    H     0.08958   0.29587   0.25991   0.00000  Uiso   1.00
H66    H     0.31388   0.12334   0.19413   0.00000  Uiso   1.00
H67    H     0.01954   0.21015   0.30569   0.00000  Uiso   1.00
H68    H     0.06491   0.12324   0.19422   0.00000  Uiso   1.00
N69    N     0.04759   0.16668   0.25001   0.00000  Uiso   1.00
N70    N     0.28574   0.16666   0.24999   0.00000  Uiso   1.00
O71    O     0.12846   0.22775   0.25001   0.00000  Uiso   1.00
O72    O     0.31064   0.19092   0.43323   0.00000  Uiso   1.00
O73    O     0.13378   0.17815   0.11333   0.00000  Uiso   1.00
O74    O     0.17458   0.20826   0.39452   0.00000  Uiso   1.00
O75    O     0.30104   0.17425   0.10393   0.00000  Uiso   1.00
O76    O     0.04899   0.11372   0.38890   0.00000  Uiso   1.00
O77    O     0.02702   0.09273   0.48208   0.00000  Uiso   1.00
O78    O     0.33175   0.19317   0.00561   0.00000  Uiso   1.00
O79    O     0.20488   0.10558   0.25000   0.00000  Uiso   1.00
O80    O     0.20490   0.22774   0.25000   0.00000  Uiso   1.00
O81    O     0.12843   0.10559   0.25000   0.00000  Uiso   1.00
O82    O     0.10661   0.16667   0.31613   0.00000  Uiso   1.00
O83    O     0.22672   0.16666   0.18388   0.00000  Uiso   1.00
O84    O     0.18305   0.16666   0.31612   0.00000  Uiso   1.00
O85    O     0.15028   0.16667   0.18388   0.00000  Uiso   1.00
O86    O     0.05433   0.08921   0.04934   0.00000  Uiso   1.00
Zn87   Zn    0.11562   0.16667   0.25000   0.00000  Uiso   1.00
Zn88   Zn    0.21771   0.16666   0.25000   0.00000  Uiso   1.00
C89    C     0.49993   0.24672   0.25017   0.00000  Uiso   1.00
C90    C     0.45658   0.31204   0.25580   0.00000  Uiso   1.00
C91    C     0.49978   0.04245   0.25060   0.00000  Uiso   1.00
C92    C     0.49980   0.29085   0.25050   0.00000  Uiso   1.00
C93    C     0.65532   0.14258   0.21894   0.00000  Uiso   1.00
C94    C     0.34472   0.19085   0.28097   0.00000  Uiso   1.00
C95    C     0.36996   0.14255   0.21899   0.00000  Uiso   1.00
C96    C     0.63007   0.19086   0.28095   0.00000  Uiso   1.00
C97    C     0.46898   0.16527   0.33821   0.00000  Uiso   1.00
C98    C     0.53085   0.16818   0.16149   0.00000  Uiso   1.00
C99    C     0.44885   0.15892   0.38910   0.00000  Uiso   1.00
C100   C     0.49992   0.08660   0.25018   0.00000  Uiso   1.00
C101   C     0.55056   0.17186   0.10975   0.00000  Uiso   1.00
C102   C     0.40037   0.11783   0.45792   0.00000  Uiso   1.00
C103   C     0.61735   0.18144   0.03268   0.00000  Uiso   1.00
C104   C     0.40964   0.13104   0.41177   0.00000  Uiso   1.00
C105   C     0.60143   0.17547   0.08211   0.00000  Uiso   1.00
C106   C     0.47644   0.17494   0.41316   0.00000  Uiso   1.00
C107   C     0.51709   0.17181   0.08760   0.00000  Uiso   1.00
C108   C     0.47463   0.15503   0.45421   0.00000  Uiso   1.00
C109   C     0.53420   0.16504   0.03921   0.00000  Uiso   1.00
C110   C     0.43349   0.12908   0.47911   0.00000  Uiso   1.00
C111   C     0.46015   0.12719   0.04402   0.00000  Uiso   1.00
C112   C     0.58347   0.17515   0.01087   0.00000  Uiso   1.00
C113   C     0.51205   0.16105   0.47173   0.00000  Uiso   1.00
C114   C     0.50153   0.15175   0.01880   0.00000  Uiso   1.00
C115   C     0.45306   0.21861   0.10501   0.00000  Uiso   1.00
C116   C     0.45085   0.24798   0.14478   0.00000  Uiso   1.00
C117   C     0.43322   0.29126   0.13819   0.00000  Uiso   1.00
C118   C     0.48002   0.24511   0.40012   0.00000  Uiso   1.00
C119   C     0.51469   0.28073   0.37532   0.00000  Uiso   1.00
C120   C     0.48652   0.32111   0.37766   0.00000  Uiso   1.00
C121   C     0.56058   0.17329   0.44315   0.00000  Uiso   1.00
C122   C     0.42687   0.11476   0.02439   0.00000  Uiso   1.00
C123   C     0.59662   0.17950   0.46196   0.00000  Uiso   1.00
C124   C     0.54292   0.31200   0.24555   0.00000  Uiso   1.00
C125   C     0.45657   0.02130   0.25583   0.00000  Uiso   1.00
C126   C     0.54290   0.02124   0.24564   0.00000  Uiso   1.00
H127   H     0.45501   0.11536   0.07840   0.00000  Uiso   1.00
H128   H     0.60181   0.21021   0.30568   0.00000  Uiso   1.00
H129   H     0.38823   0.08281   0.08052   0.00000  Uiso   1.00
H130   H     0.64614   0.19447   0.40062   0.00000  Uiso   1.00
H131   H     0.41564   0.21629   0.10455   0.00000  Uiso   1.00
H132   H     0.47721   0.23213   0.07042   0.00000  Uiso   1.00
H133   H     0.42516   0.23509   0.17886   0.00000  Uiso   1.00
H134   H     0.48801   0.25061   0.14580   0.00000  Uiso   1.00
H135   H     0.45876   0.30511   0.10464   0.00000  Uiso   1.00
H136   H     0.43210   0.31172   0.16752   0.00000  Uiso   1.00
H137   H     0.39565   0.28958   0.13803   0.00000  Uiso   1.00
H138   H     0.57215   0.17515   0.40549   0.00000  Uiso   1.00
H139   H     0.46114   0.25272   0.43814   0.00000  Uiso   1.00
H140   H     0.45201   0.24209   0.38434   0.00000  Uiso   1.00
H141   H     0.54159   0.28560   0.39197   0.00000  Uiso   1.00
H142   H     0.53541   0.27234   0.33788   0.00000  Uiso   1.00
H143   H     0.46029   0.31715   0.36015   0.00000  Uiso   1.00
H144   H     0.51281   0.01291   0.35941   0.00000  Uiso   1.00
H145   H     0.46596   0.33048   0.41478   0.00000  Uiso   1.00
H146   H     0.66661   0.16436   0.08112   0.00000  Uiso   1.00
H147   H     0.37222   0.13638   0.37295   0.00000  Uiso   1.00
H148   H     0.33749   0.09190   0.46563   0.00000  Uiso   1.00
H149   H     0.57661   0.29580   0.24143   0.00000  Uiso   1.00
H150   H     0.34549   0.20860   0.02548   0.00000  Uiso   1.00
H151   H     0.42289   0.03751   0.25996   0.00000  Uiso   1.00
H152   H     0.57658   0.03739   0.24154   0.00000  Uiso   1.00
H153   H     0.42292   0.29587   0.25991   0.00000  Uiso   1.00
H154   H     0.64721   0.12334   0.19413   0.00000  Uiso   1.00
H155   H     0.35288   0.21015   0.30569   0.00000  Uiso   1.00
H156   H     0.39824   0.12324   0.19422   0.00000  Uiso   1.00
N157   N     0.38093   0.16668   0.25001   0.00000  Uiso   1.00
N158   N     0.61907   0.16666   0.24999   0.00000  Uiso   1.00
O159   O     0.46179   0.22775   0.25001   0.00000  Uiso   1.00
O160   O     0.64397   0.19092   0.43323   0.00000  Uiso   1.00
O161   O     0.46712   0.17815   0.11333   0.00000  Uiso   1.00
O162   O     0.50791   0.20826   0.39452   0.00000  Uiso   1.00
O163   O     0.63437   0.17425   0.10393   0.00000  Uiso   1.00
O164   O     0.38233   0.11372   0.38890   0.00000  Uiso   1.00
O165   O     0.36036   0.09273   0.48208   0.00000  Uiso   1.00
O166   O     0.66509   0.19317   0.00561   0.00000  Uiso   1.00
O167   O     0.53821   0.10558   0.25000   0.00000  Uiso   1.00
O168   O     0.53823   0.22774   0.25000   0.00000  Uiso   1.00
O169   O     0.46177   0.10559   0.25000   0.00000  Uiso   1.00
O170   O     0.43994   0.16667   0.31613   0.00000  Uiso   1.00
O171   O     0.56006   0.16666   0.18388   0.00000  Uiso   1.00
O172   O     0.51639   0.16666   0.31612   0.00000  Uiso   1.00
O173   O     0.48361   0.16667   0.18388   0.00000  Uiso   1.00
O174   O     0.38766   0.08921   0.04934   0.00000  Uiso   1.00
Zn175  Zn    0.44896   0.16667   0.25000   0.00000  Uiso   1.00
Zn176  Zn    0.55104   0.16666   0.25000   0.00000  Uiso   1.00
C177   C     0.83327   0.24672   0.25017   0.00000  Uiso   1.00
C178   C     0.78992   0.31204   0.25580   0.00000  Uiso   1.00
C179   C     0.83311   0.04245   0.25060   0.00000  Uiso   1.00
C180   C     0.83314   0.29085   0.25050   0.00000  Uiso   1.00
C181   C     0.98866   0.14258   0.21894   0.00000  Uiso   1.00
C182   C     0.67805   0.19085   0.28097   0.00000  Uiso   1.00
C183   C     0.70329   0.14255   0.21899   0.00000  Uiso   1.00
C184   C     0.96340   0.19086   0.28095   0.00000  Uiso   1.00
C185   C     0.80231   0.16527   0.33821   0.00000  Uiso   1.00
C186   C     0.86419   0.16818   0.16149   0.00000  Uiso   1.00
C187   C     0.78218   0.15892   0.38910   0.00000  Uiso   1.00
C188   C     0.83326   0.08660   0.25018   0.00000  Uiso   1.00
C189   C     0.88390   0.17186   0.10975   0.00000  Uiso   1.00
C190   C     0.73370   0.11783   0.45792   0.00000  Uiso   1.00
C191   C     0.95068   0.18144   0.03268   0.00000  Uiso   1.00
C192   C     0.74297   0.13104   0.41177   0.00000  Uiso   1.00
C193   C     0.93476   0.17547   0.08211   0.00000  Uiso   1.00
C194   C     0.80977   0.17494   0.41316   0.00000  Uiso   1.00
C195   C     0.85042   0.17181   0.08760   0.00000  Uiso   1.00
C196   C     0.80797   0.15503   0.45421   0.00000  Uiso   1.00
C197   C     0.86754   0.16504   0.03921   0.00000  Uiso   1.00
C198   C     0.76682   0.12908   0.47911   0.00000  Uiso   1.00
C199   C     0.79348   0.12719   0.04402   0.00000  Uiso   1.00
C200   C     0.91680   0.17515   0.01087   0.00000  Uiso   1.00
C201   C     0.84539   0.16105   0.47173   0.00000  Uiso   1.00
C202   C     0.83487   0.15175   0.01880   0.00000  Uiso   1.00
C203   C     0.78639   0.21861   0.10501   0.00000  Uiso   1.00
C204   C     0.78418   0.24798   0.14478   0.00000  Uiso   1.00
C205   C     0.76655   0.29126   0.13819   0.00000  Uiso   1.00
C206   C     0.81335   0.24511   0.40012   0.00000  Uiso   1.00
C207   C     0.84803   0.28073   0.37532   0.00000  Uiso   1.00
C208   C     0.81985   0.32111   0.37766   0.00000  Uiso   1.00
C209   C     0.89391   0.17329   0.44315   0.00000  Uiso   1.00
C210   C     0.76021   0.11476   0.02439   0.00000  Uiso   1.00
C211   C     0.92995   0.17950   0.46196   0.00000  Uiso   1.00
C212   C     0.87626   0.31200   0.24555   0.00000  Uiso   1.00
C213   C     0.78991   0.02130   0.25583   0.00000  Uiso   1.00
C214   C     0.87623   0.02124   0.24564   0.00000  Uiso   1.00
H215   H     0.78834   0.11536   0.07840   0.00000  Uiso   1.00
H216   H     0.93515   0.21021   0.30568   0.00000  Uiso   1.00
H217   H     0.72156   0.08281   0.08052   0.00000  Uiso   1.00
H218   H     0.97947   0.19447   0.40062   0.00000  Uiso   1.00
H219   H     0.74897   0.21629   0.10455   0.00000  Uiso   1.00
H220   H     0.81054   0.23213   0.07042   0.00000  Uiso   1.00
H221   H     0.75849   0.23509   0.17886   0.00000  Uiso   1.00
H222   H     0.82134   0.25061   0.14580   0.00000  Uiso   1.00
H223   H     0.79210   0.30511   0.10464   0.00000  Uiso   1.00
H224   H     0.76543   0.31172   0.16752   0.00000  Uiso   1.00
H225   H     0.72898   0.28958   0.13803   0.00000  Uiso   1.00
H226   H     0.90549   0.17515   0.40549   0.00000  Uiso   1.00
H227   H     0.79447   0.25272   0.43814   0.00000  Uiso   1.00
H228   H     0.78534   0.24209   0.38434   0.00000  Uiso   1.00
H229   H     0.87492   0.28560   0.39197   0.00000  Uiso   1.00
H230   H     0.86874   0.27234   0.33788   0.00000  Uiso   1.00
H231   H     0.79362   0.31715   0.36015   0.00000  Uiso   1.00
H232   H     0.84615   0.01291   0.35941   0.00000  Uiso   1.00
H233   H     0.79929   0.33048   0.41478   0.00000  Uiso   1.00
H234   H     0.99995   0.16436   0.08112   0.00000  Uiso   1.00
H235   H     0.70556   0.13638   0.37295   0.00000  Uiso   1.00
H236   H     0.67082   0.09190   0.46563   0.00000  Uiso   1.00
H237   H     0.90994   0.29580   0.24143   0.00000  Uiso   1.00
H238   H     0.67882   0.20860   0.02548   0.00000  Uiso   1.00
H239   H     0.75623   0.03751   0.25996   0.00000  Uiso   1.00
H240   H     0.90991   0.03739   0.24154   0.00000  Uiso   1.00
H241   H     0.75625   0.29587   0.25991   0.00000  Uiso   1.00
H242   H     0.98055   0.12334   0.19413   0.00000  Uiso   1.00
H243   H     0.68621   0.21015   0.30569   0.00000  Uiso   1.00
H244   H     0.73158   0.12324   0.19422   0.00000  Uiso   1.00
N245   N     0.71426   0.16668   0.25001   0.00000  Uiso   1.00
N246   N     0.95241   0.16666   0.24999   0.00000  Uiso   1.00
O247   O     0.79512   0.22775   0.25001   0.00000  Uiso   1.00
O248   O     0.97730   0.19092   0.43323   0.00000  Uiso   1.00
O249   O     0.80045   0.17815   0.11333   0.00000  Uiso   1.00
O250   O     0.84125   0.20826   0.39452   0.00000  Uiso   1.00
O251   O     0.96770   0.17425   0.10393   0.00000  Uiso   1.00
O252   O     0.71566   0.11372   0.38890   0.00000  Uiso   1.00
O253   O     0.69369   0.09273   0.48208   0.00000  Uiso   1.00
O254   O     0.99842   0.19317   0.00561   0.00000  Uiso   1.00
O255   O     0.87154   0.10558   0.25000   0.00000  Uiso   1.00
O256   O     0.87157   0.22774   0.25000   0.00000  Uiso   1.00
O257   O     0.79510   0.10559   0.25000   0.00000  Uiso   1.00
O258   O     0.77328   0.16667   0.31613   0.00000  Uiso   1.00
O259   O     0.89339   0.16666   0.18388   0.00000  Uiso   1.00
O260   O     0.84972   0.16666   0.31612   0.00000  Uiso   1.00
O261   O     0.81695   0.16667   0.18388   0.00000  Uiso   1.00
O262   O     0.72100   0.08921   0.04934   0.00000  Uiso   1.00
Zn263  Zn    0.78229   0.16667   0.25000   0.00000  Uiso   1.00
Zn264  Zn    0.88438   0.16666   0.25000   0.00000  Uiso   1.00
C265   C     0.16660   0.58006   0.25017   0.00000  Uiso   1.00
C266   C     0.12325   0.64537   0.25580   0.00000  Uiso   1.00
C267   C     0.16645   0.37578   0.25060   0.00000  Uiso   1.00
C268   C     0.16647   0.62419   0.25050   0.00000  Uiso   1.00
C269   C     0.32199   0.47591   0.21894   0.00000  Uiso   1.00
C270   C     0.01139   0.52418   0.28097   0.00000  Uiso   1.00
C271   C     0.03663   0.47588   0.21899   0.00000  Uiso   1.00
C272   C     0.29674   0.52419   0.28095   0.00000  Uiso   1.00
C273   C     0.13565   0.49860   0.33821   0.00000  Uiso   1.00
C274   C     0.19752   0.50152   0.16149   0.00000  Uiso   1.00
C275   C     0.11552   0.49225   0.38910   0.00000  Uiso   1.00
C276   C     0.16659   0.41993   0.25018   0.00000  Uiso   1.00
C277   C     0.21723   0.50520   0.10975   0.00000  Uiso   1.00
C278   C     0.06704   0.45117   0.45792   0.00000  Uiso   1.00
C279   C     0.28402   0.51477   0.03268   0.00000  Uiso   1.00
C280   C     0.07631   0.46438   0.41177   0.00000  Uiso   1.00
C281   C     0.26810   0.50880   0.08211   0.00000  Uiso   1.00
C282   C     0.14311   0.50827   0.41316   0.00000  Uiso   1.00
C283   C     0.18375   0.50514   0.08760   0.00000  Uiso   1.00
C284   C     0.14130   0.48837   0.45421   0.00000  Uiso   1.00
C285   C     0.20087   0.49838   0.03921   0.00000  Uiso   1.00
C286   C     0.10016   0.46242   0.47911   0.00000  Uiso   1.00
C287   C     0.12681   0.46053   0.04402   0.00000  Uiso   1.00
C288   C     0.25013   0.50848   0.01087   0.00000  Uiso   1.00
C289   C     0.17872   0.49438   0.47173   0.00000  Uiso   1.00
C290   C     0.16820   0.48508   0.01880   0.00000  Uiso   1.00
C291   C     0.11972   0.55195   0.10501   0.00000  Uiso   1.00
C292   C     0.11752   0.58131   0.14478   0.00000  Uiso   1.00
C293   C     0.09989   0.62460   0.13819   0.00000  Uiso   1.00
C294   C     0.14669   0.57844   0.40012   0.00000  Uiso   1.00
C295   C     0.18136   0.61406   0.37532   0.00000  Uiso   1.00
C296   C     0.15318   0.65444   0.37766   0.00000  Uiso   1.00
C297   C     0.22725   0.50662   0.44315   0.00000  Uiso   1.00
C298   C     0.09354   0.44810   0.02439   0.00000  Uiso   1.00
C299   C     0.26329   0.51283   0.46196   0.00000  Uiso   1.00
C300   C     0.20959   0.64533   0.24555   0.00000  Uiso   1.00
C301   C     0.12324   0.35464   0.25583   0.00000  Uiso   1.00
C302   C     0.20957   0.35458   0.24564   0.00000  Uiso   1.00
H303   H     0.12168   0.44870   0.07840   0.00000  Uiso   1.00
H304   H     0.26848   0.54355   0.30568   0.00000  Uiso   1.00
H305   H     0.05490   0.41615   0.08052   0.00000  Uiso   1.00
H306   H     0.31280   0.52780   0.40062   0.00000  Uiso   1.00
H307   H     0.08230   0.54963   0.10455   0.00000  Uiso   1.00
H308   H     0.14388   0.56546   0.07042   0.00000  Uiso   1.00
H309   H     0.09182   0.56843   0.17886   0.00000  Uiso   1.00
H310   H     0.15467   0.58394   0.14580   0.00000  Uiso   1.00
H311   H     0.12543   0.63845   0.10464   0.00000  Uiso   1.00
H312   H     0.09876   0.64506   0.16752   0.00000  Uiso   1.00
H313   H     0.06232   0.62291   0.13803   0.00000  Uiso   1.00
H314   H     0.23882   0.50848   0.40549   0.00000  Uiso   1.00
H315   H     0.12781   0.58605   0.43814   0.00000  Uiso   1.00
H316   H     0.11868   0.57542   0.38434   0.00000  Uiso   1.00
H317   H     0.20825   0.61893   0.39197   0.00000  Uiso   1.00
H318   H     0.20208   0.60567   0.33788   0.00000  Uiso   1.00
H319   H     0.12695   0.65049   0.36015   0.00000  Uiso   1.00
H320   H     0.17948   0.34625   0.35941   0.00000  Uiso   1.00
H321   H     0.13263   0.66381   0.41478   0.00000  Uiso   1.00
H322   H     0.33328   0.49769   0.08112   0.00000  Uiso   1.00
H323   H     0.03889   0.46971   0.37295   0.00000  Uiso   1.00
H324   H     0.00415   0.42524   0.46563   0.00000  Uiso   1.00
H325   H     0.24327   0.62913   0.24143   0.00000  Uiso   1.00
H326   H     0.01216   0.54194   0.02548   0.00000  Uiso   1.00
H327   H     0.08956   0.37084   0.25996   0.00000  Uiso   1.00
H328   H     0.24324   0.37072   0.24154   0.00000  Uiso   1.00
H329   H     0.08958   0.62920   0.25991   0.00000  Uiso   1.00
H330   H     0.31388   0.45668   0.19413   0.00000  Uiso   1.00
H331   H     0.01954   0.54349   0.30569   0.00000  Uiso   1.00
H332   H     0.06491   0.45657   0.19422   0.00000  Uiso   1.00
N333   N     0.04759   0.50001   0.25001   0.00000  Uiso   1.00
N334   N     0.28574   0.49999   0.24999   0.00000  Uiso   1.00
O335   O     0.12846   0.56108   0.25001   0.00000  Uiso   1.00
O336   O     0.31064   0.52425   0.43323   0.00000  Uiso   1.00
O337   O     0.13378   0.51149   0.11333   0.00000  Uiso   1.00
O338   O     0.17458   0.54159   0.39452   0.00000  Uiso   1.00
O339   O     0.30104   0.50759   0.10393   0.00000  Uiso   1.00
O340   O     0.04899   0.44705   0.38890   0.00000  Uiso   1.00
O341   O     0.02702   0.42607   0.48208   0.00000  Uiso   1.00
O342   O     0.33175   0.52650   0.00561   0.00000  Uiso   1.00
O343   O     0.20488   0.43892   0.25000   0.00000  Uiso   1.00
O344   O     0.20490   0.56107   0.25000   0.00000  Uiso   1.00
O345   O     0.12843   0.43893   0.25000   0.00000  Uiso   1.00
O346   O     0.10661   0.50001   0.31613   0.00000  Uiso   1.00
O347   O     0.22672   0.49999   0.18388   0.00000  Uiso   1.00
O348   O     0.18305   0.50000   0.31612   0.00000  Uiso   1.00
O349   O     0.15028   0.50000   0.18388   0.00000  Uiso   1.00
O350   O     0.05433   0.42255   0.04934   0.00000  Uiso   1.00
Zn351  Zn    0.11562   0.50001   0.25000   0.00000  Uiso   1.00
Zn352  Zn    0.21771   0.49999   0.25000   0.00000  Uiso   1.00
C353   C     0.49993   0.58006   0.25017   0.00000  Uiso   1.00
C354   C     0.45658   0.64537   0.25580   0.00000  Uiso   1.00
C355   C     0.49978   0.37578   0.25060   0.00000  Uiso   1.00
C356   C     0.49980   0.62419   0.25050   0.00000  Uiso   1.00
C357   C     0.65532   0.47591   0.21894   0.00000  Uiso   1.00
C358   C     0.34472   0.52418   0.28097   0.00000  Uiso   1.00
C359   C     0.36996   0.47588   0.21899   0.00000  Uiso   1.00
C360   C     0.63007   0.52419   0.28095   0.00000  Uiso   1.00
C361   C     0.46898   0.49860   0.33821   0.00000  Uiso   1.00
C362   C     0.53085   0.50152   0.16149   0.00000  Uiso   1.00
C363   C     0.44885   0.49225   0.38910   0.00000  Uiso   1.00
C364   C     0.49992   0.41993   0.25018   0.00000  Uiso   1.00
C365   C     0.55056   0.50520   0.10975   0.00000  Uiso   1.00
C366   C     0.40037   0.45117   0.45792   0.00000  Uiso   1.00
C367   C     0.61735   0.51477   0.03268   0.00000  Uiso   1.00
C368   C     0.40964   0.46438   0.41177   0.00000  Uiso   1.00
C369   C     0.60143   0.50880   0.08211   0.00000  Uiso   1.00
C370   C     0.47644   0.50827   0.41316   0.00000  Uiso   1.00
C371   C     0.51709   0.50514   0.08760   0.00000  Uiso   1.00
C372   C     0.47463   0.48837   0.45421   0.00000  Uiso   1.00
C373   C     0.53420   0.49838   0.03921   0.00000  Uiso   1.00
C374   C     0.43349   0.46242   0.47911   0.00000  Uiso   1.00
C375   C     0.46015   0.46053   0.04402   0.00000  Uiso   1.00
C376   C     0.58347   0.50848   0.01087   0.00000  Uiso   1.00
C377   C     0.51205   0.49438   0.47173   0.00000  Uiso   1.00
C378   C     0.50153   0.48508   0.01880   0.00000  Uiso   1.00
C379   C     0.45306   0.55195   0.10501   0.00000  Uiso   1.00
C380   C     0.45085   0.58131   0.14478   0.00000  Uiso   1.00
C381   C     0.43322   0.62460   0.13819   0.00000  Uiso   1.00
C382   C     0.48002   0.57844   0.40012   0.00000  Uiso   1.00
C383   C     0.51469   0.61406   0.37532   0.00000  Uiso   1.00
C384   C     0.48652   0.65444   0.37766   0.00000  Uiso   1.00
C385   C     0.56058   0.50662   0.44315   0.00000  Uiso   1.00
C386   C     0.42687   0.44810   0.02439   0.00000  Uiso   1.00
C387   C     0.59662   0.51283   0.46196   0.00000  Uiso   1.00
C388   C     0.54292   0.64533   0.24555   0.00000  Uiso   1.00
C389   C     0.45657   0.35464   0.25583   0.00000  Uiso   1.00
C390   C     0.54290   0.35458   0.24564   0.00000  Uiso   1.00
H391   H     0.45501   0.44870   0.07840   0.00000  Uiso   1.00
H392   H     0.60181   0.54355   0.30568   0.00000  Uiso   1.00
H393   H     0.38823   0.41615   0.08052   0.00000  Uiso   1.00
H394   H     0.64614   0.52780   0.40062   0.00000  Uiso   1.00
H395   H     0.41564   0.54963   0.10455   0.00000  Uiso   1.00
H396   H     0.47721   0.56546   0.07042   0.00000  Uiso   1.00
H397   H     0.42516   0.56843   0.17886   0.00000  Uiso   1.00
H398   H     0.48801   0.58394   0.14580   0.00000  Uiso   1.00
H399   H     0.45876   0.63845   0.10464   0.00000  Uiso   1.00
H400   H     0.43210   0.64506   0.16752   0.00000  Uiso   1.00
H401   H     0.39565   0.62291   0.13803   0.00000  Uiso   1.00
H402   H     0.57215   0.50848   0.40549   0.00000  Uiso   1.00
H403   H     0.46114   0.58605   0.43814   0.00000  Uiso   1.00
H404   H     0.45201   0.57542   0.38434   0.00000  Uiso   1.00
H405   H     0.54159   0.61893   0.39197   0.00000  Uiso   1.00
H406   H     0.53541   0.60567   0.33788   0.00000  Uiso   1.00
H407   H     0.46029   0.65049   0.36015   0.00000  Uiso   1.00
H408   H     0.51281   0.34625   0.35941   0.00000  Uiso   1.00
H409   H     0.46596   0.66381   0.41478   0.00000  Uiso   1.00
H410   H     0.66661   0.49769   0.08112   0.00000  Uiso   1.00
H411   H     0.37222   0.46971   0.37295   0.00000  Uiso   1.00
H412   H     0.33749   0.42524   0.46563   0.00000  Uiso   1.00
H413   H     0.57661   0.62913   0.24143   0.00000  Uiso   1.00
H414   H     0.34549   0.54194   0.02548   0.00000  Uiso   1.00
H415   H     0.42289   0.37084   0.25996   0.00000  Uiso   1.00
H416   H     0.57658   0.37072   0.24154   0.00000  Uiso   1.00
H417   H     0.42292   0.62920   0.25991   0.00000  Uiso   1.00
H418   H     0.64721   0.45668   0.19413   0.00000  Uiso   1.00
H419   H     0.35288   0.54349   0.30569   0.00000  Uiso   1.00
H420   H     0.39824   0.45657   0.19422   0.00000  Uiso   1.00
N421   N     0.38093   0.50001   0.25001   0.00000  Uiso   1.00
N422   N     0.61907   0.49999   0.24999   0.00000  Uiso   1.00
O423   O     0.46179   0.56108   0.25001   0.00000  Uiso   1.00
O424   O     0.64397   0.52425   0.43323   0.00000  Uiso   1.00
O425   O     0.46712   0.51149   0.11333   0.00000  Uiso   1.00
O426   O     0.50791   0.54159   0.39452   0.00000  Uiso   1.00
O427   O     0.63437   0.50759   0.10393   0.00000  Uiso   1.00
O428   O     0.38233   0.44705   0.38890   0.00000  Uiso   1.00
O429   O     0.36036   0.42607   0.48208   0.00000  Uiso   1.00
O430   O     0.66509   0.52650   0.00561   0.00000  Uiso   1.00
O431   O     0.53821   0.43892   0.25000   0.00000  Uiso   1.00
O432   O     0.53823   0.56107   0.25000   0.00000  Uiso   1.00
O433   O     0.46177   0.43893   0.25000   0.00000  Uiso   1.00
O434   O     0.43994   0.50001   0.31613   0.00000  Uiso   1.00
O435   O     0.56006   0.49999   0.18388   0.00000  Uiso   1.00
O436   O     0.51639   0.50000   0.31612   0.00000  Uiso   1.00
O437   O     0.48361   0.50000   0.18388   0.00000  Uiso   1.00
O438   O     0.38766   0.42255   0.04934   0.00000  Uiso   1.00
Zn439  Zn    0.44896   0.50001   0.25000   0.00000  Uiso   1.00
Zn440  Zn    0.55104   0.49999   0.25000   0.00000  Uiso   1.00
C441   C     0.83327   0.58006   0.25017   0.00000  Uiso   1.00
C442   C     0.78992   0.64537   0.25580   0.00000  Uiso   1.00
C443   C     0.83311   0.37578   0.25060   0.00000  Uiso   1.00
C444   C     0.83314   0.62419   0.25050   0.00000  Uiso   1.00
C445   C     0.98866   0.47591   0.21894   0.00000  Uiso   1.00
C446   C     0.67805   0.52418   0.28097   0.00000  Uiso   1.00
C447   C     0.70329   0.47588   0.21899   0.00000  Uiso   1.00
C448   C     0.96340   0.52419   0.28095   0.00000  Uiso   1.00
C449   C     0.80231   0.49860   0.33821   0.00000  Uiso   1.00
C450   C     0.86419   0.50152   0.16149   0.00000  Uiso   1.00
C451   C     0.78218   0.49225   0.38910   0.00000  Uiso   1.00
C452   C     0.83326   0.41993   0.25018   0.00000  Uiso   1.00
C453   C     0.88390   0.50520   0.10975   0.00000  Uiso   1.00
C454   C     0.73370   0.45117   0.45792   0.00000  Uiso   1.00
C455   C     0.95068   0.51477   0.03268   0.00000  Uiso   1.00
C456   C     0.74297   0.46438   0.41177   0.00000  Uiso   1.00
C457   C     0.93476   0.50880   0.08211   0.00000  Uiso   1.00
C458   C     0.80977   0.50827   0.41316   0.00000  Uiso   1.00
C459   C     0.85042   0.50514   0.08760   0.00000  Uiso   1.00
C460   C     0.80797   0.48837   0.45421   0.00000  Uiso   1.00
C461   C     0.86754   0.49838   0.03921   0.00000  Uiso   1.00
C462   C     0.76682   0.46242   0.47911   0.00000  Uiso   1.00
C463   C     0.79348   0.46053   0.04402   0.00000  Uiso   1.00
C464   C     0.91680   0.50848   0.01087   0.00000  Uiso   1.00
C465   C     0.84539   0.49438   0.47173   0.00000  Uiso   1.00
C466   C     0.83487   0.48508   0.01880   0.00000  Uiso   1.00
C467   C     0.78639   0.55195   0.10501   0.00000  Uiso   1.00
C468   C     0.78418   0.58131   0.14478   0.00000  Uiso   1.00
C469   C     0.76655   0.62460   0.13819   0.00000  Uiso   1.00
C470   C     0.81335   0.57844   0.40012   0.00000  Uiso   1.00
C471   C     0.84803   0.61406   0.37532   0.00000  Uiso   1.00
C472   C     0.81985   0.65444   0.37766   0.00000  Uiso   1.00
C473   C     0.89391   0.50662   0.44315   0.00000  Uiso   1.00
C474   C     0.76021   0.44810   0.02439   0.00000  Uiso   1.00
C475   C     0.92995   0.51283   0.46196   0.00000  Uiso   1.00
C476   C     0.87626   0.64533   0.24555   0.00000  Uiso   1.00
C477   C     0.78991   0.35464   0.25583   0.00000  Uiso   1.00
C478   C     0.87623   0.35458   0.24564   0.00000  Uiso   1.00
H479   H     0.78834   0.44870   0.07840   0.00000  Uiso   1.00
H480   H     0.93515   0.54355   0.30568   0.00000  Uiso   1.00
H481   H     0.72156   0.41615   0.08052   0.00000  Uiso   1.00
H482   H     0.97947   0.52780   0.40062   0.00000  Uiso   1.00
H483   H     0.74897   0.54963   0.10455   0.00000  Uiso   1.00
H484   H     0.81054   0.56546   0.07042   0.00000  Uiso   1.00
H485   H     0.75849   0.56843   0.17886   0.00000  Uiso   1.00
H486   H     0.82134   0.58394   0.14580   0.00000  Uiso   1.00
H487   H     0.79210   0.63845   0.10464   0.00000  Uiso   1.00
H488   H     0.76543   0.64506   0.16752   0.00000  Uiso   1.00
H489   H     0.72898   0.62291   0.13803   0.00000  Uiso   1.00
H490   H     0.90549   0.50848   0.40549   0.00000  Uiso   1.00
H491   H     0.79447   0.58605   0.43814   0.00000  Uiso   1.00
H492   H     0.78534   0.57542   0.38434   0.00000  Uiso   1.00
H493   H     0.87492   0.61893   0.39197   0.00000  Uiso   1.00
H494   H     0.86874   0.60567   0.33788   0.00000  Uiso   1.00
H495   H     0.79362   0.65049   0.36015   0.00000  Uiso   1.00
H496   H     0.84615   0.34625   0.35941   0.00000  Uiso   1.00
H497   H     0.79929   0.66381   0.41478   0.00000  Uiso   1.00
H498   H     0.99995   0.49769   0.08112   0.00000  Uiso   1.00
H499   H     0.70556   0.46971   0.37295   0.00000  Uiso   1.00
H500   H     0.67082   0.42524   0.46563   0.00000  Uiso   1.00
H501   H     0.90994   0.62913   0.24143   0.00000  Uiso   1.00
H502   H     0.67882   0.54194   0.02548   0.00000  Uiso   1.00
H503   H     0.75623   0.37084   0.25996   0.00000  Uiso   1.00
H504   H     0.90991   0.37072   0.24154   0.00000  Uiso   1.00
H505   H     0.75625   0.62920   0.25991   0.00000  Uiso   1.00
H506   H     0.98055   0.45668   0.19413   0.00000  Uiso   1.00
H507   H     0.68621   0.54349   0.30569   0.00000  Uiso   1.00
H508   H     0.73158   0.45657   0.19422   0.00000  Uiso   1.00
N509   N     0.71426   0.50001   0.25001   0.00000  Uiso   1.00
N510   N     0.95241   0.49999   0.24999   0.00000  Uiso   1.00
O511   O     0.79512   0.56108   0.25001   0.00000  Uiso   1.00
O512   O     0.97730   0.52425   0.43323   0.00000  Uiso   1.00
O513   O     0.80045   0.51149   0.11333   0.00000  Uiso   1.00
O514   O     0.84125   0.54159   0.39452   0.00000  Uiso   1.00
O515   O     0.96770   0.50759   0.10393   0.00000  Uiso   1.00
O516   O     0.71566   0.44705   0.38890   0.00000  Uiso   1.00
O517   O     0.69369   0.42607   0.48208   0.00000  Uiso   1.00
O518   O     0.99842   0.52650   0.00561   0.00000  Uiso   1.00
O519   O     0.87154   0.43892   0.25000   0.00000  Uiso   1.00
O520   O     0.87157   0.56107   0.25000   0.00000  Uiso   1.00
O521   O     0.79510   0.43893   0.25000   0.00000  Uiso   1.00
O522   O     0.77328   0.50001   0.31613   0.00000  Uiso   1.00
O523   O     0.89339   0.49999   0.18388   0.00000  Uiso   1.00
O524   O     0.84972   0.50000   0.31612   0.00000  Uiso   1.00
O525   O     0.81695   0.50000   0.18388   0.00000  Uiso   1.00
O526   O     0.72100   0.42255   0.04934   0.00000  Uiso   1.00
Zn527  Zn    0.78229   0.50001   0.25000   0.00000  Uiso   1.00
Zn528  Zn    0.88438   0.49999   0.25000   0.00000  Uiso   1.00
C529   C     0.16660   0.91339   0.25017   0.00000  Uiso   1.00
C530   C     0.12325   0.97871   0.25580   0.00000  Uiso   1.00
C531   C     0.16645   0.70911   0.25060   0.00000  Uiso   1.00
C532   C     0.16647   0.95752   0.25050   0.00000  Uiso   1.00
C533   C     0.32199   0.80924   0.21894   0.00000  Uiso   1.00
C534   C     0.01139   0.85751   0.28097   0.00000  Uiso   1.00
C535   C     0.03663   0.80922   0.21899   0.00000  Uiso   1.00
C536   C     0.29674   0.85752   0.28095   0.00000  Uiso   1.00
C537   C     0.13565   0.83193   0.33821   0.00000  Uiso   1.00
C538   C     0.19752   0.83485   0.16149   0.00000  Uiso   1.00
C539   C     0.11552   0.82559   0.38910   0.00000  Uiso   1.00
C540   C     0.16659   0.75327   0.25018   0.00000  Uiso   1.00
C541   C     0.21723   0.83853   0.10975   0.00000  Uiso   1.00
C542   C     0.06704   0.78450   0.45792   0.00000  Uiso   1.00
C543   C     0.28402   0.84811   0.03268   0.00000  Uiso   1.00
C544   C     0.07631   0.79771   0.41177   0.00000  Uiso   1.00
C545   C     0.26810   0.84214   0.08211   0.00000  Uiso   1.00
C546   C     0.14311   0.84160   0.41316   0.00000  Uiso   1.00
C547   C     0.18375   0.83848   0.08760   0.00000  Uiso   1.00
C548   C     0.14130   0.82170   0.45421   0.00000  Uiso   1.00
C549   C     0.20087   0.83171   0.03921   0.00000  Uiso   1.00
C550   C     0.10016   0.79575   0.47911   0.00000  Uiso   1.00
C551   C     0.12681   0.79386   0.04402   0.00000  Uiso   1.00
C552   C     0.25013   0.84181   0.01087   0.00000  Uiso   1.00
C553   C     0.17872   0.82772   0.47173   0.00000  Uiso   1.00
C554   C     0.16820   0.81841   0.01880   0.00000  Uiso   1.00
C555   C     0.11972   0.88528   0.10501   0.00000  Uiso   1.00
C556   C     0.11752   0.91464   0.14478   0.00000  Uiso   1.00
C557   C     0.09989   0.95793   0.13819   0.00000  Uiso   1.00
C558   C     0.14669   0.91177   0.40012   0.00000  Uiso   1.00
C559   C     0.18136   0.94739   0.37532   0.00000  Uiso   1.00
C560   C     0.15318   0.98777   0.37766   0.00000  Uiso   1.00
C561   C     0.22725   0.83996   0.44315   0.00000  Uiso   1.00
C562   C     0.09354   0.78143   0.02439   0.00000  Uiso   1.00
C563   C     0.26329   0.84616   0.46196   0.00000  Uiso   1.00
C564   C     0.20959   0.97866   0.24555   0.00000  Uiso   1.00
C565   C     0.12324   0.68797   0.25583   0.00000  Uiso   1.00
C566   C     0.20957   0.68791   0.24564   0.00000  Uiso   1.00
H567   H     0.12168   0.78203   0.07840   0.00000  Uiso   1.00
H568   H     0.26848   0.87688   0.30568   0.00000  Uiso   1.00
H569   H     0.05490   0.74948   0.08052   0.00000  Uiso   1.00
H570   H     0.31280   0.86113   0.40062   0.00000  Uiso   1.00
H571   H     0.08230   0.88296   0.10455   0.00000  Uiso   1.00
H572   H     0.14388   0.89880   0.07042   0.00000  Uiso   1.00
H573   H     0.09182   0.90176   0.17886   0.00000  Uiso   1.00
H574   H     0.15467   0.91728   0.14580   0.00000  Uiso   1.00
H575   H     0.12543   0.97178   0.10464   0.00000  Uiso   1.00
H576   H     0.09876   0.97839   0.16752   0.00000  Uiso   1.00
H577   H     0.06232   0.95625   0.13803   0.00000  Uiso   1.00
H578   H     0.23882   0.84182   0.40549   0.00000  Uiso   1.00
H579   H     0.12781   0.91938   0.43814   0.00000  Uiso   1.00
H580   H     0.11868   0.90876   0.38434   0.00000  Uiso   1.00
H581   H     0.20825   0.95226   0.39197   0.00000  Uiso   1.00
H582   H     0.20208   0.93901   0.33788   0.00000  Uiso   1.00
H583   H     0.12695   0.98382   0.36015   0.00000  Uiso   1.00
H584   H     0.17948   0.67958   0.35941   0.00000  Uiso   1.00
H585   H     0.13263   0.99714   0.41478   0.00000  Uiso   1.00
H586   H     0.33328   0.83103   0.08112   0.00000  Uiso   1.00
H587   H     0.03889   0.80305   0.37295   0.00000  Uiso   1.00
H588   H     0.00415   0.75857   0.46563   0.00000  Uiso   1.00
H589   H     0.24327   0.96247   0.24143   0.00000  Uiso   1.00
H590   H     0.01216   0.87527   0.02548   0.00000  Uiso   1.00
H591   H     0.08956   0.70417   0.25996   0.00000  Uiso   1.00
H592   H     0.24324   0.70405   0.24154   0.00000  Uiso   1.00
H593   H     0.08958   0.96253   0.25991   0.00000  Uiso   1.00
H594   H     0.31388   0.79001   0.19413   0.00000  Uiso   1.00
H595   H     0.01954   0.87682   0.30569   0.00000  Uiso   1.00
H596   H     0.06491   0.78990   0.19422   0.00000  Uiso   1.00
N597   N     0.04759   0.83334   0.25001   0.00000  Uiso   1.00
N598   N     0.28574   0.83332   0.24999   0.00000  Uiso   1.00
O599   O     0.12846   0.89442   0.25001   0.00000  Uiso   1.00
O600   O     0.31064   0.85758   0.43323   0.00000  Uiso   1.00
O601   O     0.13378   0.84482   0.11333   0.00000  Uiso   1.00
O602   O     0.17458   0.87492   0.39452   0.00000  Uiso   1.00
O603   O     0.30104   0.84092   0.10393   0.00000  Uiso   1.00
O604   O     0.04899   0.78039   0.38890   0.00000  Uiso   1.00
O605   O     0.02702   0.75940   0.48208   0.00000  Uiso   1.00
O606   O     0.33175   0.85984   0.00561   0.00000  Uiso   1.00
O607   O     0.20488   0.77225   0.25000   0.00000  Uiso   1.00
O608   O     0.20490   0.89441   0.25000   0.00000  Uiso   1.00
O609   O     0.12843   0.77226   0.25000   0.00000  Uiso   1.00
O610   O     0.10661   0.83334   0.31613   0.00000  Uiso   1.00
O611   O     0.22672   0.83333   0.18388   0.00000  Uiso   1.00
O612   O     0.18305   0.83333   0.31612   0.00000  Uiso   1.00
O613   O     0.15028   0.83334   0.18388   0.00000  Uiso   1.00
O614   O     0.05433   0.75588   0.04934   0.00000  Uiso   1.00
Zn615  Zn    0.11562   0.83334   0.25000   0.00000  Uiso   1.00
Zn616  Zn    0.21771   0.83333   0.25000   0.00000  Uiso   1.00
C617   C     0.49993   0.91339   0.25017   0.00000  Uiso   1.00
C618   C     0.45658   0.97871   0.25580   0.00000  Uiso   1.00
C619   C     0.49978   0.70911   0.25060   0.00000  Uiso   1.00
C620   C     0.49980   0.95752   0.25050   0.00000  Uiso   1.00
C621   C     0.65532   0.80924   0.21894   0.00000  Uiso   1.00
C622   C     0.34472   0.85751   0.28097   0.00000  Uiso   1.00
C623   C     0.36996   0.80922   0.21899   0.00000  Uiso   1.00
C624   C     0.63007   0.85752   0.28095   0.00000  Uiso   1.00
C625   C     0.46898   0.83193   0.33821   0.00000  Uiso   1.00
C626   C     0.53085   0.83485   0.16149   0.00000  Uiso   1.00
C627   C     0.44885   0.82559   0.38910   0.00000  Uiso   1.00
C628   C     0.49992   0.75327   0.25018   0.00000  Uiso   1.00
C629   C     0.55056   0.83853   0.10975   0.00000  Uiso   1.00
C630   C     0.40037   0.78450   0.45792   0.00000  Uiso   1.00
C631   C     0.61735   0.84811   0.03268   0.00000  Uiso   1.00
C632   C     0.40964   0.79771   0.41177   0.00000  Uiso   1.00
C633   C     0.60143   0.84214   0.08211   0.00000  Uiso   1.00
C634   C     0.47644   0.84160   0.41316   0.00000  Uiso   1.00
C635   C     0.51709   0.83848   0.08760   0.00000  Uiso   1.00
C636   C     0.47463   0.82170   0.45421   0.00000  Uiso   1.00
C637   C     0.53420   0.83171   0.03921   0.00000  Uiso   1.00
C638   C     0.43349   0.79575   0.47911   0.00000  Uiso   1.00
C639   C     0.46015   0.79386   0.04402   0.00000  Uiso   1.00
C640   C     0.58347   0.84181   0.01087   0.00000  Uiso   1.00
C641   C     0.51205   0.82772   0.47173   0.00000  Uiso   1.00
C642   C     0.50153   0.81841   0.01880   0.00000  Uiso   1.00
C643   C     0.45306   0.88528   0.10501   0.00000  Uiso   1.00
C644   C     0.45085   0.91464   0.14478   0.00000  Uiso   1.00
C645   C     0.43322   0.95793   0.13819   0.00000  Uiso   1.00
C646   C     0.48002   0.91177   0.40012   0.00000  Uiso   1.00
C647   C     0.51469   0.94739   0.37532   0.00000  Uiso   1.00
C648   C     0.48652   0.98777   0.37766   0.00000  Uiso   1.00
C649   C     0.56058   0.83996   0.44315   0.00000  Uiso   1.00
C650   C     0.42687   0.78143   0.02439   0.00000  Uiso   1.00
C651   C     0.59662   0.84616   0.46196   0.00000  Uiso   1.00
C652   C     0.54292   0.97866   0.24555   0.00000  Uiso   1.00
C653   C     0.45657   0.68797   0.25583   0.00000  Uiso   1.00
C654   C     0.54290   0.68791   0.24564   0.00000  Uiso   1.00
H655   H     0.45501   0.78203   0.07840   0.00000  Uiso   1.00
H656   H     0.60181   0.87688   0.30568   0.00000  Uiso   1.00
H657   H     0.38823   0.74948   0.08052   0.00000  Uiso   1.00
H658   H     0.64614   0.86113   0.40062   0.00000  Uiso   1.00
H659   H     0.41564   0.88296   0.10455   0.00000  Uiso   1.00
H660   H     0.47721   0.89880   0.07042   0.00000  Uiso   1.00
H661   H     0.42516   0.90176   0.17886   0.00000  Uiso   1.00
H662   H     0.48801   0.91728   0.14580   0.00000  Uiso   1.00
H663   H     0.45876   0.97178   0.10464   0.00000  Uiso   1.00
H664   H     0.43210   0.97839   0.16752   0.00000  Uiso   1.00
H665   H     0.39565   0.95625   0.13803   0.00000  Uiso   1.00
H666   H     0.57215   0.84182   0.40549   0.00000  Uiso   1.00
H667   H     0.46114   0.91938   0.43814   0.00000  Uiso   1.00
H668   H     0.45201   0.90876   0.38434   0.00000  Uiso   1.00
H669   H     0.54159   0.95226   0.39197   0.00000  Uiso   1.00
H670   H     0.53541   0.93901   0.33788   0.00000  Uiso   1.00
H671   H     0.46029   0.98382   0.36015   0.00000  Uiso   1.00
H672   H     0.51281   0.67958   0.35941   0.00000  Uiso   1.00
H673   H     0.46596   0.99714   0.41478   0.00000  Uiso   1.00
H674   H     0.66661   0.83103   0.08112   0.00000  Uiso   1.00
H675   H     0.37222   0.80305   0.37295   0.00000  Uiso   1.00
H676   H     0.33749   0.75857   0.46563   0.00000  Uiso   1.00
H677   H     0.57661   0.96247   0.24143   0.00000  Uiso   1.00
H678   H     0.34549   0.87527   0.02548   0.00000  Uiso   1.00
H679   H     0.42289   0.70417   0.25996   0.00000  Uiso   1.00
H680   H     0.57658   0.70405   0.24154   0.00000  Uiso   1.00
H681   H     0.42292   0.96253   0.25991   0.00000  Uiso   1.00
H682   H     0.64721   0.79001   0.19413   0.00000  Uiso   1.00
H683   H     0.35288   0.87682   0.30569   0.00000  Uiso   1.00
H684   H     0.39824   0.78990   0.19422   0.00000  Uiso   1.00
N685   N     0.38093   0.83334   0.25001   0.00000  Uiso   1.00
N686   N     0.61907   0.83332   0.24999   0.00000  Uiso   1.00
O687   O     0.46179   0.89442   0.25001   0.00000  Uiso   1.00
O688   O     0.64397   0.85758   0.43323   0.00000  Uiso   1.00
O689   O     0.46712   0.84482   0.11333   0.00000  Uiso   1.00
O690   O     0.50791   0.87492   0.39452   0.00000  Uiso   1.00
O691   O     0.63437   0.84092   0.10393   0.00000  Uiso   1.00
O692   O     0.38233   0.78039   0.38890   0.00000  Uiso   1.00
O693   O     0.36036   0.75940   0.48208   0.00000  Uiso   1.00
O694   O     0.66509   0.85984   0.00561   0.00000  Uiso   1.00
O695   O     0.53821   0.77225   0.25000   0.00000  Uiso   1.00
O696   O     0.53823   0.89441   0.25000   0.00000  Uiso   1.00
O697   O     0.46177   0.77226   0.25000   0.00000  Uiso   1.00
O698   O     0.43994   0.83334   0.31613   0.00000  Uiso   1.00
O699   O     0.56006   0.83333   0.18388   0.00000  Uiso   1.00
O700   O     0.51639   0.83333   0.31612   0.00000  Uiso   1.00
O701   O     0.48361   0.83334   0.18388   0.00000  Uiso   1.00
O702   O     0.38766   0.75588   0.04934   0.00000  Uiso   1.00
Zn703  Zn    0.44896   0.83334   0.25000   0.00000  Uiso   1.00
Zn704  Zn    0.55104   0.83333   0.25000   0.00000  Uiso   1.00
C705   C     0.83327   0.91339   0.25017   0.00000  Uiso   1.00
C706   C     0.78992   0.97871   0.25580   0.00000  Uiso   1.00
C707   C     0.83311   0.70911   0.25060   0.00000  Uiso   1.00
C708   C     0.83314   0.95752   0.25050   0.00000  Uiso   1.00
C709   C     0.98866   0.80924   0.21894   0.00000  Uiso   1.00
C710   C     0.67805   0.85751   0.28097   0.00000  Uiso   1.00
C711   C     0.70329   0.80922   0.21899   0.00000  Uiso   1.00
C712   C     0.96340   0.85752   0.28095   0.00000  Uiso   1.00
C713   C     0.80231   0.83193   0.33821   0.00000  Uiso   1.00
C714   C     0.86419   0.83485   0.16149   0.00000  Uiso   1.00
C715   C     0.78218   0.82559   0.38910   0.00000  Uiso   1.00
C716   C     0.83326   0.75327   0.25018   0.00000  Uiso   1.00
C717   C     0.88390   0.83853   0.10975   0.00000  Uiso   1.00
C718   C     0.73370   0.78450   0.45792   0.00000  Uiso   1.00
C719   C     0.95068   0.84811   0.03268   0.00000  Uiso   1.00
C720   C     0.74297   0.79771   0.41177   0.00000  Uiso   1.00
C721   C     0.93476   0.84214   0.08211   0.00000  Uiso   1.00
C722   C     0.80977   0.84160   0.41316   0.00000  Uiso   1.00
C723   C     0.85042   0.83848   0.08760   0.00000  Uiso   1.00
C724   C     0.80797   0.82170   0.45421   0.00000  Uiso   1.00
C725   C     0.86754   0.83171   0.03921   0.00000  Uiso   1.00
C726   C     0.76682   0.79575   0.47911   0.00000  Uiso   1.00
C727   C     0.79348   0.79386   0.04402   0.00000  Uiso   1.00
C728   C     0.91680   0.84181   0.01087   0.00000  Uiso   1.00
C729   C     0.84539   0.82772   0.47173   0.00000  Uiso   1.00
C730   C     0.83487   0.81841   0.01880   0.00000  Uiso   1.00
C731   C     0.78639   0.88528   0.10501   0.00000  Uiso   1.00
C732   C     0.78418   0.91464   0.14478   0.00000  Uiso   1.00
C733   C     0.76655   0.95793   0.13819   0.00000  Uiso   1.00
C734   C     0.81335   0.91177   0.40012   0.00000  Uiso   1.00
C735   C     0.84803   0.94739   0.37532   0.00000  Uiso   1.00
C736   C     0.81985   0.98777   0.37766   0.00000  Uiso   1.00
C737   C     0.89391   0.83996   0.44315   0.00000  Uiso   1.00
C738   C     0.76021   0.78143   0.02439   0.00000  Uiso   1.00
C739   C     0.92995   0.84616   0.46196   0.00000  Uiso   1.00
C740   C     0.87626   0.97866   0.24555   0.00000  Uiso   1.00
C741   C     0.78991   0.68797   0.25583   0.00000  Uiso   1.00
C742   C     0.87623   0.68791   0.24564   0.00000  Uiso   1.00
H743   H     0.78834   0.78203   0.07840   0.00000  Uiso   1.00
H744   H     0.93515   0.87688   0.30568   0.00000  Uiso   1.00
H745   H     0.72156   0.74948   0.08052   0.00000  Uiso   1.00
H746   H     0.97947   0.86113   0.40062   0.00000  Uiso   1.00
H747   H     0.74897   0.88296   0.10455   0.00000  Uiso   1.00
H748   H     0.81054   0.89880   0.07042   0.00000  Uiso   1.00
H749   H     0.75849   0.90176   0.17886   0.00000  Uiso   1.00
H750   H     0.82134   0.91728   0.14580   0.00000  Uiso   1.00
H751   H     0.79210   0.97178   0.10464   0.00000  Uiso   1.00
H752   H     0.76543   0.97839   0.16752   0.00000  Uiso   1.00
H753   H     0.72898   0.95625   0.13803   0.00000  Uiso   1.00
H754   H     0.90549   0.84182   0.40549   0.00000  Uiso   1.00
H755   H     0.79447   0.91938   0.43814   0.00000  Uiso   1.00
H756   H     0.78534   0.90876   0.38434   0.00000  Uiso   1.00
H757   H     0.87492   0.95226   0.39197   0.00000  Uiso   1.00
H758   H     0.86874   0.93901   0.33788   0.00000  Uiso   1.00
H759   H     0.79362   0.98382   0.36015   0.00000  Uiso   1.00
H760   H     0.84615   0.67958   0.35941   0.00000  Uiso   1.00
H761   H     0.79929   0.99714   0.41478   0.00000  Uiso   1.00
H762   H     0.99995   0.83103   0.08112   0.00000  Uiso   1.00
H763   H     0.70556   0.80305   0.37295   0.00000  Uiso   1.00
H764   H     0.67082   0.75857   0.46563   0.00000  Uiso   1.00
H765   H     0.90994   0.96247   0.24143   0.00000  Uiso   1.00
H766   H     0.67882   0.87527   0.02548   0.00000  Uiso   1.00
H767   H     0.75623   0.70417   0.25996   0.00000  Uiso   1.00
H768   H     0.90991   0.70405   0.24154   0.00000  Uiso   1.00
H769   H     0.75625   0.96253   0.25991   0.00000  Uiso   1.00
H770   H     0.98055   0.79001   0.19413   0.00000  Uiso   1.00
H771   H     0.68621   0.87682   0.30569   0.00000  Uiso   1.00
H772   H     0.73158   0.78990   0.19422   0.00000  Uiso   1.00
N773   N     0.71426   0.83334   0.25001   0.00000  Uiso   1.00
N774   N     0.95241   0.83332   0.24999   0.00000  Uiso   1.00
O775   O     0.79512   0.89442   0.25001   0.00000  Uiso   1.00
O776   O     0.97730   0.85758   0.43323   0.00000  Uiso   1.00
O777   O     0.80045   0.84482   0.11333   0.00000  Uiso   1.00
O778   O     0.84125   0.87492   0.39452   0.00000  Uiso   1.00
O779   O     0.96770   0.84092   0.10393   0.00000  Uiso   1.00
O780   O     0.71566   0.78039   0.38890   0.00000  Uiso   1.00
O781   O     0.69369   0.75940   0.48208   0.00000  Uiso   1.00
O782   O     0.99842   0.85984   0.00561   0.00000  Uiso   1.00
O783   O     0.87154   0.77225   0.25000   0.00000  Uiso   1.00
O784   O     0.87157   0.89441   0.25000   0.00000  Uiso   1.00
O785   O     0.79510   0.77226   0.25000   0.00000  Uiso   1.00
O786   O     0.77328   0.83334   0.31613   0.00000  Uiso   1.00
O787   O     0.89339   0.83333   0.18388   0.00000  Uiso   1.00
O788   O     0.84972   0.83333   0.31612   0.00000  Uiso   1.00
O789   O     0.81695   0.83334   0.18388   0.00000  Uiso   1.00
O790   O     0.72100   0.75588   0.04934   0.00000  Uiso   1.00
Zn791  Zn    0.78229   0.83334   0.25000   0.00000  Uiso   1.00
Zn792  Zn    0.88438   0.83333   0.25000   0.00000  Uiso   1.00
C793   C     0.16660   0.24672   0.75017   0.00000  Uiso   1.00
C794   C     0.12325   0.31204   0.75580   0.00000  Uiso   1.00
C795   C     0.16645   0.04245   0.75060   0.00000  Uiso   1.00
C796   C     0.16647   0.29085   0.75050   0.00000  Uiso   1.00
C797   C     0.32199   0.14258   0.71894   0.00000  Uiso   1.00
C798   C     0.01139   0.19085   0.78097   0.00000  Uiso   1.00
C799   C     0.03663   0.14255   0.71899   0.00000  Uiso   1.00
C800   C     0.29674   0.19086   0.78095   0.00000  Uiso   1.00
C801   C     0.13565   0.16527   0.83821   0.00000  Uiso   1.00
C802   C     0.19752   0.16818   0.66149   0.00000  Uiso   1.00
C803   C     0.11552   0.15892   0.88910   0.00000  Uiso   1.00
C804   C     0.16659   0.08660   0.75018   0.00000  Uiso   1.00
C805   C     0.21723   0.17186   0.60975   0.00000  Uiso   1.00
C806   C     0.06704   0.11783   0.95792   0.00000  Uiso   1.00
C807   C     0.28402   0.18144   0.53268   0.00000  Uiso   1.00
C808   C     0.07631   0.13104   0.91177   0.00000  Uiso   1.00
C809   C     0.26810   0.17547   0.58211   0.00000  Uiso   1.00
C810   C     0.14311   0.17494   0.91316   0.00000  Uiso   1.00
C811   C     0.18375   0.17181   0.58760   0.00000  Uiso   1.00
C812   C     0.14130   0.15503   0.95421   0.00000  Uiso   1.00
C813   C     0.20087   0.16504   0.53921   0.00000  Uiso   1.00
C814   C     0.10016   0.12908   0.97911   0.00000  Uiso   1.00
C815   C     0.12681   0.12719   0.54402   0.00000  Uiso   1.00
C816   C     0.25013   0.17515   0.51087   0.00000  Uiso   1.00
C817   C     0.17872   0.16105   0.97173   0.00000  Uiso   1.00
C818   C     0.16820   0.15175   0.51880   0.00000  Uiso   1.00
C819   C     0.11972   0.21861   0.60501   0.00000  Uiso   1.00
C820   C     0.11752   0.24798   0.64478   0.00000  Uiso   1.00
C821   C     0.09989   0.29126   0.63819   0.00000  Uiso   1.00
C822   C     0.14669   0.24511   0.90012   0.00000  Uiso   1.00
C823   C     0.18136   0.28073   0.87532   0.00000  Uiso   1.00
C824   C     0.15318   0.32111   0.87766   0.00000  Uiso   1.00
C825   C     0.22725   0.17329   0.94315   0.00000  Uiso   1.00
C826   C     0.09354   0.11476   0.52439   0.00000  Uiso   1.00
C827   C     0.26329   0.17950   0.96196   0.00000  Uiso   1.00
C828   C     0.20959   0.31200   0.74555   0.00000  Uiso   1.00
C829   C     0.12324   0.02130   0.75583   0.00000  Uiso   1.00
C830   C     0.20957   0.02124   0.74564   0.00000  Uiso   1.00
H831   H     0.12168   0.11536   0.57840   0.00000  Uiso   1.00
H832   H     0.26848   0.21021   0.80568   0.00000  Uiso   1.00
H833   H     0.05490   0.08281   0.58052   0.00000  Uiso   1.00
H834   H     0.31280   0.19447   0.90062   0.00000  Uiso   1.00
H835   H     0.08230   0.21629   0.60455   0.00000  Uiso   1.00
H836   H     0.14388   0.23213   0.57042   0.00000  Uiso   1.00
H837   H     0.09182   0.23509   0.67886   0.00000  Uiso   1.00
H838   H     0.15467   0.25061   0.64580   0.00000  Uiso   1.00
H839   H     0.12543   0.30511   0.60464   0.00000  Uiso   1.00
H840   H     0.09876   0.31172   0.66752   0.00000  Uiso   1.00
H841   H     0.06232   0.28958   0.63803   0.00000  Uiso   1.00
H842   H     0.23882   0.17515   0.90549   0.00000  Uiso   1.00
H843   H     0.12781   0.25272   0.93814   0.00000  Uiso   1.00
H844   H     0.11868   0.24209   0.88434   0.00000  Uiso   1.00
H845   H     0.20825   0.28560   0.89197   0.00000  Uiso   1.00
H846   H     0.20208   0.27234   0.83788   0.00000  Uiso   1.00
H847   H     0.12695   0.31715   0.86015   0.00000  Uiso   1.00
H848   H     0.17948   0.01291   0.85941   0.00000  Uiso   1.00
H849   H     0.13263   0.33048   0.91478   0.00000  Uiso   1.00
H850   H     0.33328   0.16436   0.58112   0.00000  Uiso   1.00
H851   H     0.03889   0.13638   0.87295   0.00000  Uiso   1.00
H852   H     0.00415   0.09190   0.96563   0.00000  Uiso   1.00
H853   H     0.24327   0.29580   0.74143   0.00000  Uiso   1.00
H854   H     0.01216   0.20860   0.52548   0.00000  Uiso   1.00
H855   H     0.08956   0.03751   0.75996   0.00000  Uiso   1.00
H856   H     0.24324   0.03739   0.74154   0.00000  Uiso   1.00
H857   H     0.08958   0.29587   0.75991   0.00000  Uiso   1.00
H858   H     0.31388   0.12334   0.69413   0.00000  Uiso   1.00
H859   H     0.01954   0.21015   0.80569   0.00000  Uiso   1.00
H860   H     0.06491   0.12324   0.69422   0.00000  Uiso   1.00
N861   N     0.04759   0.16668   0.75001   0.00000  Uiso   1.00
N862   N     0.28574   0.16666   0.74999   0.00000  Uiso   1.00
O863   O     0.12846   0.22775   0.75001   0.00000  Uiso   1.00
O864   O     0.31064   0.19092   0.93323   0.00000  Uiso   1.00
O865   O     0.13378   0.17815   0.61333   0.00000  Uiso   1.00
O866   O     0.17458   0.20826   0.89452   0.00000  Uiso   1.00
O867   O     0.30104   0.17425   0.60393   0.00000  Uiso   1.00
O868   O     0.04899   0.11372   0.88890   0.00000  Uiso   1.00
O869   O     0.02702   0.09273   0.98208   0.00000  Uiso   1.00
O870   O     0.33175   0.19317   0.50561   0.00000  Uiso   1.00
O871   O     0.20488   0.10558   0.75000   0.00000  Uiso   1.00
O872   O     0.20490   0.22774   0.75000   0.00000  Uiso   1.00
O873   O     0.12843   0.10559   0.75000   0.00000  Uiso   1.00
O874   O     0.10661   0.16667   0.81613   0.00000  Uiso   1.00
O875   O     0.22672   0.16666   0.68388   0.00000  Uiso   1.00
O876   O     0.18305   0.16666   0.81612   0.00000  Uiso   1.00
O877   O     0.15028   0.16667   0.68388   0.00000  Uiso   1.00
O878   O     0.05433   0.08921   0.54934   0.00000  Uiso   1.00
Zn879  Zn    0.11562   0.16667   0.75000   0.00000  Uiso   1.00
Zn880  Zn    0.21771   0.16666   0.75000   0.00000  Uiso   1.00
C881   C     0.49993   0.24672   0.75017   0.00000  Uiso   1.00
C882   C     0.45658   0.31204   0.75580   0.00000  Uiso   1.00
C883   C     0.49978   0.04245   0.75060   0.00000  Uiso   1.00
C884   C     0.49980   0.29085   0.75050   0.00000  Uiso   1.00
C885   C     0.65532   0.14258   0.71894   0.00000  Uiso   1.00
C886   C     0.34472   0.19085   0.78097   0.00000  Uiso   1.00
C887   C     0.36996   0.14255   0.71899   0.00000  Uiso   1.00
C888   C     0.63007   0.19086   0.78095   0.00000  Uiso   1.00
C889   C     0.46898   0.16527   0.83821   0.00000  Uiso   1.00
C890   C     0.53085   0.16818   0.66149   0.00000  Uiso   1.00
C891   C     0.44885   0.15892   0.88910   0.00000  Uiso   1.00
C892   C     0.49992   0.08660   0.75018   0.00000  Uiso   1.00
C893   C     0.55056   0.17186   0.60975   0.00000  Uiso   1.00
C894   C     0.40037   0.11783   0.95792   0.00000  Uiso   1.00
C895   C     0.61735   0.18144   0.53268   0.00000  Uiso   1.00
C896   C     0.40964   0.13104   0.91177   0.00000  Uiso   1.00
C897   C     0.60143   0.17547   0.58211   0.00000  Uiso   1.00
C898   C     0.47644   0.17494   0.91316   0.00000  Uiso   1.00
C899   C     0.51709   0.17181   0.58760   0.00000  Uiso   1.00
C900   C     0.47463   0.15503   0.95421   0.00000  Uiso   1.00
C901   C     0.53420   0.16504   0.53921   0.00000  Uiso   1.00
C902   C     0.43349   0.12908   0.97911   0.00000  Uiso   1.00
C903   C     0.46015   0.12719   0.54402   0.00000  Uiso   1.00
C904   C     0.58347   0.17515   0.51087   0.00000  Uiso   1.00
C905   C     0.51205   0.16105   0.97173   0.00000  Uiso   1.00
C906   C     0.50153   0.15175   0.51880   0.00000  Uiso   1.00
C907   C     0.45306   0.21861   0.60501   0.00000  Uiso   1.00
C908   C     0.45085   0.24798   0.64478   0.00000  Uiso   1.00
C909   C     0.43322   0.29126   0.63819   0.00000  Uiso   1.00
C910   C     0.48002   0.24511   0.90012   0.00000  Uiso   1.00
C911   C     0.51469   0.28073   0.87532   0.00000  Uiso   1.00
C912   C     0.48652   0.32111   0.87766   0.00000  Uiso   1.00
C913   C     0.56058   0.17329   0.94315   0.00000  Uiso   1.00
C914   C     0.42687   0.11476   0.52439   0.00000  Uiso   1.00
C915   C     0.59662   0.17950   0.96196   0.00000  Uiso   1.00
C916   C     0.54292   0.31200   0.74555   0.00000  Uiso   1.00
C917   C     0.45657   0.02130   0.75583   0.00000  Uiso   1.00
C918   C     0.54290   0.02124   0.74564   0.00000  Uiso   1.00
H919   H     0.45501   0.11536   0.57840   0.00000  Uiso   1.00
H920   H     0.60181   0.21021   0.80568   0.00000  Uiso   1.00
H921   H     0.38823   0.08281   0.58052   0.00000  Uiso   1.00
H922   H     0.64614   0.19447   0.90062   0.00000  Uiso   1.00
H923   H     0.41564   0.21629   0.60455   0.00000  Uiso   1.00
H924   H     0.47721   0.23213   0.57042   0.00000  Uiso   1.00
H925   H     0.42516   0.23509   0.67886   0.00000  Uiso   1.00
H926   H     0.48801   0.25061   0.64580   0.00000  Uiso   1.00
H927   H     0.45876   0.30511   0.60464   0.00000  Uiso   1.00
H928   H     0.43210   0.31172   0.66752   0.00000  Uiso   1.00
H929   H     0.39565   0.28958   0.63803   0.00000  Uiso   1.00
H930   H     0.57215   0.17515   0.90549   0.00000  Uiso   1.00
H931   H     0.46114   0.25272   0.93814   0.00000  Uiso   1.00
H932   H     0.45201   0.24209   0.88434   0.00000  Uiso   1.00
H933   H     0.54159   0.28560   0.89197   0.00000  Uiso   1.00
H934   H     0.53541   0.27234   0.83788   0.00000  Uiso   1.00
H935   H     0.46029   0.31715   0.86015   0.00000  Uiso   1.00
H936   H     0.51281   0.01291   0.85941   0.00000  Uiso   1.00
H937   H     0.46596   0.33048   0.91478   0.00000  Uiso   1.00
H938   H     0.66661   0.16436   0.58112   0.00000  Uiso   1.00
H939   H     0.37222   0.13638   0.87295   0.00000  Uiso   1.00
H940   H     0.33749   0.09190   0.96563   0.00000  Uiso   1.00
H941   H     0.57661   0.29580   0.74143   0.00000  Uiso   1.00
H942   H     0.34549   0.20860   0.52548   0.00000  Uiso   1.00
H943   H     0.42289   0.03751   0.75996   0.00000  Uiso   1.00
H944   H     0.57658   0.03739   0.74154   0.00000  Uiso   1.00
H945   H     0.42292   0.29587   0.75991   0.00000  Uiso   1.00
H946   H     0.64721   0.12334   0.69413   0.00000  Uiso   1.00
H947   H     0.35288   0.21015   0.80569   0.00000  Uiso   1.00
H948   H     0.39824   0.12324   0.69422   0.00000  Uiso   1.00
N949   N     0.38093   0.16668   0.75001   0.00000  Uiso   1.00
N950   N     0.61907   0.16666   0.74999   0.00000  Uiso   1.00
O951   O     0.46179   0.22775   0.75001   0.00000  Uiso   1.00
O952   O     0.64397   0.19092   0.93323   0.00000  Uiso   1.00
O953   O     0.46712   0.17815   0.61333   0.00000  Uiso   1.00
O954   O     0.50791   0.20826   0.89452   0.00000  Uiso   1.00
O955   O     0.63437   0.17425   0.60393   0.00000  Uiso   1.00
O956   O     0.38233   0.11372   0.88890   0.00000  Uiso   1.00
O957   O     0.36036   0.09273   0.98208   0.00000  Uiso   1.00
O958   O     0.66509   0.19317   0.50561   0.00000  Uiso   1.00
O959   O     0.53821   0.10558   0.75000   0.00000  Uiso   1.00
O960   O     0.53823   0.22774   0.75000   0.00000  Uiso   1.00
O961   O     0.46177   0.10559   0.75000   0.00000  Uiso   1.00
O962   O     0.43994   0.16667   0.81613   0.00000  Uiso   1.00
O963   O     0.56006   0.16666   0.68388   0.00000  Uiso   1.00
O964   O     0.51639   0.16666   0.81612   0.00000  Uiso   1.00
O965   O     0.48361   0.16667   0.68388   0.00000  Uiso   1.00
O966   O     0.38766   0.08921   0.54934   0.00000  Uiso   1.00
Zn967  Zn    0.44896   0.16667   0.75000   0.00000  Uiso   1.00
Zn968  Zn    0.55104   0.16666   0.75000   0.00000  Uiso   1.00
C969   C     0.83327   0.24672   0.75017   0.00000  Uiso   1.00
C970   C     0.78992   0.31204   0.75580   0.00000  Uiso   1.00
C971   C     0.83311   0.04245   0.75060   0.00000  Uiso   1.00
C972   C     0.83314   0.29085   0.75050   0.00000  Uiso   1.00
C973   C     0.98866   0.14258   0.71894   0.00000  Uiso   1.00
C974   C     0.67805   0.19085   0.78097   0.00000  Uiso   1.00
C975   C     0.70329   0.14255   0.71899   0.00000  Uiso   1.00
C976   C     0.96340   0.19086   0.78095   0.00000  Uiso   1.00
C977   C     0.80231   0.16527   0.83821   0.00000  Uiso   1.00
C978   C     0.86419   0.16818   0.66149   0.00000  Uiso   1.00
C979   C     0.78218   0.15892   0.88910   0.00000  Uiso   1.00
C980   C     0.83326   0.08660   0.75018   0.00000  Uiso   1.00
C981   C     0.88390   0.17186   0.60975   0.00000  Uiso   1.00
C982   C     0.73370   0.11783   0.95792   0.00000  Uiso   1.00
C983   C     0.95068   0.18144   0.53268   0.00000  Uiso   1.00
C984   C     0.74297   0.13104   0.91177   0.00000  Uiso   1.00
C985   C     0.93476   0.17547   0.58211   0.00000  Uiso   1.00
C986   C     0.80977   0.17494   0.91316   0.00000  Uiso   1.00
C987   C     0.85042   0.17181   0.58760   0.00000  Uiso   1.00
C988   C     0.80797   0.15503   0.95421   0.00000  Uiso   1.00
C989   C     0.86754   0.16504   0.53921   0.00000  Uiso   1.00
C990   C     0.76682   0.12908   0.97911   0.00000  Uiso   1.00
C991   C     0.79348   0.12719   0.54402   0.00000  Uiso   1.00
C992   C     0.91680   0.17515   0.51087   0.00000  Uiso   1.00
C993   C     0.84539   0.16105   0.97173   0.00000  Uiso   1.00
C994   C     0.83487   0.15175   0.51880   0.00000  Uiso   1.00
C995   C     0.78639   0.21861   0.60501   0.00000  Uiso   1.00
C996   C     0.78418   0.24798   0.64478   0.00000  Uiso   1.00
C997   C     0.76655   0.29126   0.63819   0.00000  Uiso   1.00
C998   C     0.81335   0.24511   0.90012   0.00000  Uiso   1.00
C999   C     0.84803   0.28073   0.87532   0.00000  Uiso   1.00
C1000  C     0.81985   0.32111   0.87766   0.00000  Uiso   1.00
C1001  C     0.89391   0.17329   0.94315   0.00000  Uiso   1.00
C1002  C     0.76021   0.11476   0.52439   0.00000  Uiso   1.00
C1003  C     0.92995   0.17950   0.96196   0.00000  Uiso   1.00
C1004  C     0.87626   0.31200   0.74555   0.00000  Uiso   1.00
C1005  C     0.78991   0.02130   0.75583   0.00000  Uiso   1.00
C1006  C     0.87623   0.02124   0.74564   0.00000  Uiso   1.00
H1007  H     0.78834   0.11536   0.57840   0.00000  Uiso   1.00
H1008  H     0.93515   0.21021   0.80568   0.00000  Uiso   1.00
H1009  H     0.72156   0.08281   0.58052   0.00000  Uiso   1.00
H1010  H     0.97947   0.19447   0.90062   0.00000  Uiso   1.00
H1011  H     0.74897   0.21629   0.60455   0.00000  Uiso   1.00
H1012  H     0.81054   0.23213   0.57042   0.00000  Uiso   1.00
H1013  H     0.75849   0.23509   0.67886   0.00000  Uiso   1.00
H1014  H     0.82134   0.25061   0.64580   0.00000  Uiso   1.00
H1015  H     0.79210   0.30511   0.60464   0.00000  Uiso   1.00
H1016  H     0.76543   0.31172   0.66752   0.00000  Uiso   1.00
H1017  H     0.72898   0.28958   0.63803   0.00000  Uiso   1.00
H1018  H     0.90549   0.17515   0.90549   0.00000  Uiso   1.00
H1019  H     0.79447   0.25272   0.93814   0.00000  Uiso   1.00
H1020  H     0.78534   0.24209   0.88434   0.00000  Uiso   1.00
H1021  H     0.87492   0.28560   0.89197   0.00000  Uiso   1.00
H1022  H     0.86874   0.27234   0.83788   0.00000  Uiso   1.00
H1023  H     0.79362   0.31715   0.86015   0.00000  Uiso   1.00
H1024  H     0.84615   0.01291   0.85941   0.00000  Uiso   1.00
H1025  H     0.79929   0.33048   0.91478   0.00000  Uiso   1.00
H1026  H     0.99995   0.16436   0.58112   0.00000  Uiso   1.00
H1027  H     0.70556   0.13638   0.87295   0.00000  Uiso   1.00
H1028  H     0.67082   0.09190   0.96563   0.00000  Uiso   1.00
H1029  H     0.90994   0.29580   0.74143   0.00000  Uiso   1.00
H1030  H     0.67882   0.20860   0.52548   0.00000  Uiso   1.00
H1031  H     0.75623   0.03751   0.75996   0.00000  Uiso   1.00
H1032  H     0.90991   0.03739   0.74154   0.00000  Uiso   1.00
H1033  H     0.75625   0.29587   0.75991   0.00000  Uiso   1.00
H1034  H     0.98055   0.12334   0.69413   0.00000  Uiso   1.00
H1035  H     0.68621   0.21015   0.80569   0.00000  Uiso   1.00
H1036  H     0.73158   0.12324   0.69422   0.00000  Uiso   1.00
N1037  N     0.71426   0.16668   0.75001   0.00000  Uiso   1.00
N1038  N     0.95241   0.16666   0.74999   0.00000  Uiso   1.00
O1039  O     0.79512   0.22775   0.75001   0.00000  Uiso   1.00
O1040  O     0.97730   0.19092   0.93323   0.00000  Uiso   1.00
O1041  O     0.80045   0.17815   0.61333   0.00000  Uiso   1.00
O1042  O     0.84125   0.20826   0.89452   0.00000  Uiso   1.00
O1043  O     0.96770   0.17425   0.60393   0.00000  Uiso   1.00
O1044  O     0.71566   0.11372   0.88890   0.00000  Uiso   1.00
O1045  O     0.69369   0.09273   0.98208   0.00000  Uiso   1.00
O1046  O     0.99842   0.19317   0.50561   0.00000  Uiso   1.00
O1047  O     0.87154   0.10558   0.75000   0.00000  Uiso   1.00
O1048  O     0.87157   0.22774   0.75000   0.00000  Uiso   1.00
O1049  O     0.79510   0.10559   0.75000   0.00000  Uiso   1.00
O1050  O     0.77328   0.16667   0.81613   0.00000  Uiso   1.00
O1051  O     0.89339   0.16666   0.68388   0.00000  Uiso   1.00
O1052  O     0.84972   0.16666   0.81612   0.00000  Uiso   1.00
O1053  O     0.81695   0.16667   0.68388   0.00000  Uiso   1.00
O1054  O     0.72100   0.08921   0.54934   0.00000  Uiso   1.00
Zn1055 Zn    0.78229   0.16667   0.75000   0.00000  Uiso   1.00
Zn1056 Zn    0.88438   0.16666   0.75000   0.00000  Uiso   1.00
C1057  C     0.16660   0.58006   0.75017   0.00000  Uiso   1.00
C1058  C     0.12325   0.64537   0.75580   0.00000  Uiso   1.00
C1059  C     0.16645   0.37578   0.75060   0.00000  Uiso   1.00
C1060  C     0.16647   0.62419   0.75050   0.00000  Uiso   1.00
C1061  C     0.32199   0.47591   0.71894   0.00000  Uiso   1.00
C1062  C     0.01139   0.52418   0.78097   0.00000  Uiso   1.00
C1063  C     0.03663   0.47588   0.71899   0.00000  Uiso   1.00
C1064  C     0.29674   0.52419   0.78095   0.00000  Uiso   1.00
C1065  C     0.13565   0.49860   0.83821   0.00000  Uiso   1.00
C1066  C     0.19752   0.50152   0.66149   0.00000  Uiso   1.00
C1067  C     0.11552   0.49225   0.88910   0.00000  Uiso   1.00
C1068  C     0.16659   0.41993   0.75018   0.00000  Uiso   1.00
C1069  C     0.21723   0.50520   0.60975   0.00000  Uiso   1.00
C1070  C     0.06704   0.45117   0.95792   0.00000  Uiso   1.00
C1071  C     0.28402   0.51477   0.53268   0.00000  Uiso   1.00
C1072  C     0.07631   0.46438   0.91177   0.00000  Uiso   1.00
C1073  C     0.26810   0.50880   0.58211   0.00000  Uiso   1.00
C1074  C     0.14311   0.50827   0.91316   0.00000  Uiso   1.00
C1075  C     0.18375   0.50514   0.58760   0.00000  Uiso   1.00
C1076  C     0.14130   0.48837   0.95421   0.00000  Uiso   1.00
C1077  C     0.20087   0.49838   0.53921   0.00000  Uiso   1.00
C1078  C     0.10016   0.46242   0.97911   0.00000  Uiso   1.00
C1079  C     0.12681   0.46053   0.54402   0.00000  Uiso   1.00
C1080  C     0.25013   0.50848   0.51087   0.00000  Uiso   1.00
C1081  C     0.17872   0.49438   0.97173   0.00000  Uiso   1.00
C1082  C     0.16820   0.48508   0.51880   0.00000  Uiso   1.00
C1083  C     0.11972   0.55195   0.60501   0.00000  Uiso   1.00
C1084  C     0.11752   0.58131   0.64478   0.00000  Uiso   1.00
C1085  C     0.09989   0.62460   0.63819   0.00000  Uiso   1.00
C1086  C     0.14669   0.57844   0.90012   0.00000  Uiso   1.00
C1087  C     0.18136   0.61406   0.87532   0.00000  Uiso   1.00
C1088  C     0.15318   0.65444   0.87766   0.00000  Uiso   1.00
C1089  C     0.22725   0.50662   0.94315   0.00000  Uiso   1.00
C1090  C     0.09354   0.44810   0.52439   0.00000  Uiso   1.00
C1091  C     0.26329   0.51283   0.96196   0.00000  Uiso   1.00
C1092  C     0.20959   0.64533   0.74555   0.00000  Uiso   1.00
C1093  C     0.12324   0.35464   0.75583   0.00000  Uiso   1.00
C1094  C     0.20957   0.35458   0.74564   0.00000  Uiso   1.00
H1095  H     0.12168   0.44870   0.57840   0.00000  Uiso   1.00
H1096  H     0.26848   0.54355   0.80568   0.00000  Uiso   1.00
H1097  H     0.05490   0.41615   0.58052   0.00000  Uiso   1.00
H1098  H     0.31280   0.52780   0.90062   0.00000  Uiso   1.00
H1099  H     0.08230   0.54963   0.60455   0.00000  Uiso   1.00
H1100  H     0.14388   0.56546   0.57042   0.00000  Uiso   1.00
H1101  H     0.09182   0.56843   0.67886   0.00000  Uiso   1.00
H1102  H     0.15467   0.58394   0.64580   0.00000  Uiso   1.00
H1103  H     0.12543   0.63845   0.60464   0.00000  Uiso   1.00
H1104  H     0.09876   0.64506   0.66752   0.00000  Uiso   1.00
H1105  H     0.06232   0.62291   0.63803   0.00000  Uiso   1.00
H1106  H     0.23882   0.50848   0.90549   0.00000  Uiso   1.00
H1107  H     0.12781   0.58605   0.93814   0.00000  Uiso   1.00
H1108  H     0.11868   0.57542   0.88434   0.00000  Uiso   1.00
H1109  H     0.20825   0.61893   0.89197   0.00000  Uiso   1.00
H1110  H     0.20208   0.60567   0.83788   0.00000  Uiso   1.00
H1111  H     0.12695   0.65049   0.86015   0.00000  Uiso   1.00
H1112  H     0.17948   0.34625   0.85941   0.00000  Uiso   1.00
H1113  H     0.13263   0.66381   0.91478   0.00000  Uiso   1.00
H1114  H     0.33328   0.49769   0.58112   0.00000  Uiso   1.00
H1115  H     0.03889   0.46971   0.87295   0.00000  Uiso   1.00
H1116  H     0.00415   0.42524   0.96563   0.00000  Uiso   1.00
H1117  H     0.24327   0.62913   0.74143   0.00000  Uiso   1.00
H1118  H     0.01216   0.54194   0.52548   0.00000  Uiso   1.00
H1119  H     0.08956   0.37084   0.75996   0.00000  Uiso   1.00
H1120  H     0.24324   0.37072   0.74154   0.00000  Uiso   1.00
H1121  H     0.08958   0.62920   0.75991   0.00000  Uiso   1.00
H1122  H     0.31388   0.45668   0.69413   0.00000  Uiso   1.00
H1123  H     0.01954   0.54349   0.80569   0.00000  Uiso   1.00
H1124  H     0.06491   0.45657   0.69422   0.00000  Uiso   1.00
N1125  N     0.04759   0.50001   0.75001   0.00000  Uiso   1.00
N1126  N     0.28574   0.49999   0.74999   0.00000  Uiso   1.00
O1127  O     0.12846   0.56108   0.75001   0.00000  Uiso   1.00
O1128  O     0.31064   0.52425   0.93323   0.00000  Uiso   1.00
O1129  O     0.13378   0.51149   0.61333   0.00000  Uiso   1.00
O1130  O     0.17458   0.54159   0.89452   0.00000  Uiso   1.00
O1131  O     0.30104   0.50759   0.60393   0.00000  Uiso   1.00
O1132  O     0.04899   0.44705   0.88890   0.00000  Uiso   1.00
O1133  O     0.02702   0.42607   0.98208   0.00000  Uiso   1.00
O1134  O     0.33175   0.52650   0.50561   0.00000  Uiso   1.00
O1135  O     0.20488   0.43892   0.75000   0.00000  Uiso   1.00
O1136  O     0.20490   0.56107   0.75000   0.00000  Uiso   1.00
O1137  O     0.12843   0.43893   0.75000   0.00000  Uiso   1.00
O1138  O     0.10661   0.50001   0.81613   0.00000  Uiso   1.00
O1139  O     0.22672   0.49999   0.68388   0.00000  Uiso   1.00
O1140  O     0.18305   0.50000   0.81612   0.00000  Uiso   1.00
O1141  O     0.15028   0.50000   0.68388   0.00000  Uiso   1.00
O1142  O     0.05433   0.42255   0.54934   0.00000  Uiso   1.00
Zn1143 Zn    0.11562   0.50001   0.75000   0.00000  Uiso   1.00
Zn1144 Zn    0.21771   0.49999   0.75000   0.00000  Uiso   1.00
C1145  C     0.49993   0.58006   0.75017   0.00000  Uiso   1.00
C1146  C     0.45658   0.64537   0.75580   0.00000  Uiso   1.00
C1147  C     0.49978   0.37578   0.75060   0.00000  Uiso   1.00
C1148  C     0.49980   0.62419   0.75050   0.00000  Uiso   1.00
C1149  C     0.65532   0.47591   0.71894   0.00000  Uiso   1.00
C1150  C     0.34472   0.52418   0.78097   0.00000  Uiso   1.00
C1151  C     0.36996   0.47588   0.71899   0.00000  Uiso   1.00
C1152  C     0.63007   0.52419   0.78095   0.00000  Uiso   1.00
C1153  C     0.46898   0.49860   0.83821   0.00000  Uiso   1.00
C1154  C     0.53085   0.50152   0.66149   0.00000  Uiso   1.00
C1155  C     0.44885   0.49225   0.88910   0.00000  Uiso   1.00
C1156  C     0.49992   0.41993   0.75018   0.00000  Uiso   1.00
C1157  C     0.55056   0.50520   0.60975   0.00000  Uiso   1.00
C1158  C     0.40037   0.45117   0.95792   0.00000  Uiso   1.00
C1159  C     0.61735   0.51477   0.53268   0.00000  Uiso   1.00
C1160  C     0.40964   0.46438   0.91177   0.00000  Uiso   1.00
C1161  C     0.60143   0.50880   0.58211   0.00000  Uiso   1.00
C1162  C     0.47644   0.50827   0.91316   0.00000  Uiso   1.00
C1163  C     0.51709   0.50514   0.58760   0.00000  Uiso   1.00
C1164  C     0.47463   0.48837   0.95421   0.00000  Uiso   1.00
C1165  C     0.53420   0.49838   0.53921   0.00000  Uiso   1.00
C1166  C     0.43349   0.46242   0.97911   0.00000  Uiso   1.00
C1167  C     0.46015   0.46053   0.54402   0.00000  Uiso   1.00
C1168  C     0.58347   0.50848   0.51087   0.00000  Uiso   1.00
C1169  C     0.51205   0.49438   0.97173   0.00000  Uiso   1.00
C1170  C     0.50153   0.48508   0.51880   0.00000  Uiso   1.00
C1171  C     0.45306   0.55195   0.60501   0.00000  Uiso   1.00
C1172  C     0.45085   0.58131   0.64478   0.00000  Uiso   1.00
C1173  C     0.43322   0.62460   0.63819   0.00000  Uiso   1.00
C1174  C     0.48002   0.57844   0.90012   0.00000  Uiso   1.00
C1175  C     0.51469   0.61406   0.87532   0.00000  Uiso   1.00
C1176  C     0.48652   0.65444   0.87766   0.00000  Uiso   1.00
C1177  C     0.56058   0.50662   0.94315   0.00000  Uiso   1.00
C1178  C     0.42687   0.44810   0.52439   0.00000  Uiso   1.00
C1179  C     0.59662   0.51283   0.96196   0.00000  Uiso   1.00
C1180  C     0.54292   0.64533   0.74555   0.00000  Uiso   1.00
C1181  C     0.45657   0.35464   0.75583   0.00000  Uiso   1.00
C1182  C     0.54290   0.35458   0.74564   0.00000  Uiso   1.00
H1183  H     0.45501   0.44870   0.57840   0.00000  Uiso   1.00
H1184  H     0.60181   0.54355   0.80568   0.00000  Uiso   1.00
H1185  H     0.38823   0.41615   0.58052   0.00000  Uiso   1.00
H1186  H     0.64614   0.52780   0.90062   0.00000  Uiso   1.00
H1187  H     0.41564   0.54963   0.60455   0.00000  Uiso   1.00
H1188  H     0.47721   0.56546   0.57042   0.00000  Uiso   1.00
H1189  H     0.42516   0.56843   0.67886   0.00000  Uiso   1.00
H1190  H     0.48801   0.58394   0.64580   0.00000  Uiso   1.00
H1191  H     0.45876   0.63845   0.60464   0.00000  Uiso   1.00
H1192  H     0.43210   0.64506   0.66752   0.00000  Uiso   1.00
H1193  H     0.39565   0.62291   0.63803   0.00000  Uiso   1.00
H1194  H     0.57215   0.50848   0.90549   0.00000  Uiso   1.00
H1195  H     0.46114   0.58605   0.93814   0.00000  Uiso   1.00
H1196  H     0.45201   0.57542   0.88434   0.00000  Uiso   1.00
H1197  H     0.54159   0.61893   0.89197   0.00000  Uiso   1.00
H1198  H     0.53541   0.60567   0.83788   0.00000  Uiso   1.00
H1199  H     0.46029   0.65049   0.86015   0.00000  Uiso   1.00
H1200  H     0.51281   0.34625   0.85941   0.00000  Uiso   1.00
H1201  H     0.46596   0.66381   0.91478   0.00000  Uiso   1.00
H1202  H     0.66661   0.49769   0.58112   0.00000  Uiso   1.00
H1203  H     0.37222   0.46971   0.87295   0.00000  Uiso   1.00
H1204  H     0.33749   0.42524   0.96563   0.00000  Uiso   1.00
H1205  H     0.57661   0.62913   0.74143   0.00000  Uiso   1.00
H1206  H     0.34549   0.54194   0.52548   0.00000  Uiso   1.00
H1207  H     0.42289   0.37084   0.75996   0.00000  Uiso   1.00
H1208  H     0.57658   0.37072   0.74154   0.00000  Uiso   1.00
H1209  H     0.42292   0.62920   0.75991   0.00000  Uiso   1.00
H1210  H     0.64721   0.45668   0.69413   0.00000  Uiso   1.00
H1211  H     0.35288   0.54349   0.80569   0.00000  Uiso   1.00
H1212  H     0.39824   0.45657   0.69422   0.00000  Uiso   1.00
N1213  N     0.38093   0.50001   0.75001   0.00000  Uiso   1.00
N1214  N     0.61907   0.49999   0.74999   0.00000  Uiso   1.00
O1215  O     0.46179   0.56108   0.75001   0.00000  Uiso   1.00
O1216  O     0.64397   0.52425   0.93323   0.00000  Uiso   1.00
O1217  O     0.46712   0.51149   0.61333   0.00000  Uiso   1.00
O1218  O     0.50791   0.54159   0.89452   0.00000  Uiso   1.00
O1219  O     0.63437   0.50759   0.60393   0.00000  Uiso   1.00
O1220  O     0.38233   0.44705   0.88890   0.00000  Uiso   1.00
O1221  O     0.36036   0.42607   0.98208   0.00000  Uiso   1.00
O1222  O     0.66509   0.52650   0.50561   0.00000  Uiso   1.00
O1223  O     0.53821   0.43892   0.75000   0.00000  Uiso   1.00
O1224  O     0.53823   0.56107   0.75000   0.00000  Uiso   1.00
O1225  O     0.46177   0.43893   0.75000   0.00000  Uiso   1.00
O1226  O     0.43994   0.50001   0.81613   0.00000  Uiso   1.00
O1227  O     0.56006   0.49999   0.68388   0.00000  Uiso   1.00
O1228  O     0.51639   0.50000   0.81612   0.00000  Uiso   1.00
O1229  O     0.48361   0.50000   0.68388   0.00000  Uiso   1.00
O1230  O     0.38766   0.42255   0.54934   0.00000  Uiso   1.00
Zn1231 Zn    0.44896   0.50001   0.75000   0.00000  Uiso   1.00
Zn1232 Zn    0.55104   0.49999   0.75000   0.00000  Uiso   1.00
C1233  C     0.83327   0.58006   0.75017   0.00000  Uiso   1.00
C1234  C     0.78992   0.64537   0.75580   0.00000  Uiso   1.00
C1235  C     0.83311   0.37578   0.75060   0.00000  Uiso   1.00
C1236  C     0.83314   0.62419   0.75050   0.00000  Uiso   1.00
C1237  C     0.98866   0.47591   0.71894   0.00000  Uiso   1.00
C1238  C     0.67805   0.52418   0.78097   0.00000  Uiso   1.00
C1239  C     0.70329   0.47588   0.71899   0.00000  Uiso   1.00
C1240  C     0.96340   0.52419   0.78095   0.00000  Uiso   1.00
C1241  C     0.80231   0.49860   0.83821   0.00000  Uiso   1.00
C1242  C     0.86419   0.50152   0.66149   0.00000  Uiso   1.00
C1243  C     0.78218   0.49225   0.88910   0.00000  Uiso   1.00
C1244  C     0.83326   0.41993   0.75018   0.00000  Uiso   1.00
C1245  C     0.88390   0.50520   0.60975   0.00000  Uiso   1.00
C1246  C     0.73370   0.45117   0.95792   0.00000  Uiso   1.00
C1247  C     0.95068   0.51477   0.53268   0.00000  Uiso   1.00
C1248  C     0.74297   0.46438   0.91177   0.00000  Uiso   1.00
C1249  C     0.93476   0.50880   0.58211   0.00000  Uiso   1.00
C1250  C     0.80977   0.50827   0.91316   0.00000  Uiso   1.00
C1251  C     0.85042   0.50514   0.58760   0.00000  Uiso   1.00
C1252  C     0.80797   0.48837   0.95421   0.00000  Uiso   1.00
C1253  C     0.86754   0.49838   0.53921   0.00000  Uiso   1.00
C1254  C     0.76682   0.46242   0.97911   0.00000  Uiso   1.00
C1255  C     0.79348   0.46053   0.54402   0.00000  Uiso   1.00
C1256  C     0.91680   0.50848   0.51087   0.00000  Uiso   1.00
C1257  C     0.84539   0.49438   0.97173   0.00000  Uiso   1.00
C1258  C     0.83487   0.48508   0.51880   0.00000  Uiso   1.00
C1259  C     0.78639   0.55195   0.60501   0.00000  Uiso   1.00
C1260  C     0.78418   0.58131   0.64478   0.00000  Uiso   1.00
C1261  C     0.76655   0.62460   0.63819   0.00000  Uiso   1.00
C1262  C     0.81335   0.57844   0.90012   0.00000  Uiso   1.00
C1263  C     0.84803   0.61406   0.87532   0.00000  Uiso   1.00
C1264  C     0.81985   0.65444   0.87766   0.00000  Uiso   1.00
C1265  C     0.89391   0.50662   0.94315   0.00000  Uiso   1.00
C1266  C     0.76021   0.44810   0.52439   0.00000  Uiso   1.00
C1267  C     0.92995   0.51283   0.96196   0.00000  Uiso   1.00
C1268  C     0.87626   0.64533   0.74555   0.00000  Uiso   1.00
C1269  C     0.78991   0.35464   0.75583   0.00000  Uiso   1.00
C1270  C     0.87623   0.35458   0.74564   0.00000  Uiso   1.00
H1271  H     0.78834   0.44870   0.57840   0.00000  Uiso   1.00
H1272  H     0.93515   0.54355   0.80568   0.00000  Uiso   1.00
H1273  H     0.72156   0.41615   0.58052   0.00000  Uiso   1.00
H1274  H     0.97947   0.52780   0.90062   0.00000  Uiso   1.00
H1275  H     0.74897   0.54963   0.60455   0.00000  Uiso   1.00
H1276  H     0.81054   0.56546   0.57042   0.00000  Uiso   1.00
H1277  H     0.75849   0.56843   0.67886   0.00000  Uiso   1.00
H1278  H     0.82134   0.58394   0.64580   0.00000  Uiso   1.00
H1279  H     0.79210   0.63845   0.60464   0.00000  Uiso   1.00
H1280  H     0.76543   0.64506   0.66752   0.00000  Uiso   1.00
H1281  H     0.72898   0.62291   0.63803   0.00000  Uiso   1.00
H1282  H     0.90549   0.50848   0.90549   0.00000  Uiso   1.00
H1283  H     0.79447   0.58605   0.93814   0.00000  Uiso   1.00
H1284  H     0.78534   0.57542   0.88434   0.00000  Uiso   1.00
H1285  H     0.87492   0.61893   0.89197   0.00000  Uiso   1.00
H1286  H     0.86874   0.60567   0.83788   0.00000  Uiso   1.00
H1287  H     0.79362   0.65049   0.86015   0.00000  Uiso   1.00
H1288  H     0.84615   0.34625   0.85941   0.00000  Uiso   1.00
H1289  H     0.79929   0.66381   0.91478   0.00000  Uiso   1.00
H1290  H     0.99995   0.49769   0.58112   0.00000  Uiso   1.00
H1291  H     0.70556   0.46971   0.87295   0.00000  Uiso   1.00
H1292  H     0.67082   0.42524   0.96563   0.00000  Uiso   1.00
H1293  H     0.90994   0.62913   0.74143   0.00000  Uiso   1.00
H1294  H     0.67882   0.54194   0.52548   0.00000  Uiso   1.00
H1295  H     0.75623   0.37084   0.75996   0.00000  Uiso   1.00
H1296  H     0.90991   0.37072   0.74154   0.00000  Uiso   1.00
H1297  H     0.75625   0.62920   0.75991   0.00000  Uiso   1.00
H1298  H     0.98055   0.45668   0.69413   0.00000  Uiso   1.00
H1299  H     0.68621   0.54349   0.80569   0.00000  Uiso   1.00
H1300  H     0.73158   0.45657   0.69422   0.00000  Uiso   1.00
N1301  N     0.71426   0.50001   0.75001   0.00000  Uiso   1.00
N1302  N     0.95241   0.49999   0.74999   0.00000  Uiso   1.00
O1303  O     0.79512   0.56108   0.75001   0.00000  Uiso   1.00
O1304  O     0.97730   0.52425   0.93323   0.00000  Uiso   1.00
O1305  O     0.80045   0.51149   0.61333   0.00000  Uiso   1.00
O1306  O     0.84125   0.54159   0.89452   0.00000  Uiso   1.00
O1307  O     0.96770   0.50759   0.60393   0.00000  Uiso   1.00
O1308  O     0.71566   0.44705   0.88890   0.00000  Uiso   1.00
O1309  O     0.69369   0.42607   0.98208   0.00000  Uiso   1.00
O1310  O     0.99842   0.52650   0.50561   0.00000  Uiso   1.00
O1311  O     0.87154   0.43892   0.75000   0.00000  Uiso   1.00
O1312  O     0.87157   0.56107   0.75000   0.00000  Uiso   1.00
O1313  O     0.79510   0.43893   0.75000   0.00000  Uiso   1.00
O1314  O     0.77328   0.50001   0.81613   0.00000  Uiso   1.00
O1315  O     0.89339   0.49999   0.68388   0.00000  Uiso   1.00
O1316  O     0.84972   0.50000   0.81612   0.00000  Uiso   1.00
O1317  O     0.81695   0.50000   0.68388   0.00000  Uiso   1.00
O1318  O     0.72100   0.42255   0.54934   0.00000  Uiso   1.00
Zn1319 Zn    0.78229   0.50001   0.75000   0.00000  Uiso   1.00
Zn1320 Zn    0.88438   0.49999   0.75000   0.00000  Uiso   1.00
C1321  C     0.16660   0.91339   0.75017   0.00000  Uiso   1.00
C1322  C     0.12325   0.97871   0.75580   0.00000  Uiso   1.00
C1323  C     0.16645   0.70911   0.75060   0.00000  Uiso   1.00
C1324  C     0.16647   0.95752   0.75050   0.00000  Uiso   1.00
C1325  C     0.32199   0.80924   0.71894   0.00000  Uiso   1.00
C1326  C     0.01139   0.85751   0.78097   0.00000  Uiso   1.00
C1327  C     0.03663   0.80922   0.71899   0.00000  Uiso   1.00
C1328  C     0.29674   0.85752   0.78095   0.00000  Uiso   1.00
C1329  C     0.13565   0.83193   0.83821   0.00000  Uiso   1.00
C1330  C     0.19752   0.83485   0.66149   0.00000  Uiso   1.00
C1331  C     0.11552   0.82559   0.88910   0.00000  Uiso   1.00
C1332  C     0.16659   0.75327   0.75018   0.00000  Uiso   1.00
C1333  C     0.21723   0.83853   0.60975   0.00000  Uiso   1.00
C1334  C     0.06704   0.78450   0.95792   0.00000  Uiso   1.00
C1335  C     0.28402   0.84811   0.53268   0.00000  Uiso   1.00
C1336  C     0.07631   0.79771   0.91177   0.00000  Uiso   1.00
C1337  C     0.26810   0.84214   0.58211   0.00000  Uiso   1.00
C1338  C     0.14311   0.84160   0.91316   0.00000  Uiso   1.00
C1339  C     0.18375   0.83848   0.58760   0.00000  Uiso   1.00
C1340  C     0.14130   0.82170   0.95421   0.00000  Uiso   1.00
C1341  C     0.20087   0.83171   0.53921   0.00000  Uiso   1.00
C1342  C     0.10016   0.79575   0.97911   0.00000  Uiso   1.00
C1343  C     0.12681   0.79386   0.54402   0.00000  Uiso   1.00
C1344  C     0.25013   0.84181   0.51087   0.00000  Uiso   1.00
C1345  C     0.17872   0.82772   0.97173   0.00000  Uiso   1.00
C1346  C     0.16820   0.81841   0.51880   0.00000  Uiso   1.00
C1347  C     0.11972   0.88528   0.60501   0.00000  Uiso   1.00
C1348  C     0.11752   0.91464   0.64478   0.00000  Uiso   1.00
C1349  C     0.09989   0.95793   0.63819   0.00000  Uiso   1.00
C1350  C     0.14669   0.91177   0.90012   0.00000  Uiso   1.00
C1351  C     0.18136   0.94739   0.87532   0.00000  Uiso   1.00
C1352  C     0.15318   0.98777   0.87766   0.00000  Uiso   1.00
C1353  C     0.22725   0.83996   0.94315   0.00000  Uiso   1.00
C1354  C     0.09354   0.78143   0.52439   0.00000  Uiso   1.00
C1355  C     0.26329   0.84616   0.96196   0.00000  Uiso   1.00
C1356  C     0.20959   0.97866   0.74555   0.00000  Uiso   1.00
C1357  C     0.12324   0.68797   0.75583   0.00000  Uiso   1.00
C1358  C     0.20957   0.68791   0.74564   0.00000  Uiso   1.00
H1359  H     0.12168   0.78203   0.57840   0.00000  Uiso   1.00
H1360  H     0.26848   0.87688   0.80568   0.00000  Uiso   1.00
H1361  H     0.05490   0.74948   0.58052   0.00000  Uiso   1.00
H1362  H     0.31280   0.86113   0.90062   0.00000  Uiso   1.00
H1363  H     0.08230   0.88296   0.60455   0.00000  Uiso   1.00
H1364  H     0.14388   0.89880   0.57042   0.00000  Uiso   1.00
H1365  H     0.09182   0.90176   0.67886   0.00000  Uiso   1.00
H1366  H     0.15467   0.91728   0.64580   0.00000  Uiso   1.00
H1367  H     0.12543   0.97178   0.60464   0.00000  Uiso   1.00
H1368  H     0.09876   0.97839   0.66752   0.00000  Uiso   1.00
H1369  H     0.06232   0.95625   0.63803   0.00000  Uiso   1.00
H1370  H     0.23882   0.84182   0.90549   0.00000  Uiso   1.00
H1371  H     0.12781   0.91938   0.93814   0.00000  Uiso   1.00
H1372  H     0.11868   0.90876   0.88434   0.00000  Uiso   1.00
H1373  H     0.20825   0.95226   0.89197   0.00000  Uiso   1.00
H1374  H     0.20208   0.93901   0.83788   0.00000  Uiso   1.00
H1375  H     0.12695   0.98382   0.86015   0.00000  Uiso   1.00
H1376  H     0.17948   0.67958   0.85941   0.00000  Uiso   1.00
H1377  H     0.13263   0.99714   0.91478   0.00000  Uiso   1.00
H1378  H     0.33328   0.83103   0.58112   0.00000  Uiso   1.00
H1379  H     0.03889   0.80305   0.87295   0.00000  Uiso   1.00
H1380  H     0.00415   0.75857   0.96563   0.00000  Uiso   1.00
H1381  H     0.24327   0.96247   0.74143   0.00000  Uiso   1.00
H1382  H     0.01216   0.87527   0.52548   0.00000  Uiso   1.00
H1383  H     0.08956   0.70417   0.75996   0.00000  Uiso   1.00
H1384  H     0.24324   0.70405   0.74154   0.00000  Uiso   1.00
H1385  H     0.08958   0.96253   0.75991   0.00000  Uiso   1.00
H1386  H     0.31388   0.79001   0.69413   0.00000  Uiso   1.00
H1387  H     0.01954   0.87682   0.80569   0.00000  Uiso   1.00
H1388  H     0.06491   0.78990   0.69422   0.00000  Uiso   1.00
N1389  N     0.04759   0.83334   0.75001   0.00000  Uiso   1.00
N1390  N     0.28574   0.83332   0.74999   0.00000  Uiso   1.00
O1391  O     0.12846   0.89442   0.75001   0.00000  Uiso   1.00
O1392  O     0.31064   0.85758   0.93323   0.00000  Uiso   1.00
O1393  O     0.13378   0.84482   0.61333   0.00000  Uiso   1.00
O1394  O     0.17458   0.87492   0.89452   0.00000  Uiso   1.00
O1395  O     0.30104   0.84092   0.60393   0.00000  Uiso   1.00
O1396  O     0.04899   0.78039   0.88890   0.00000  Uiso   1.00
O1397  O     0.02702   0.75940   0.98208   0.00000  Uiso   1.00
O1398  O     0.33175   0.85984   0.50561   0.00000  Uiso   1.00
O1399  O     0.20488   0.77225   0.75000   0.00000  Uiso   1.00
O1400  O     0.20490   0.89441   0.75000   0.00000  Uiso   1.00
O1401  O     0.12843   0.77226   0.75000   0.00000  Uiso   1.00
O1402  O     0.10661   0.83334   0.81613   0.00000  Uiso   1.00
O1403  O     0.22672   0.83333   0.68388   0.00000  Uiso   1.00
O1404  O     0.18305   0.83333   0.81612   0.00000  Uiso   1.00
O1405  O     0.15028   0.83334   0.68388   0.00000  Uiso   1.00
O1406  O     0.05433   0.75588   0.54934   0.00000  Uiso   1.00
Zn1407 Zn    0.11562   0.83334   0.75000   0.00000  Uiso   1.00
Zn1408 Zn    0.21771   0.83333   0.75000   0.00000  Uiso   1.00
C1409  C     0.49993   0.91339   0.75017   0.00000  Uiso   1.00
C1410  C     0.45658   0.97871   0.75580   0.00000  Uiso   1.00
C1411  C     0.49978   0.70911   0.75060   0.00000  Uiso   1.00
C1412  C     0.49980   0.95752   0.75050   0.00000  Uiso   1.00
C1413  C     0.65532   0.80924   0.71894   0.00000  Uiso   1.00
C1414  C     0.34472   0.85751   0.78097   0.00000  Uiso   1.00
C1415  C     0.36996   0.80922   0.71899   0.00000  Uiso   1.00
C1416  C     0.63007   0.85752   0.78095   0.00000  Uiso   1.00
C1417  C     0.46898   0.83193   0.83821   0.00000  Uiso   1.00
C1418  C     0.53085   0.83485   0.66149   0.00000  Uiso   1.00
C1419  C     0.44885   0.82559   0.88910   0.00000  Uiso   1.00
C1420  C     0.49992   0.75327   0.75018   0.00000  Uiso   1.00
C1421  C     0.55056   0.83853   0.60975   0.00000  Uiso   1.00
C1422  C     0.40037   0.78450   0.95792   0.00000  Uiso   1.00
C1423  C     0.61735   0.84811   0.53268   0.00000  Uiso   1.00
C1424  C     0.40964   0.79771   0.91177   0.00000  Uiso   1.00
C1425  C     0.60143   0.84214   0.58211   0.00000  Uiso   1.00
C1426  C     0.47644   0.84160   0.91316   0.00000  Uiso   1.00
C1427  C     0.51709   0.83848   0.58760   0.00000  Uiso   1.00
C1428  C     0.47463   0.82170   0.95421   0.00000  Uiso   1.00
C1429  C     0.53420   0.83171   0.53921   0.00000  Uiso   1.00
C1430  C     0.43349   0.79575   0.97911   0.00000  Uiso   1.00
C1431  C     0.46015   0.79386   0.54402   0.00000  Uiso   1.00
C1432  C     0.58347   0.84181   0.51087   0.00000  Uiso   1.00
C1433  C     0.51205   0.82772   0.97173   0.00000  Uiso   1.00
C1434  C     0.50153   0.81841   0.51880   0.00000  Uiso   1.00
C1435  C     0.45306   0.88528   0.60501   0.00000  Uiso   1.00
C1436  C     0.45085   0.91464   0.64478   0.00000  Uiso   1.00
C1437  C     0.43322   0.95793   0.63819   0.00000  Uiso   1.00
C1438  C     0.48002   0.91177   0.90012   0.00000  Uiso   1.00
C1439  C     0.51469   0.94739   0.87532   0.00000  Uiso   1.00
C1440  C     0.48652   0.98777   0.87766   0.00000  Uiso   1.00
C1441  C     0.56058   0.83996   0.94315   0.00000  Uiso   1.00
C1442  C     0.42687   0.78143   0.52439   0.00000  Uiso   1.00
C1443  C     0.59662   0.84616   0.96196   0.00000  Uiso   1.00
C1444  C     0.54292   0.97866   0.74555   0.00000  Uiso   1.00
C1445  C     0.45657   0.68797   0.75583   0.00000  Uiso   1.00
C1446  C     0.54290   0.68791   0.74564   0.00000  Uiso   1.00
H1447  H     0.45501   0.78203   0.57840   0.00000  Uiso   1.00
H1448  H     0.60181   0.87688   0.80568   0.00000  Uiso   1.00
H1449  H     0.38823   0.74948   0.58052   0.00000  Uiso   1.00
H1450  H     0.64614   0.86113   0.90062   0.00000  Uiso   1.00
H1451  H     0.41564   0.88296   0.60455   0.00000  Uiso   1.00
H1452  H     0.47721   0.89880   0.57042   0.00000  Uiso   1.00
H1453  H     0.42516   0.90176   0.67886   0.00000  Uiso   1.00
H1454  H     0.48801   0.91728   0.64580   0.00000  Uiso   1.00
H1455  H     0.45876   0.97178   0.60464   0.00000  Uiso   1.00
H1456  H     0.43210   0.97839   0.66752   0.00000  Uiso   1.00
H1457  H     0.39565   0.95625   0.63803   0.00000  Uiso   1.00
H1458  H     0.57215   0.84182   0.90549   0.00000  Uiso   1.00
H1459  H     0.46114   0.91938   0.93814   0.00000  Uiso   1.00
H1460  H     0.45201   0.90876   0.88434   0.00000  Uiso   1.00
H1461  H     0.54159   0.95226   0.89197   0.00000  Uiso   1.00
H1462  H     0.53541   0.93901   0.83788   0.00000  Uiso   1.00
H1463  H     0.46029   0.98382   0.86015   0.00000  Uiso   1.00
H1464  H     0.51281   0.67958   0.85941   0.00000  Uiso   1.00
H1465  H     0.46596   0.99714   0.91478   0.00000  Uiso   1.00
H1466  H     0.66661   0.83103   0.58112   0.00000  Uiso   1.00
H1467  H     0.37222   0.80305   0.87295   0.00000  Uiso   1.00
H1468  H     0.33749   0.75857   0.96563   0.00000  Uiso   1.00
H1469  H     0.57661   0.96247   0.74143   0.00000  Uiso   1.00
H1470  H     0.34549   0.87527   0.52548   0.00000  Uiso   1.00
H1471  H     0.42289   0.70417   0.75996   0.00000  Uiso   1.00
H1472  H     0.57658   0.70405   0.74154   0.00000  Uiso   1.00
H1473  H     0.42292   0.96253   0.75991   0.00000  Uiso   1.00
H1474  H     0.64721   0.79001   0.69413   0.00000  Uiso   1.00
H1475  H     0.35288   0.87682   0.80569   0.00000  Uiso   1.00
H1476  H     0.39824   0.78990   0.69422   0.00000  Uiso   1.00
N1477  N     0.38093   0.83334   0.75001   0.00000  Uiso   1.00
N1478  N     0.61907   0.83332   0.74999   0.00000  Uiso   1.00
O1479  O     0.46179   0.89442   0.75001   0.00000  Uiso   1.00
O1480  O     0.64397   0.85758   0.93323   0.00000  Uiso   1.00
O1481  O     0.46712   0.84482   0.61333   0.00000  Uiso   1.00
O1482  O     0.50791   0.87492   0.89452   0.00000  Uiso   1.00
O1483  O     0.63437   0.84092   0.60393   0.00000  Uiso   1.00
O1484  O     0.38233   0.78039   0.88890   0.00000  Uiso   1.00
O1485  O     0.36036   0.75940   0.98208   0.00000  Uiso   1.00
O1486  O     0.66509   0.85984   0.50561   0.00000  Uiso   1.00
O1487  O     0.53821   0.77225   0.75000   0.00000  Uiso   1.00
O1488  O     0.53823   0.89441   0.75000   0.00000  Uiso   1.00
O1489  O     0.46177   0.77226   0.75000   0.00000  Uiso   1.00
O1490  O     0.43994   0.83334   0.81613   0.00000  Uiso   1.00
O1491  O     0.56006   0.83333   0.68388   0.00000  Uiso   1.00
O1492  O     0.51639   0.83333   0.81612   0.00000  Uiso   1.00
O1493  O     0.48361   0.83334   0.68388   0.00000  Uiso   1.00
O1494  O     0.38766   0.75588   0.54934   0.00000  Uiso   1.00
Zn1495 Zn    0.44896   0.83334   0.75000   0.00000  Uiso   1.00
Zn1496 Zn    0.55104   0.83333   0.75000   0.00000  Uiso   1.00
C1497  C     0.83327   0.91339   0.75017   0.00000  Uiso   1.00
C1498  C     0.78992   0.97871   0.75580   0.00000  Uiso   1.00
C1499  C     0.83311   0.70911   0.75060   0.00000  Uiso   1.00
C1500  C     0.83314   0.95752   0.75050   0.00000  Uiso   1.00
C1501  C     0.98866   0.80924   0.71894   0.00000  Uiso   1.00
C1502  C     0.67805   0.85751   0.78097   0.00000  Uiso   1.00
C1503  C     0.70329   0.80922   0.71899   0.00000  Uiso   1.00
C1504  C     0.96340   0.85752   0.78095   0.00000  Uiso   1.00
C1505  C     0.80231   0.83193   0.83821   0.00000  Uiso   1.00
C1506  C     0.86419   0.83485   0.66149   0.00000  Uiso   1.00
C1507  C     0.78218   0.82559   0.88910   0.00000  Uiso   1.00
C1508  C     0.83326   0.75327   0.75018   0.00000  Uiso   1.00
C1509  C     0.88390   0.83853   0.60975   0.00000  Uiso   1.00
C1510  C     0.73370   0.78450   0.95792   0.00000  Uiso   1.00
C1511  C     0.95068   0.84811   0.53268   0.00000  Uiso   1.00
C1512  C     0.74297   0.79771   0.91177   0.00000  Uiso   1.00
C1513  C     0.93476   0.84214   0.58211   0.00000  Uiso   1.00
C1514  C     0.80977   0.84160   0.91316   0.00000  Uiso   1.00
C1515  C     0.85042   0.83848   0.58760   0.00000  Uiso   1.00
C1516  C     0.80797   0.82170   0.95421   0.00000  Uiso   1.00
C1517  C     0.86754   0.83171   0.53921   0.00000  Uiso   1.00
C1518  C     0.76682   0.79575   0.97911   0.00000  Uiso   1.00
C1519  C     0.79348   0.79386   0.54402   0.00000  Uiso   1.00
C1520  C     0.91680   0.84181   0.51087   0.00000  Uiso   1.00
C1521  C     0.84539   0.82772   0.97173   0.00000  Uiso   1.00
C1522  C     0.83487   0.81841   0.51880   0.00000  Uiso   1.00
C1523  C     0.78639   0.88528   0.60501   0.00000  Uiso   1.00
C1524  C     0.78418   0.91464   0.64478   0.00000  Uiso   1.00
C1525  C     0.76655   0.95793   0.63819   0.00000  Uiso   1.00
C1526  C     0.81335   0.91177   0.90012   0.00000  Uiso   1.00
C1527  C     0.84803   0.94739   0.87532   0.00000  Uiso   1.00
C1528  C     0.81985   0.98777   0.87766   0.00000  Uiso   1.00
C1529  C     0.89391   0.83996   0.94315   0.00000  Uiso   1.00
C1530  C     0.76021   0.78143   0.52439   0.00000  Uiso   1.00
C1531  C     0.92995   0.84616   0.96196   0.00000  Uiso   1.00
C1532  C     0.87626   0.97866   0.74555   0.00000  Uiso   1.00
C1533  C     0.78991   0.68797   0.75583   0.00000  Uiso   1.00
C1534  C     0.87623   0.68791   0.74564   0.00000  Uiso   1.00
H1535  H     0.78834   0.78203   0.57840   0.00000  Uiso   1.00
H1536  H     0.93515   0.87688   0.80568   0.00000  Uiso   1.00
H1537  H     0.72156   0.74948   0.58052   0.00000  Uiso   1.00
H1538  H     0.97947   0.86113   0.90062   0.00000  Uiso   1.00
H1539  H     0.74897   0.88296   0.60455   0.00000  Uiso   1.00
H1540  H     0.81054   0.89880   0.57042   0.00000  Uiso   1.00
H1541  H     0.75849   0.90176   0.67886   0.00000  Uiso   1.00
H1542  H     0.82134   0.91728   0.64580   0.00000  Uiso   1.00
H1543  H     0.79210   0.97178   0.60464   0.00000  Uiso   1.00
H1544  H     0.76543   0.97839   0.66752   0.00000  Uiso   1.00
H1545  H     0.72898   0.95625   0.63803   0.00000  Uiso   1.00
H1546  H     0.90549   0.84182   0.90549   0.00000  Uiso   1.00
H1547  H     0.79447   0.91938   0.93814   0.00000  Uiso   1.00
H1548  H     0.78534   0.90876   0.88434   0.00000  Uiso   1.00
H1549  H     0.87492   0.95226   0.89197   0.00000  Uiso   1.00
H1550  H     0.86874   0.93901   0.83788   0.00000  Uiso   1.00
H1551  H     0.79362   0.98382   0.86015   0.00000  Uiso   1.00
H1552  H     0.84615   0.67958   0.85941   0.00000  Uiso   1.00
H1553  H     0.79929   0.99714   0.91478   0.00000  Uiso   1.00
H1554  H     0.99995   0.83103   0.58112   0.00000  Uiso   1.00
H1555  H     0.70556   0.80305   0.87295   0.00000  Uiso   1.00
H1556  H     0.67082   0.75857   0.96563   0.00000  Uiso   1.00
H1557  H     0.90994   0.96247   0.74143   0.00000  Uiso   1.00
H1558  H     0.67882   0.87527   0.52548   0.00000  Uiso   1.00
H1559  H     0.75623   0.70417   0.75996   0.00000  Uiso   1.00
H1560  H     0.90991   0.70405   0.74154   0.00000  Uiso   1.00
H1561  H     0.75625   0.96253   0.75991   0.00000  Uiso   1.00
H1562  H     0.98055   0.79001   0.69413   0.00000  Uiso   1.00
H1563  H     0.68621   0.87682   0.80569   0.00000  Uiso   1.00
H1564  H     0.73158   0.78990   0.69422   0.00000  Uiso   1.00
N1565  N     0.71426   0.83334   0.75001   0.00000  Uiso   1.00
N1566  N     0.95241   0.83332   0.74999   0.00000  Uiso   1.00
O1567  O     0.79512   0.89442   0.75001   0.00000  Uiso   1.00
O1568  O     0.97730   0.85758   0.93323   0.00000  Uiso   1.00
O1569  O     0.80045   0.84482   0.61333   0.00000  Uiso   1.00
O1570  O     0.84125   0.87492   0.89452   0.00000  Uiso   1.00
O1571  O     0.96770   0.84092   0.60393   0.00000  Uiso   1.00
O1572  O     0.71566   0.78039   0.88890   0.00000  Uiso   1.00
O1573  O     0.69369   0.75940   0.98208   0.00000  Uiso   1.00
O1574  O     0.99842   0.85984   0.50561   0.00000  Uiso   1.00
O1575  O     0.87154   0.77225   0.75000   0.00000  Uiso   1.00
O1576  O     0.87157   0.89441   0.75000   0.00000  Uiso   1.00
O1577  O     0.79510   0.77226   0.75000   0.00000  Uiso   1.00
O1578  O     0.77328   0.83334   0.81613   0.00000  Uiso   1.00
O1579  O     0.89339   0.83333   0.68388   0.00000  Uiso   1.00
O1580  O     0.84972   0.83333   0.81612   0.00000  Uiso   1.00
O1581  O     0.81695   0.83334   0.68388   0.00000  Uiso   1.00
O1582  O     0.72100   0.75588   0.54934   0.00000  Uiso   1.00
Zn1583 Zn    0.78229   0.83334   0.75000   0.00000  Uiso   1.00
Zn1584 Zn    0.88438   0.83333   0.75000   0.00000  Uiso   1.00
loop_
_geom_bond_atom_site_label_1
_geom_bond_atom_site_label_2
_geom_bond_distance
_geom_bond_site_symmetry_2
_ccdc_geom_bond_type
C1     O71     1.281   .     A
C1     C4      1.418   .     S
C1     O80     1.281   .     A
C2     H65     1.084   .     S
C2     C4      1.396   .     A
C2     C301    1.369   .     S
C3     C12     1.419   .     S
C3     C38     1.397   .     A
C3     C37     1.397   .     A
C4     C36     1.397   .     A
C5     N70     1.365   .     A
C5     H66     1.082   .     S
C5     C95     1.415   .     S
C6     N69     1.365   .     A
C6     H67     1.082   .     S
C6     C184    1.415   1_455 S
C7     H68     1.082   .     S
C7     N69     1.366   .     A
C7     C181    1.415   1_455 S
C8     N70     1.367   .     A
C8     H40     1.082   .     S
C8     C94     1.415   .     S
C9     O82     1.286   .     A
C9     C11     1.464   .     S
C9     O84     1.296   .     A
C10    O85     1.293   .     A
C10    O83     1.298   .     A
C10    C13     1.479   .     S
C11    C18     1.397   .     A
C11    C16     1.415   .     A
C12    O79     1.281   .     A
C12    O81     1.281   .     A
C13    C19     1.402   .     A
C13    C17     1.413   .     A
C14    O77     1.384   .     S
C14    C16     1.409   .     A
C14    C22     1.418   .     A
C15    O78     1.381   .     S
C15    C17     1.426   .     A
C15    C24     1.420   .     A
C16    O76     1.379   .     S
C17    O75     1.381   .     S
C18    O74     1.388   .     S
C18    C20     1.403   .     A
C19    C21     1.398   .     A
C19    O73     1.390   .     S
C20    C25     1.418   .     A
C20    C22     1.426   .     A
C21    C26     1.407   .     A
C21    C24     1.412   .     A
C22    C826    1.413   .     S
C23    C26     1.407   .     A
C23    C34     1.398   .     A
C23    H39     1.082   .     S
C24    C827    1.414   1_554 S
C25    C33     1.414   .     A
C25    C818    1.397   .     S
C26    C817    1.397   1_554 S
C27    H44     1.117   .     S
C27    H43     1.111   .     S
C27    C28     1.531   .     S
C27    O73     1.418   .     S
C28    H46     1.111   .     S
C28    C29     1.525   .     S
C28    H45     1.111   .     S
C29    H49     1.111   .     S
C29    H47     1.111   .     S
C29    H48     1.110   .     S
C30    H51     1.115   .     S
C30    C31     1.528   .     S
C30    O74     1.413   .     S
C30    H52     1.115   .     S
C31    C32     1.527   .     S
C31    H53     1.111   .     S
C31    H54     1.112   .     S
C32    H55     1.110   .     S
C32    H57     1.111   .     S
C32    H320    1.110   .     S
C33    H50     1.080   .     S
C33    C35     1.409   .     A
C34    O86     1.383   .     S
C34    C814    1.413   1_554 S
C35    O72     1.382   .     S
C35    C816    1.414   .     S
C36    H61     1.083   .     S
C36    C302    1.369   .     S
C37    H63     1.083   .     S
C37    C530    1.369   1_545 S
C38    H64     1.083   .     S
C38    C564    1.369   1_545 S
H41    O86     0.992   .     S
H42    O72     0.992   .     S
H56    C560    1.110   1_545 S
H58    O75     0.990   .     S
H59    O76     0.988   .     S
H60    O77     0.990   .     S
H62    O254    0.990   1_455 S
N69    Zn87    2.005   .     S
N70    Zn88    2.005   .     S
O71    Zn87    1.999   .     S
O78    H150    0.990   .     S
O79    Zn88    1.999   .     S
O80    Zn88    1.999   .     S
O81    Zn87    1.999   .     S
O82    Zn87    1.956   .     S
O83    Zn88    1.956   .     S
O84    Zn88    1.897   .     S
O85    Zn87    1.897   .     S
C89    O159    1.281   .     A
C89    C92     1.418   .     S
C89    O168    1.281   .     A
C90    H153    1.084   .     S
C90    C92     1.396   .     A
C90    C389    1.369   .     S
C91    C100    1.419   .     S
C91    C126    1.397   .     A
C91    C125    1.397   .     A
C92    C124    1.397   .     A
C93    N158    1.365   .     A
C93    H154    1.082   .     S
C93    C183    1.415   .     S
C94    N157    1.365   .     A
C94    H155    1.082   .     S
C95    H156    1.082   .     S
C95    N157    1.366   .     A
C96    N158    1.367   .     A
C96    H128    1.082   .     S
C96    C182    1.415   .     S
C97    O170    1.286   .     A
C97    C99     1.464   .     S
C97    O172    1.296   .     A
C98    O173    1.293   .     A
C98    O171    1.298   .     A
C98    C101    1.479   .     S
C99    C106    1.397   .     A
C99    C104    1.415   .     A
C100   O167    1.281   .     A
C100   O169    1.281   .     A
C101   C107    1.402   .     A
C101   C105    1.413   .     A
C102   O165    1.384   .     S
C102   C104    1.409   .     A
C102   C110    1.418   .     A
C103   O166    1.381   .     S
C103   C105    1.426   .     A
C103   C112    1.420   .     A
C104   O164    1.379   .     S
C105   O163    1.381   .     S
C106   O162    1.388   .     S
C106   C108    1.403   .     A
C107   C109    1.398   .     A
C107   O161    1.390   .     S
C108   C113    1.418   .     A
C108   C110    1.426   .     A
C109   C114    1.407   .     A
C109   C112    1.412   .     A
C110   C914    1.413   .     S
C111   C114    1.407   .     A
C111   C122    1.398   .     A
C111   H127    1.082   .     S
C112   C915    1.414   1_554 S
C113   C121    1.414   .     A
C113   C906    1.397   .     S
C114   C905    1.397   1_554 S
C115   H132    1.117   .     S
C115   H131    1.111   .     S
C115   C116    1.531   .     S
C115   O161    1.418   .     S
C116   H134    1.111   .     S
C116   C117    1.525   .     S
C116   H133    1.111   .     S
C117   H137    1.111   .     S
C117   H135    1.111   .     S
C117   H136    1.110   .     S
C118   H139    1.115   .     S
C118   C119    1.528   .     S
C118   O162    1.413   .     S
C118   H140    1.115   .     S
C119   C120    1.527   .     S
C119   H141    1.111   .     S
C119   H142    1.112   .     S
C120   H143    1.110   .     S
C120   H145    1.111   .     S
C120   H408    1.110   .     S
C121   H138    1.080   .     S
C121   C123    1.409   .     A
C122   O174    1.383   .     S
C122   C902    1.413   1_554 S
C123   O160    1.382   .     S
C123   C904    1.414   .     S
C124   H149    1.083   .     S
C124   C390    1.369   .     S
C125   H151    1.083   .     S
C125   C618    1.369   1_545 S
C126   H152    1.083   .     S
C126   C652    1.369   1_545 S
H129   O174    0.992   .     S
H130   O160    0.992   .     S
H144   C648    1.110   1_545 S
H146   O163    0.990   .     S
H147   O164    0.988   .     S
H148   O165    0.990   .     S
N157   Zn175   2.005   .     S
N158   Zn176   2.005   .     S
O159   Zn175   1.999   .     S
O166   H238    0.990   .     S
O167   Zn176   1.999   .     S
O168   Zn176   1.999   .     S
O169   Zn175   1.999   .     S
O170   Zn175   1.956   .     S
O171   Zn176   1.956   .     S
O172   Zn176   1.897   .     S
O173   Zn175   1.897   .     S
C177   O247    1.281   .     A
C177   C180    1.418   .     S
C177   O256    1.281   .     A
C178   H241    1.084   .     S
C178   C180    1.396   .     A
C178   C477    1.369   .     S
C179   C188    1.419   .     S
C179   C214    1.397   .     A
C179   C213    1.397   .     A
C180   C212    1.397   .     A
C181   N246    1.365   .     A
C181   H242    1.082   .     S
C181   C7      1.415   1_655 S
C182   N245    1.365   .     A
C182   H243    1.082   .     S
C183   H244    1.082   .     S
C183   N245    1.366   .     A
C184   N246    1.367   .     A
C184   H216    1.082   .     S
C184   C6      1.415   1_655 S
C185   O258    1.286   .     A
C185   C187    1.464   .     S
C185   O260    1.296   .     A
C186   O261    1.293   .     A
C186   O259    1.298   .     A
C186   C189    1.479   .     S
C187   C194    1.397   .     A
C187   C192    1.415   .     A
C188   O255    1.281   .     A
C188   O257    1.281   .     A
C189   C195    1.402   .     A
C189   C193    1.413   .     A
C190   O253    1.384   .     S
C190   C192    1.409   .     A
C190   C198    1.418   .     A
C191   O254    1.381   .     S
C191   C193    1.426   .     A
C191   C200    1.420   .     A
C192   O252    1.379   .     S
C193   O251    1.381   .     S
C194   O250    1.388   .     S
C194   C196    1.403   .     A
C195   C197    1.398   .     A
C195   O249    1.390   .     S
C196   C201    1.418   .     A
C196   C198    1.426   .     A
C197   C202    1.407   .     A
C197   C200    1.412   .     A
C198   C1002   1.413   .     S
C199   C202    1.407   .     A
C199   C210    1.398   .     A
C199   H215    1.082   .     S
C200   C1003   1.414   1_554 S
C201   C209    1.414   .     A
C201   C994    1.397   .     S
C202   C993    1.397   1_554 S
C203   H220    1.117   .     S
C203   H219    1.111   .     S
C203   C204    1.531   .     S
C203   O249    1.418   .     S
C204   H222    1.111   .     S
C204   C205    1.525   .     S
C204   H221    1.111   .     S
C205   H225    1.111   .     S
C205   H223    1.111   .     S
C205   H224    1.110   .     S
C206   H227    1.115   .     S
C206   C207    1.528   .     S
C206   O250    1.413   .     S
C206   H228    1.115   .     S
C207   C208    1.527   .     S
C207   H229    1.111   .     S
C207   H230    1.112   .     S
C208   H231    1.110   .     S
C208   H233    1.111   .     S
C208   H496    1.110   .     S
C209   H226    1.080   .     S
C209   C211    1.409   .     A
C210   O262    1.383   .     S
C210   C990    1.413   1_554 S
C211   O248    1.382   .     S
C211   C992    1.414   .     S
C212   H237    1.083   .     S
C212   C478    1.369   .     S
C213   H239    1.083   .     S
C213   C706    1.369   1_545 S
C214   H240    1.083   .     S
C214   C740    1.369   1_545 S
H217   O262    0.992   .     S
H218   O248    0.992   .     S
H232   C736    1.110   1_545 S
H234   O251    0.990   .     S
H235   O252    0.988   .     S
H236   O253    0.990   .     S
N245   Zn263   2.005   .     S
N246   Zn264   2.005   .     S
O247   Zn263   1.999   .     S
O254   H62     0.990   1_655 S
O255   Zn264   1.999   .     S
O256   Zn264   1.999   .     S
O257   Zn263   1.999   .     S
O258   Zn263   1.956   .     S
O259   Zn264   1.956   .     S
O260   Zn264   1.897   .     S
O261   Zn263   1.897   .     S
C265   O335    1.281   .     A
C265   C268    1.418   .     S
C265   O344    1.281   .     A
C266   H329    1.084   .     S
C266   C268    1.396   .     A
C266   C565    1.369   .     S
C267   C276    1.419   .     S
C267   C302    1.397   .     A
C267   C301    1.397   .     A
C268   C300    1.397   .     A
C269   N334    1.365   .     A
C269   H330    1.082   .     S
C269   C359    1.415   .     S
C270   N333    1.365   .     A
C270   H331    1.082   .     S
C270   C448    1.415   1_455 S
C271   H332    1.082   .     S
C271   N333    1.366   .     A
C271   C445    1.415   1_455 S
C272   N334    1.367   .     A
C272   H304    1.082   .     S
C272   C358    1.415   .     S
C273   O346    1.286   .     A
C273   C275    1.464   .     S
C273   O348    1.296   .     A
C274   O349    1.293   .     A
C274   O347    1.298   .     A
C274   C277    1.479   .     S
C275   C282    1.397   .     A
C275   C280    1.415   .     A
C276   O343    1.281   .     A
C276   O345    1.281   .     A
C277   C283    1.402   .     A
C277   C281    1.413   .     A
C278   O341    1.384   .     S
C278   C280    1.409   .     A
C278   C286    1.418   .     A
C279   O342    1.381   .     S
C279   C281    1.426   .     A
C279   C288    1.420   .     A
C280   O340    1.379   .     S
C281   O339    1.381   .     S
C282   O338    1.388   .     S
C282   C284    1.403   .     A
C283   C285    1.398   .     A
C283   O337    1.390   .     S
C284   C289    1.418   .     A
C284   C286    1.426   .     A
C285   C290    1.407   .     A
C285   C288    1.412   .     A
C286   C1090   1.413   .     S
C287   C290    1.407   .     A
C287   C298    1.398   .     A
C287   H303    1.082   .     S
C288   C1091   1.414   1_554 S
C289   C297    1.414   .     A
C289   C1082   1.397   .     S
C290   C1081   1.397   1_554 S
C291   H308    1.117   .     S
C291   H307    1.111   .     S
C291   C292    1.531   .     S
C291   O337    1.418   .     S
C292   H310    1.111   .     S
C292   C293    1.525   .     S
C292   H309    1.111   .     S
C293   H313    1.111   .     S
C293   H311    1.111   .     S
C293   H312    1.110   .     S
C294   H315    1.115   .     S
C294   C295    1.528   .     S
C294   O338    1.413   .     S
C294   H316    1.115   .     S
C295   C296    1.527   .     S
C295   H317    1.111   .     S
C295   H318    1.112   .     S
C296   H319    1.110   .     S
C296   H321    1.111   .     S
C296   H584    1.110   .     S
C297   H314    1.080   .     S
C297   C299    1.409   .     A
C298   O350    1.383   .     S
C298   C1078   1.413   1_554 S
C299   O336    1.382   .     S
C299   C1080   1.414   .     S
C300   H325    1.083   .     S
C300   C566    1.369   .     S
C301   H327    1.083   .     S
C302   H328    1.083   .     S
H305   O350    0.992   .     S
H306   O336    0.992   .     S
H322   O339    0.990   .     S
H323   O340    0.988   .     S
H324   O341    0.990   .     S
H326   O518    0.990   1_455 S
N333   Zn351   2.005   .     S
N334   Zn352   2.005   .     S
O335   Zn351   1.999   .     S
O342   H414    0.990   .     S
O343   Zn352   1.999   .     S
O344   Zn352   1.999   .     S
O345   Zn351   1.999   .     S
O346   Zn351   1.956   .     S
O347   Zn352   1.956   .     S
O348   Zn352   1.897   .     S
O349   Zn351   1.897   .     S
C353   O423    1.281   .     A
C353   C356    1.418   .     S
C353   O432    1.281   .     A
C354   H417    1.084   .     S
C354   C356    1.396   .     A
C354   C653    1.369   .     S
C355   C364    1.419   .     S
C355   C390    1.397   .     A
C355   C389    1.397   .     A
C356   C388    1.397   .     A
C357   N422    1.365   .     A
C357   H418    1.082   .     S
C357   C447    1.415   .     S
C358   N421    1.365   .     A
C358   H419    1.082   .     S
C359   H420    1.082   .     S
C359   N421    1.366   .     A
C360   N422    1.367   .     A
C360   H392    1.082   .     S
C360   C446    1.415   .     S
C361   O434    1.286   .     A
C361   C363    1.464   .     S
C361   O436    1.296   .     A
C362   O437    1.293   .     A
C362   O435    1.298   .     A
C362   C365    1.479   .     S
C363   C370    1.397   .     A
C363   C368    1.415   .     A
C364   O431    1.281   .     A
C364   O433    1.281   .     A
C365   C371    1.402   .     A
C365   C369    1.413   .     A
C366   O429    1.384   .     S
C366   C368    1.409   .     A
C366   C374    1.418   .     A
C367   O430    1.381   .     S
C367   C369    1.426   .     A
C367   C376    1.420   .     A
C368   O428    1.379   .     S
C369   O427    1.381   .     S
C370   O426    1.388   .     S
C370   C372    1.403   .     A
C371   C373    1.398   .     A
C371   O425    1.390   .     S
C372   C377    1.418   .     A
C372   C374    1.426   .     A
C373   C378    1.407   .     A
C373   C376    1.412   .     A
C374   C1178   1.413   .     S
C375   C378    1.407   .     A
C375   C386    1.398   .     A
C375   H391    1.082   .     S
C376   C1179   1.414   1_554 S
C377   C385    1.414   .     A
C377   C1170   1.397   .     S
C378   C1169   1.397   1_554 S
C379   H396    1.117   .     S
C379   H395    1.111   .     S
C379   C380    1.531   .     S
C379   O425    1.418   .     S
C380   H398    1.111   .     S
C380   C381    1.525   .     S
C380   H397    1.111   .     S
C381   H401    1.111   .     S
C381   H399    1.111   .     S
C381   H400    1.110   .     S
C382   H403    1.115   .     S
C382   C383    1.528   .     S
C382   O426    1.413   .     S
C382   H404    1.115   .     S
C383   C384    1.527   .     S
C383   H405    1.111   .     S
C383   H406    1.112   .     S
C384   H407    1.110   .     S
C384   H409    1.111   .     S
C384   H672    1.110   .     S
C385   H402    1.080   .     S
C385   C387    1.409   .     A
C386   O438    1.383   .     S
C386   C1166   1.413   1_554 S
C387   O424    1.382   .     S
C387   C1168   1.414   .     S
C388   H413    1.083   .     S
C388   C654    1.369   .     S
C389   H415    1.083   .     S
C390   H416    1.083   .     S
H393   O438    0.992   .     S
H394   O424    0.992   .     S
H410   O427    0.990   .     S
H411   O428    0.988   .     S
H412   O429    0.990   .     S
N421   Zn439   2.005   .     S
N422   Zn440   2.005   .     S
O423   Zn439   1.999   .     S
O430   H502    0.990   .     S
O431   Zn440   1.999   .     S
O432   Zn440   1.999   .     S
O433   Zn439   1.999   .     S
O434   Zn439   1.956   .     S
O435   Zn440   1.956   .     S
O436   Zn440   1.897   .     S
O437   Zn439   1.897   .     S
C441   O511    1.281   .     A
C441   C444    1.418   .     S
C441   O520    1.281   .     A
C442   H505    1.084   .     S
C442   C444    1.396   .     A
C442   C741    1.369   .     S
C443   C452    1.419   .     S
C443   C478    1.397   .     A
C443   C477    1.397   .     A
C444   C476    1.397   .     A
C445   N510    1.365   .     A
C445   H506    1.082   .     S
C445   C271    1.415   1_655 S
C446   N509    1.365   .     A
C446   H507    1.082   .     S
C447   H508    1.082   .     S
C447   N509    1.366   .     A
C448   N510    1.367   .     A
C448   H480    1.082   .     S
C448   C270    1.415   1_655 S
C449   O522    1.286   .     A
C449   C451    1.464   .     S
C449   O524    1.296   .     A
C450   O525    1.293   .     A
C450   O523    1.298   .     A
C450   C453    1.479   .     S
C451   C458    1.397   .     A
C451   C456    1.415   .     A
C452   O519    1.281   .     A
C452   O521    1.281   .     A
C453   C459    1.402   .     A
C453   C457    1.413   .     A
C454   O517    1.384   .     S
C454   C456    1.409   .     A
C454   C462    1.418   .     A
C455   O518    1.381   .     S
C455   C457    1.426   .     A
C455   C464    1.420   .     A
C456   O516    1.379   .     S
C457   O515    1.381   .     S
C458   O514    1.388   .     S
C458   C460    1.403   .     A
C459   C461    1.398   .     A
C459   O513    1.390   .     S
C460   C465    1.418   .     A
C460   C462    1.426   .     A
C461   C466    1.407   .     A
C461   C464    1.412   .     A
C462   C1266   1.413   .     S
C463   C466    1.407   .     A
C463   C474    1.398   .     A
C463   H479    1.082   .     S
C464   C1267   1.414   1_554 S
C465   C473    1.414   .     A
C465   C1258   1.397   .     S
C466   C1257   1.397   1_554 S
C467   H484    1.117   .     S
C467   H483    1.111   .     S
C467   C468    1.531   .     S
C467   O513    1.418   .     S
C468   H486    1.111   .     S
C468   C469    1.525   .     S
C468   H485    1.111   .     S
C469   H489    1.111   .     S
C469   H487    1.111   .     S
C469   H488    1.110   .     S
C470   H491    1.115   .     S
C470   C471    1.528   .     S
C470   O514    1.413   .     S
C470   H492    1.115   .     S
C471   C472    1.527   .     S
C471   H493    1.111   .     S
C471   H494    1.112   .     S
C472   H495    1.110   .     S
C472   H497    1.111   .     S
C472   H760    1.110   .     S
C473   H490    1.080   .     S
C473   C475    1.409   .     A
C474   O526    1.383   .     S
C474   C1254   1.413   1_554 S
C475   O512    1.382   .     S
C475   C1256   1.414   .     S
C476   H501    1.083   .     S
C476   C742    1.369   .     S
C477   H503    1.083   .     S
C478   H504    1.083   .     S
H481   O526    0.992   .     S
H482   O512    0.992   .     S
H498   O515    0.990   .     S
H499   O516    0.988   .     S
H500   O517    0.990   .     S
N509   Zn527   2.005   .     S
N510   Zn528   2.005   .     S
O511   Zn527   1.999   .     S
O518   H326    0.990   1_655 S
O519   Zn528   1.999   .     S
O520   Zn528   1.999   .     S
O521   Zn527   1.999   .     S
O522   Zn527   1.956   .     S
O523   Zn528   1.956   .     S
O524   Zn528   1.897   .     S
O525   Zn527   1.897   .     S
C529   O599    1.281   .     A
C529   C532    1.418   .     S
C529   O608    1.281   .     A
C530   H593    1.084   .     S
C530   C532    1.396   .     A
C530   C37     1.369   1_565 S
C531   C540    1.419   .     S
C531   C566    1.397   .     A
C531   C565    1.397   .     A
C532   C564    1.397   .     A
C533   N598    1.365   .     A
C533   H594    1.082   .     S
C533   C623    1.415   .     S
C534   N597    1.365   .     A
C534   H595    1.082   .     S
C534   C712    1.415   1_455 S
C535   H596    1.082   .     S
C535   N597    1.366   .     A
C535   C709    1.415   1_455 S
C536   N598    1.367   .     A
C536   H568    1.082   .     S
C536   C622    1.415   .     S
C537   O610    1.286   .     A
C537   C539    1.464   .     S
C537   O612    1.296   .     A
C538   O613    1.293   .     A
C538   O611    1.298   .     A
C538   C541    1.479   .     S
C539   C546    1.397   .     A
C539   C544    1.415   .     A
C540   O607    1.281   .     A
C540   O609    1.281   .     A
C541   C547    1.402   .     A
C541   C545    1.413   .     A
C542   O605    1.384   .     S
C542   C544    1.409   .     A
C542   C550    1.418   .     A
C543   O606    1.381   .     S
C543   C545    1.426   .     A
C543   C552    1.420   .     A
C544   O604    1.379   .     S
C545   O603    1.381   .     S
C546   O602    1.388   .     S
C546   C548    1.403   .     A
C547   C549    1.398   .     A
C547   O601    1.390   .     S
C548   C553    1.418   .     A
C548   C550    1.426   .     A
C549   C554    1.407   .     A
C549   C552    1.412   .     A
C550   C1354   1.413   .     S
C551   C554    1.407   .     A
C551   C562    1.398   .     A
C551   H567    1.082   .     S
C552   C1355   1.414   1_554 S
C553   C561    1.414   .     A
C553   C1346   1.397   .     S
C554   C1345   1.397   1_554 S
C555   H572    1.117   .     S
C555   H571    1.111   .     S
C555   C556    1.531   .     S
C555   O601    1.418   .     S
C556   H574    1.111   .     S
C556   C557    1.525   .     S
C556   H573    1.111   .     S
C557   H577    1.111   .     S
C557   H575    1.111   .     S
C557   H576    1.110   .     S
C558   H579    1.115   .     S
C558   C559    1.528   .     S
C558   O602    1.413   .     S
C558   H580    1.115   .     S
C559   C560    1.527   .     S
C559   H581    1.111   .     S
C559   H582    1.112   .     S
C560   H583    1.110   .     S
C560   H585    1.111   .     S
C560   H56     1.110   1_565 S
C561   H578    1.080   .     S
C561   C563    1.409   .     A
C562   O614    1.383   .     S
C562   C1342   1.413   1_554 S
C563   O600    1.382   .     S
C563   C1344   1.414   .     S
C564   H589    1.083   .     S
C564   C38     1.369   1_565 S
C565   H591    1.083   .     S
C566   H592    1.083   .     S
H569   O614    0.992   .     S
H570   O600    0.992   .     S
H586   O603    0.990   .     S
H587   O604    0.988   .     S
H588   O605    0.990   .     S
H590   O782    0.990   1_455 S
N597   Zn615   2.005   .     S
N598   Zn616   2.005   .     S
O599   Zn615   1.999   .     S
O606   H678    0.990   .     S
O607   Zn616   1.999   .     S
O608   Zn616   1.999   .     S
O609   Zn615   1.999   .     S
O610   Zn615   1.956   .     S
O611   Zn616   1.956   .     S
O612   Zn616   1.897   .     S
O613   Zn615   1.897   .     S
C617   O687    1.281   .     A
C617   C620    1.418   .     S
C617   O696    1.281   .     A
C618   H681    1.084   .     S
C618   C620    1.396   .     A
C618   C125    1.369   1_565 S
C619   C628    1.419   .     S
C619   C654    1.397   .     A
C619   C653    1.397   .     A
C620   C652    1.397   .     A
C621   N686    1.365   .     A
C621   H682    1.082   .     S
C621   C711    1.415   .     S
C622   N685    1.365   .     A
C622   H683    1.082   .     S
C623   H684    1.082   .     S
C623   N685    1.366   .     A
C624   N686    1.367   .     A
C624   H656    1.082   .     S
C624   C710    1.415   .     S
C625   O698    1.286   .     A
C625   C627    1.464   .     S
C625   O700    1.296   .     A
C626   O701    1.293   .     A
C626   O699    1.298   .     A
C626   C629    1.479   .     S
C627   C634    1.397   .     A
C627   C632    1.415   .     A
C628   O695    1.281   .     A
C628   O697    1.281   .     A
C629   C635    1.402   .     A
C629   C633    1.413   .     A
C630   O693    1.384   .     S
C630   C632    1.409   .     A
C630   C638    1.418   .     A
C631   O694    1.381   .     S
C631   C633    1.426   .     A
C631   C640    1.420   .     A
C632   O692    1.379   .     S
C633   O691    1.381   .     S
C634   O690    1.388   .     S
C634   C636    1.403   .     A
C635   C637    1.398   .     A
C635   O689    1.390   .     S
C636   C641    1.418   .     A
C636   C638    1.426   .     A
C637   C642    1.407   .     A
C637   C640    1.412   .     A
C638   C1442   1.413   .     S
C639   C642    1.407   .     A
C639   C650    1.398   .     A
C639   H655    1.082   .     S
C640   C1443   1.414   1_554 S
C641   C649    1.414   .     A
C641   C1434   1.397   .     S
C642   C1433   1.397   1_554 S
C643   H660    1.117   .     S
C643   H659    1.111   .     S
C643   C644    1.531   .     S
C643   O689    1.418   .     S
C644   H662    1.111   .     S
C644   C645    1.525   .     S
C644   H661    1.111   .     S
C645   H665    1.111   .     S
C645   H663    1.111   .     S
C645   H664    1.110   .     S
C646   H667    1.115   .     S
C646   C647    1.528   .     S
C646   O690    1.413   .     S
C646   H668    1.115   .     S
C647   C648    1.527   .     S
C647   H669    1.111   .     S
C647   H670    1.112   .     S
C648   H671    1.110   .     S
C648   H673    1.111   .     S
C648   H144    1.110   1_565 S
C649   H666    1.080   .     S
C649   C651    1.409   .     A
C650   O702    1.383   .     S
C650   C1430   1.413   1_554 S
C651   O688    1.382   .     S
C651   C1432   1.414   .     S
C652   H677    1.083   .     S
C652   C126    1.369   1_565 S
C653   H679    1.083   .     S
C654   H680    1.083   .     S
H657   O702    0.992   .     S
H658   O688    0.992   .     S
H674   O691    0.990   .     S
H675   O692    0.988   .     S
H676   O693    0.990   .     S
N685   Zn703   2.005   .     S
N686   Zn704   2.005   .     S
O687   Zn703   1.999   .     S
O694   H766    0.990   .     S
O695   Zn704   1.999   .     S
O696   Zn704   1.999   .     S
O697   Zn703   1.999   .     S
O698   Zn703   1.956   .     S
O699   Zn704   1.956   .     S
O700   Zn704   1.897   .     S
O701   Zn703   1.897   .     S
C705   O775    1.281   .     A
C705   C708    1.418   .     S
C705   O784    1.281   .     A
C706   H769    1.084   .     S
C706   C708    1.396   .     A
C706   C213    1.369   1_565 S
C707   C716    1.419   .     S
C707   C742    1.397   .     A
C707   C741    1.397   .     A
C708   C740    1.397   .     A
C709   N774    1.365   .     A
C709   H770    1.082   .     S
C709   C535    1.415   1_655 S
C710   N773    1.365   .     A
C710   H771    1.082   .     S
C711   H772    1.082   .     S
C711   N773    1.366   .     A
C712   N774    1.367   .     A
C712   H744    1.082   .     S
C712   C534    1.415   1_655 S
C713   O786    1.286   .     A
C713   C715    1.464   .     S
C713   O788    1.296   .     A
C714   O789    1.293   .     A
C714   O787    1.298   .     A
C714   C717    1.479   .     S
C715   C722    1.397   .     A
C715   C720    1.415   .     A
C716   O783    1.281   .     A
C716   O785    1.281   .     A
C717   C723    1.402   .     A
C717   C721    1.413   .     A
C718   O781    1.384   .     S
C718   C720    1.409   .     A
C718   C726    1.418   .     A
C719   O782    1.381   .     S
C719   C721    1.426   .     A
C719   C728    1.420   .     A
C720   O780    1.379   .     S
C721   O779    1.381   .     S
C722   O778    1.388   .     S
C722   C724    1.403   .     A
C723   C725    1.398   .     A
C723   O777    1.390   .     S
C724   C729    1.418   .     A
C724   C726    1.426   .     A
C725   C730    1.407   .     A
C725   C728    1.412   .     A
C726   C1530   1.413   .     S
C727   C730    1.407   .     A
C727   C738    1.398   .     A
C727   H743    1.082   .     S
C728   C1531   1.414   1_554 S
C729   C737    1.414   .     A
C729   C1522   1.397   .     S
C730   C1521   1.397   1_554 S
C731   H748    1.117   .     S
C731   H747    1.111   .     S
C731   C732    1.531   .     S
C731   O777    1.418   .     S
C732   H750    1.111   .     S
C732   C733    1.525   .     S
C732   H749    1.111   .     S
C733   H753    1.111   .     S
C733   H751    1.111   .     S
C733   H752    1.110   .     S
C734   H755    1.115   .     S
C734   C735    1.528   .     S
C734   O778    1.413   .     S
C734   H756    1.115   .     S
C735   C736    1.527   .     S
C735   H757    1.111   .     S
C735   H758    1.112   .     S
C736   H759    1.110   .     S
C736   H761    1.111   .     S
C736   H232    1.110   1_565 S
C737   H754    1.080   .     S
C737   C739    1.409   .     A
C738   O790    1.383   .     S
C738   C1518   1.413   1_554 S
C739   O776    1.382   .     S
C739   C1520   1.414   .     S
C740   H765    1.083   .     S
C740   C214    1.369   1_565 S
C741   H767    1.083   .     S
C742   H768    1.083   .     S
H745   O790    0.992   .     S
H746   O776    0.992   .     S
H762   O779    0.990   .     S
H763   O780    0.988   .     S
H764   O781    0.990   .     S
N773   Zn791   2.005   .     S
N774   Zn792   2.005   .     S
O775   Zn791   1.999   .     S
O782   H590    0.990   1_655 S
O783   Zn792   1.999   .     S
O784   Zn792   1.999   .     S
O785   Zn791   1.999   .     S
O786   Zn791   1.956   .     S
O787   Zn792   1.956   .     S
O788   Zn792   1.897   .     S
O789   Zn791   1.897   .     S
C793   O863    1.281   .     A
C793   C796    1.418   .     S
C793   O872    1.281   .     A
C794   H857    1.084   .     S
C794   C796    1.396   .     A
C794   C1093   1.369   .     S
C795   C804    1.419   .     S
C795   C830    1.397   .     A
C795   C829    1.397   .     A
C796   C828    1.397   .     A
C797   N862    1.365   .     A
C797   H858    1.082   .     S
C797   C887    1.415   .     S
C798   N861    1.365   .     A
C798   H859    1.082   .     S
C798   C976    1.415   1_455 S
C799   H860    1.082   .     S
C799   N861    1.366   .     A
C799   C973    1.415   1_455 S
C800   N862    1.367   .     A
C800   H832    1.082   .     S
C800   C886    1.415   .     S
C801   O874    1.286   .     A
C801   C803    1.464   .     S
C801   O876    1.296   .     A
C802   O877    1.293   .     A
C802   O875    1.298   .     A
C802   C805    1.479   .     S
C803   C810    1.397   .     A
C803   C808    1.415   .     A
C804   O871    1.281   .     A
C804   O873    1.281   .     A
C805   C811    1.402   .     A
C805   C809    1.413   .     A
C806   O869    1.384   .     S
C806   C808    1.409   .     A
C806   C814    1.418   .     A
C807   O870    1.381   .     S
C807   C809    1.426   .     A
C807   C816    1.420   .     A
C808   O868    1.379   .     S
C809   O867    1.381   .     S
C810   O866    1.388   .     S
C810   C812    1.403   .     A
C811   C813    1.398   .     A
C811   O865    1.390   .     S
C812   C817    1.418   .     A
C812   C814    1.426   .     A
C813   C818    1.407   .     A
C813   C816    1.412   .     A
C814   C34     1.413   1_556 S
C815   C818    1.407   .     A
C815   C826    1.398   .     A
C815   H831    1.082   .     S
C817   C825    1.414   .     A
C817   C26     1.397   1_556 S
C819   H836    1.117   .     S
C819   H835    1.111   .     S
C819   C820    1.531   .     S
C819   O865    1.418   .     S
C820   H838    1.111   .     S
C820   C821    1.525   .     S
C820   H837    1.111   .     S
C821   H841    1.111   .     S
C821   H839    1.111   .     S
C821   H840    1.110   .     S
C822   H843    1.115   .     S
C822   C823    1.528   .     S
C822   O866    1.413   .     S
C822   H844    1.115   .     S
C823   C824    1.527   .     S
C823   H845    1.111   .     S
C823   H846    1.112   .     S
C824   H847    1.110   .     S
C824   H849    1.111   .     S
C824   H1112   1.110   .     S
C825   H842    1.080   .     S
C825   C827    1.409   .     A
C826   O878    1.383   .     S
C827   O864    1.382   .     S
C827   C24     1.414   1_556 S
C828   H853    1.083   .     S
C828   C1094   1.369   .     S
C829   H855    1.083   .     S
C829   C1322   1.369   1_545 S
C830   H856    1.083   .     S
C830   C1356   1.369   1_545 S
H833   O878    0.992   .     S
H834   O864    0.992   .     S
H848   C1352   1.110   1_545 S
H850   O867    0.990   .     S
H851   O868    0.988   .     S
H852   O869    0.990   .     S
H854   O1046   0.990   1_455 S
N861   Zn879   2.005   .     S
N862   Zn880   2.005   .     S
O863   Zn879   1.999   .     S
O870   H942    0.990   .     S
O871   Zn880   1.999   .     S
O872   Zn880   1.999   .     S
O873   Zn879   1.999   .     S
O874   Zn879   1.956   .     S
O875   Zn880   1.956   .     S
O876   Zn880   1.897   .     S
O877   Zn879   1.897   .     S
C881   O951    1.281   .     A
C881   C884    1.418   .     S
C881   O960    1.281   .     A
C882   H945    1.084   .     S
C882   C884    1.396   .     A
C882   C1181   1.369   .     S
C883   C892    1.419   .     S
C883   C918    1.397   .     A
C883   C917    1.397   .     A
C884   C916    1.397   .     A
C885   N950    1.365   .     A
C885   H946    1.082   .     S
C885   C975    1.415   .     S
C886   N949    1.365   .     A
C886   H947    1.082   .     S
C887   H948    1.082   .     S
C887   N949    1.366   .     A
C888   N950    1.367   .     A
C888   H920    1.082   .     S
C888   C974    1.415   .     S
C889   O962    1.286   .     A
C889   C891    1.464   .     S
C889   O964    1.296   .     A
C890   O965    1.293   .     A
C890   O963    1.298   .     A
C890   C893    1.479   .     S
C891   C898    1.397   .     A
C891   C896    1.415   .     A
C892   O959    1.281   .     A
C892   O961    1.281   .     A
C893   C899    1.402   .     A
C893   C897    1.413   .     A
C894   O957    1.384   .     S
C894   C896    1.409   .     A
C894   C902    1.418   .     A
C895   O958    1.381   .     S
C895   C897    1.426   .     A
C895   C904    1.420   .     A
C896   O956    1.379   .     S
C897   O955    1.381   .     S
C898   O954    1.388   .     S
C898   C900    1.403   .     A
C899   C901    1.398   .     A
C899   O953    1.390   .     S
C900   C905    1.418   .     A
C900   C902    1.426   .     A
C901   C906    1.407   .     A
C901   C904    1.412   .     A
C902   C122    1.413   1_556 S
C903   C906    1.407   .     A
C903   C914    1.398   .     A
C903   H919    1.082   .     S
C905   C913    1.414   .     A
C905   C114    1.397   1_556 S
C907   H924    1.117   .     S
C907   H923    1.111   .     S
C907   C908    1.531   .     S
C907   O953    1.418   .     S
C908   H926    1.111   .     S
C908   C909    1.525   .     S
C908   H925    1.111   .     S
C909   H929    1.111   .     S
C909   H927    1.111   .     S
C909   H928    1.110   .     S
C910   H931    1.115   .     S
C910   C911    1.528   .     S
C910   O954    1.413   .     S
C910   H932    1.115   .     S
C911   C912    1.527   .     S
C911   H933    1.111   .     S
C911   H934    1.112   .     S
C912   H935    1.110   .     S
C912   H937    1.111   .     S
C912   H1200   1.110   .     S
C913   H930    1.080   .     S
C913   C915    1.409   .     A
C914   O966    1.383   .     S
C915   O952    1.382   .     S
C915   C112    1.414   1_556 S
C916   H941    1.083   .     S
C916   C1182   1.369   .     S
C917   H943    1.083   .     S
C917   C1410   1.369   1_545 S
C918   H944    1.083   .     S
C918   C1444   1.369   1_545 S
H921   O966    0.992   .     S
H922   O952    0.992   .     S
H936   C1440   1.110   1_545 S
H938   O955    0.990   .     S
H939   O956    0.988   .     S
H940   O957    0.990   .     S
N949   Zn967   2.005   .     S
N950   Zn968   2.005   .     S
O951   Zn967   1.999   .     S
O958   H1030   0.990   .     S
O959   Zn968   1.999   .     S
O960   Zn968   1.999   .     S
O961   Zn967   1.999   .     S
O962   Zn967   1.956   .     S
O963   Zn968   1.956   .     S
O964   Zn968   1.897   .     S
O965   Zn967   1.897   .     S
C969   O1039   1.281   .     A
C969   C972    1.418   .     S
C969   O1048   1.281   .     A
C970   H1033   1.084   .     S
C970   C972    1.396   .     A
C970   C1269   1.369   .     S
C971   C980    1.419   .     S
C971   C1006   1.397   .     A
C971   C1005   1.397   .     A
C972   C1004   1.397   .     A
C973   N1038   1.365   .     A
C973   H1034   1.082   .     S
C973   C799    1.415   1_655 S
C974   N1037   1.365   .     A
C974   H1035   1.082   .     S
C975   H1036   1.082   .     S
C975   N1037   1.366   .     A
C976   N1038   1.367   .     A
C976   H1008   1.082   .     S
C976   C798    1.415   1_655 S
C977   O1050   1.286   .     A
C977   C979    1.464   .     S
C977   O1052   1.296   .     A
C978   O1053   1.293   .     A
C978   O1051   1.298   .     A
C978   C981    1.479   .     S
C979   C986    1.397   .     A
C979   C984    1.415   .     A
C980   O1047   1.281   .     A
C980   O1049   1.281   .     A
C981   C987    1.402   .     A
C981   C985    1.413   .     A
C982   O1045   1.384   .     S
C982   C984    1.409   .     A
C982   C990    1.418   .     A
C983   O1046   1.381   .     S
C983   C985    1.426   .     A
C983   C992    1.420   .     A
C984   O1044   1.379   .     S
C985   O1043   1.381   .     S
C986   O1042   1.388   .     S
C986   C988    1.403   .     A
C987   C989    1.398   .     A
C987   O1041   1.390   .     S
C988   C993    1.418   .     A
C988   C990    1.426   .     A
C989   C994    1.407   .     A
C989   C992    1.412   .     A
C990   C210    1.413   1_556 S
C991   C994    1.407   .     A
C991   C1002   1.398   .     A
C991   H1007   1.082   .     S
C993   C1001   1.414   .     A
C993   C202    1.397   1_556 S
C995   H1012   1.117   .     S
C995   H1011   1.111   .     S
C995   C996    1.531   .     S
C995   O1041   1.418   .     S
C996   H1014   1.111   .     S
C996   C997    1.525   .     S
C996   H1013   1.111   .     S
C997   H1017   1.111   .     S
C997   H1015   1.111   .     S
C997   H1016   1.110   .     S
C998   H1019   1.115   .     S
C998   C999    1.528   .     S
C998   O1042   1.413   .     S
C998   H1020   1.115   .     S
C999   C1000   1.527   .     S
C999   H1021   1.111   .     S
C999   H1022   1.112   .     S
C1000  H1023   1.110   .     S
C1000  H1025   1.111   .     S
C1000  H1288   1.110   .     S
C1001  H1018   1.080   .     S
C1001  C1003   1.409   .     A
C1002  O1054   1.383   .     S
C1003  O1040   1.382   .     S
C1003  C200    1.414   1_556 S
C1004  H1029   1.083   .     S
C1004  C1270   1.369   .     S
C1005  H1031   1.083   .     S
C1005  C1498   1.369   1_545 S
C1006  H1032   1.083   .     S
C1006  C1532   1.369   1_545 S
H1009  O1054   0.992   .     S
H1010  O1040   0.992   .     S
H1024  C1528   1.110   1_545 S
H1026  O1043   0.990   .     S
H1027  O1044   0.988   .     S
H1028  O1045   0.990   .     S
N1037  Zn1055  2.005   .     S
N1038  Zn1056  2.005   .     S
O1039  Zn1055  1.999   .     S
O1046  H854    0.990   1_655 S
O1047  Zn1056  1.999   .     S
O1048  Zn1056  1.999   .     S
O1049  Zn1055  1.999   .     S
O1050  Zn1055  1.956   .     S
O1051  Zn1056  1.956   .     S
O1052  Zn1056  1.897   .     S
O1053  Zn1055  1.897   .     S
C1057  O1127   1.281   .     A
C1057  C1060   1.418   .     S
C1057  O1136   1.281   .     A
C1058  H1121   1.084   .     S
C1058  C1060   1.396   .     A
C1058  C1357   1.369   .     S
C1059  C1068   1.419   .     S
C1059  C1094   1.397   .     A
C1059  C1093   1.397   .     A
C1060  C1092   1.397   .     A
C1061  N1126   1.365   .     A
C1061  H1122   1.082   .     S
C1061  C1151   1.415   .     S
C1062  N1125   1.365   .     A
C1062  H1123   1.082   .     S
C1062  C1240   1.415   1_455 S
C1063  H1124   1.082   .     S
C1063  N1125   1.366   .     A
C1063  C1237   1.415   1_455 S
C1064  N1126   1.367   .     A
C1064  H1096   1.082   .     S
C1064  C1150   1.415   .     S
C1065  O1138   1.286   .     A
C1065  C1067   1.464   .     S
C1065  O1140   1.296   .     A
C1066  O1141   1.293   .     A
C1066  O1139   1.298   .     A
C1066  C1069   1.479   .     S
C1067  C1074   1.397   .     A
C1067  C1072   1.415   .     A
C1068  O1135   1.281   .     A
C1068  O1137   1.281   .     A
C1069  C1075   1.402   .     A
C1069  C1073   1.413   .     A
C1070  O1133   1.384   .     S
C1070  C1072   1.409   .     A
C1070  C1078   1.418   .     A
C1071  O1134   1.381   .     S
C1071  C1073   1.426   .     A
C1071  C1080   1.420   .     A
C1072  O1132   1.379   .     S
C1073  O1131   1.381   .     S
C1074  O1130   1.388   .     S
C1074  C1076   1.403   .     A
C1075  C1077   1.398   .     A
C1075  O1129   1.390   .     S
C1076  C1081   1.418   .     A
C1076  C1078   1.426   .     A
C1077  C1082   1.407   .     A
C1077  C1080   1.412   .     A
C1078  C298    1.413   1_556 S
C1079  C1082   1.407   .     A
C1079  C1090   1.398   .     A
C1079  H1095   1.082   .     S
C1081  C1089   1.414   .     A
C1081  C290    1.397   1_556 S
C1083  H1100   1.117   .     S
C1083  H1099   1.111   .     S
C1083  C1084   1.531   .     S
C1083  O1129   1.418   .     S
C1084  H1102   1.111   .     S
C1084  C1085   1.525   .     S
C1084  H1101   1.111   .     S
C1085  H1105   1.111   .     S
C1085  H1103   1.111   .     S
C1085  H1104   1.110   .     S
C1086  H1107   1.115   .     S
C1086  C1087   1.528   .     S
C1086  O1130   1.413   .     S
C1086  H1108   1.115   .     S
C1087  C1088   1.527   .     S
C1087  H1109   1.111   .     S
C1087  H1110   1.112   .     S
C1088  H1111   1.110   .     S
C1088  H1113   1.111   .     S
C1088  H1376   1.110   .     S
C1089  H1106   1.080   .     S
C1089  C1091   1.409   .     A
C1090  O1142   1.383   .     S
C1091  O1128   1.382   .     S
C1091  C288    1.414   1_556 S
C1092  H1117   1.083   .     S
C1092  C1358   1.369   .     S
C1093  H1119   1.083   .     S
C1094  H1120   1.083   .     S
H1097  O1142   0.992   .     S
H1098  O1128   0.992   .     S
H1114  O1131   0.990   .     S
H1115  O1132   0.988   .     S
H1116  O1133   0.990   .     S
H1118  O1310   0.990   1_455 S
N1125  Zn1143  2.005   .     S
N1126  Zn1144  2.005   .     S
O1127  Zn1143  1.999   .     S
O1134  H1206   0.990   .     S
O1135  Zn1144  1.999   .     S
O1136  Zn1144  1.999   .     S
O1137  Zn1143  1.999   .     S
O1138  Zn1143  1.956   .     S
O1139  Zn1144  1.956   .     S
O1140  Zn1144  1.897   .     S
O1141  Zn1143  1.897   .     S
C1145  O1215   1.281   .     A
C1145  C1148   1.418   .     S
C1145  O1224   1.281   .     A
C1146  H1209   1.084   .     S
C1146  C1148   1.396   .     A
C1146  C1445   1.369   .     S
C1147  C1156   1.419   .     S
C1147  C1182   1.397   .     A
C1147  C1181   1.397   .     A
C1148  C1180   1.397   .     A
C1149  N1214   1.365   .     A
C1149  H1210   1.082   .     S
C1149  C1239   1.415   .     S
C1150  N1213   1.365   .     A
C1150  H1211   1.082   .     S
C1151  H1212   1.082   .     S
C1151  N1213   1.366   .     A
C1152  N1214   1.367   .     A
C1152  H1184   1.082   .     S
C1152  C1238   1.415   .     S
C1153  O1226   1.286   .     A
C1153  C1155   1.464   .     S
C1153  O1228   1.296   .     A
C1154  O1229   1.293   .     A
C1154  O1227   1.298   .     A
C1154  C1157   1.479   .     S
C1155  C1162   1.397   .     A
C1155  C1160   1.415   .     A
C1156  O1223   1.281   .     A
C1156  O1225   1.281   .     A
C1157  C1163   1.402   .     A
C1157  C1161   1.413   .     A
C1158  O1221   1.384   .     S
C1158  C1160   1.409   .     A
C1158  C1166   1.418   .     A
C1159  O1222   1.381   .     S
C1159  C1161   1.426   .     A
C1159  C1168   1.420   .     A
C1160  O1220   1.379   .     S
C1161  O1219   1.381   .     S
C1162  O1218   1.388   .     S
C1162  C1164   1.403   .     A
C1163  C1165   1.398   .     A
C1163  O1217   1.390   .     S
C1164  C1169   1.418   .     A
C1164  C1166   1.426   .     A
C1165  C1170   1.407   .     A
C1165  C1168   1.412   .     A
C1166  C386    1.413   1_556 S
C1167  C1170   1.407   .     A
C1167  C1178   1.398   .     A
C1167  H1183   1.082   .     S
C1169  C1177   1.414   .     A
C1169  C378    1.397   1_556 S
C1171  H1188   1.117   .     S
C1171  H1187   1.111   .     S
C1171  C1172   1.531   .     S
C1171  O1217   1.418   .     S
C1172  H1190   1.111   .     S
C1172  C1173   1.525   .     S
C1172  H1189   1.111   .     S
C1173  H1193   1.111   .     S
C1173  H1191   1.111   .     S
C1173  H1192   1.110   .     S
C1174  H1195   1.115   .     S
C1174  C1175   1.528   .     S
C1174  O1218   1.413   .     S
C1174  H1196   1.115   .     S
C1175  C1176   1.527   .     S
C1175  H1197   1.111   .     S
C1175  H1198   1.112   .     S
C1176  H1199   1.110   .     S
C1176  H1201   1.111   .     S
C1176  H1464   1.110   .     S
C1177  H1194   1.080   .     S
C1177  C1179   1.409   .     A
C1178  O1230   1.383   .     S
C1179  O1216   1.382   .     S
C1179  C376    1.414   1_556 S
C1180  H1205   1.083   .     S
C1180  C1446   1.369   .     S
C1181  H1207   1.083   .     S
C1182  H1208   1.083   .     S
H1185  O1230   0.992   .     S
H1186  O1216   0.992   .     S
H1202  O1219   0.990   .     S
H1203  O1220   0.988   .     S
H1204  O1221   0.990   .     S
N1213  Zn1231  2.005   .     S
N1214  Zn1232  2.005   .     S
O1215  Zn1231  1.999   .     S
O1222  H1294   0.990   .     S
O1223  Zn1232  1.999   .     S
O1224  Zn1232  1.999   .     S
O1225  Zn1231  1.999   .     S
O1226  Zn1231  1.956   .     S
O1227  Zn1232  1.956   .     S
O1228  Zn1232  1.897   .     S
O1229  Zn1231  1.897   .     S
C1233  O1303   1.281   .     A
C1233  C1236   1.418   .     S
C1233  O1312   1.281   .     A
C1234  H1297   1.084   .     S
C1234  C1236   1.396   .     A
C1234  C1533   1.369   .     S
C1235  C1244   1.419   .     S
C1235  C1270   1.397   .     A
C1235  C1269   1.397   .     A
C1236  C1268   1.397   .     A
C1237  N1302   1.365   .     A
C1237  H1298   1.082   .     S
C1237  C1063   1.415   1_655 S
C1238  N1301   1.365   .     A
C1238  H1299   1.082   .     S
C1239  H1300   1.082   .     S
C1239  N1301   1.366   .     A
C1240  N1302   1.367   .     A
C1240  H1272   1.082   .     S
C1240  C1062   1.415   1_655 S
C1241  O1314   1.286   .     A
C1241  C1243   1.464   .     S
C1241  O1316   1.296   .     A
C1242  O1317   1.293   .     A
C1242  O1315   1.298   .     A
C1242  C1245   1.479   .     S
C1243  C1250   1.397   .     A
C1243  C1248   1.415   .     A
C1244  O1311   1.281   .     A
C1244  O1313   1.281   .     A
C1245  C1251   1.402   .     A
C1245  C1249   1.413   .     A
C1246  O1309   1.384   .     S
C1246  C1248   1.409   .     A
C1246  C1254   1.418   .     A
C1247  O1310   1.381   .     S
C1247  C1249   1.426   .     A
C1247  C1256   1.420   .     A
C1248  O1308   1.379   .     S
C1249  O1307   1.381   .     S
C1250  O1306   1.388   .     S
C1250  C1252   1.403   .     A
C1251  C1253   1.398   .     A
C1251  O1305   1.390   .     S
C1252  C1257   1.418   .     A
C1252  C1254   1.426   .     A
C1253  C1258   1.407   .     A
C1253  C1256   1.412   .     A
C1254  C474    1.413   1_556 S
C1255  C1258   1.407   .     A
C1255  C1266   1.398   .     A
C1255  H1271   1.082   .     S
C1257  C1265   1.414   .     A
C1257  C466    1.397   1_556 S
C1259  H1276   1.117   .     S
C1259  H1275   1.111   .     S
C1259  C1260   1.531   .     S
C1259  O1305   1.418   .     S
C1260  H1278   1.111   .     S
C1260  C1261   1.525   .     S
C1260  H1277   1.111   .     S
C1261  H1281   1.111   .     S
C1261  H1279   1.111   .     S
C1261  H1280   1.110   .     S
C1262  H1283   1.115   .     S
C1262  C1263   1.528   .     S
C1262  O1306   1.413   .     S
C1262  H1284   1.115   .     S
C1263  C1264   1.527   .     S
C1263  H1285   1.111   .     S
C1263  H1286   1.112   .     S
C1264  H1287   1.110   .     S
C1264  H1289   1.111   .     S
C1264  H1552   1.110   .     S
C1265  H1282   1.080   .     S
C1265  C1267   1.409   .     A
C1266  O1318   1.383   .     S
C1267  O1304   1.382   .     S
C1267  C464    1.414   1_556 S
C1268  H1293   1.083   .     S
C1268  C1534   1.369   .     S
C1269  H1295   1.083   .     S
C1270  H1296   1.083   .     S
H1273  O1318   0.992   .     S
H1274  O1304   0.992   .     S
H1290  O1307   0.990   .     S
H1291  O1308   0.988   .     S
H1292  O1309   0.990   .     S
N1301  Zn1319  2.005   .     S
N1302  Zn1320  2.005   .     S
O1303  Zn1319  1.999   .     S
O1310  H1118   0.990   1_655 S
O1311  Zn1320  1.999   .     S
O1312  Zn1320  1.999   .     S
O1313  Zn1319  1.999   .     S
O1314  Zn1319  1.956   .     S
O1315  Zn1320  1.956   .     S
O1316  Zn1320  1.897   .     S
O1317  Zn1319  1.897   .     S
C1321  O1391   1.281   .     A
C1321  C1324   1.418   .     S
C1321  O1400   1.281   .     A
C1322  H1385   1.084   .     S
C1322  C1324   1.396   .     A
C1322  C829    1.369   1_565 S
C1323  C1332   1.419   .     S
C1323  C1358   1.397   .     A
C1323  C1357   1.397   .     A
C1324  C1356   1.397   .     A
C1325  N1390   1.365   .     A
C1325  H1386   1.082   .     S
C1325  C1415   1.415   .     S
C1326  N1389   1.365   .     A
C1326  H1387   1.082   .     S
C1326  C1504   1.415   1_455 S
C1327  H1388   1.082   .     S
C1327  N1389   1.366   .     A
C1327  C1501   1.415   1_455 S
C1328  N1390   1.367   .     A
C1328  H1360   1.082   .     S
C1328  C1414   1.415   .     S
C1329  O1402   1.286   .     A
C1329  C1331   1.464   .     S
C1329  O1404   1.296   .     A
C1330  O1405   1.293   .     A
C1330  O1403   1.298   .     A
C1330  C1333   1.479   .     S
C1331  C1338   1.397   .     A
C1331  C1336   1.415   .     A
C1332  O1399   1.281   .     A
C1332  O1401   1.281   .     A
C1333  C1339   1.402   .     A
C1333  C1337   1.413   .     A
C1334  O1397   1.384   .     S
C1334  C1336   1.409   .     A
C1334  C1342   1.418   .     A
C1335  O1398   1.381   .     S
C1335  C1337   1.426   .     A
C1335  C1344   1.420   .     A
C1336  O1396   1.379   .     S
C1337  O1395   1.381   .     S
C1338  O1394   1.388   .     S
C1338  C1340   1.403   .     A
C1339  C1341   1.398   .     A
C1339  O1393   1.390   .     S
C1340  C1345   1.418   .     A
C1340  C1342   1.426   .     A
C1341  C1346   1.407   .     A
C1341  C1344   1.412   .     A
C1342  C562    1.413   1_556 S
C1343  C1346   1.407   .     A
C1343  C1354   1.398   .     A
C1343  H1359   1.082   .     S
C1345  C1353   1.414   .     A
C1345  C554    1.397   1_556 S
C1347  H1364   1.117   .     S
C1347  H1363   1.111   .     S
C1347  C1348   1.531   .     S
C1347  O1393   1.418   .     S
C1348  H1366   1.111   .     S
C1348  C1349   1.525   .     S
C1348  H1365   1.111   .     S
C1349  H1369   1.111   .     S
C1349  H1367   1.111   .     S
C1349  H1368   1.110   .     S
C1350  H1371   1.115   .     S
C1350  C1351   1.528   .     S
C1350  O1394   1.413   .     S
C1350  H1372   1.115   .     S
C1351  C1352   1.527   .     S
C1351  H1373   1.111   .     S
C1351  H1374   1.112   .     S
C1352  H1375   1.110   .     S
C1352  H1377   1.111   .     S
C1352  H848    1.110   1_565 S
C1353  H1370   1.080   .     S
C1353  C1355   1.409   .     A
C1354  O1406   1.383   .     S
C1355  O1392   1.382   .     S
C1355  C552    1.414   1_556 S
C1356  H1381   1.083   .     S
C1356  C830    1.369   1_565 S
C1357  H1383   1.083   .     S
C1358  H1384   1.083   .     S
H1361  O1406   0.992   .     S
H1362  O1392   0.992   .     S
H1378  O1395   0.990   .     S
H1379  O1396   0.988   .     S
H1380  O1397   0.990   .     S
H1382  O1574   0.990   1_455 S
N1389  Zn1407  2.005   .     S
N1390  Zn1408  2.005   .     S
O1391  Zn1407  1.999   .     S
O1398  H1470   0.990   .     S
O1399  Zn1408  1.999   .     S
O1400  Zn1408  1.999   .     S
O1401  Zn1407  1.999   .     S
O1402  Zn1407  1.956   .     S
O1403  Zn1408  1.956   .     S
O1404  Zn1408  1.897   .     S
O1405  Zn1407  1.897   .     S
C1409  O1479   1.281   .     A
C1409  C1412   1.418   .     S
C1409  O1488   1.281   .     A
C1410  H1473   1.084   .     S
C1410  C1412   1.396   .     A
C1410  C917    1.369   1_565 S
C1411  C1420   1.419   .     S
C1411  C1446   1.397   .     A
C1411  C1445   1.397   .     A
C1412  C1444   1.397   .     A
C1413  N1478   1.365   .     A
C1413  H1474   1.082   .     S
C1413  C1503   1.415   .     S
C1414  N1477   1.365   .     A
C1414  H1475   1.082   .     S
C1415  H1476   1.082   .     S
C1415  N1477   1.366   .     A
C1416  N1478   1.367   .     A
C1416  H1448   1.082   .     S
C1416  C1502   1.415   .     S
C1417  O1490   1.286   .     A
C1417  C1419   1.464   .     S
C1417  O1492   1.296   .     A
C1418  O1493   1.293   .     A
C1418  O1491   1.298   .     A
C1418  C1421   1.479   .     S
C1419  C1426   1.397   .     A
C1419  C1424   1.415   .     A
C1420  O1487   1.281   .     A
C1420  O1489   1.281   .     A
C1421  C1427   1.402   .     A
C1421  C1425   1.413   .     A
C1422  O1485   1.384   .     S
C1422  C1424   1.409   .     A
C1422  C1430   1.418   .     A
C1423  O1486   1.381   .     S
C1423  C1425   1.426   .     A
C1423  C1432   1.420   .     A
C1424  O1484   1.379   .     S
C1425  O1483   1.381   .     S
C1426  O1482   1.388   .     S
C1426  C1428   1.403   .     A
C1427  C1429   1.398   .     A
C1427  O1481   1.390   .     S
C1428  C1433   1.418   .     A
C1428  C1430   1.426   .     A
C1429  C1434   1.407   .     A
C1429  C1432   1.412   .     A
C1430  C650    1.413   1_556 S
C1431  C1434   1.407   .     A
C1431  C1442   1.398   .     A
C1431  H1447   1.082   .     S
C1433  C1441   1.414   .     A
C1433  C642    1.397   1_556 S
C1435  H1452   1.117   .     S
C1435  H1451   1.111   .     S
C1435  C1436   1.531   .     S
C1435  O1481   1.418   .     S
C1436  H1454   1.111   .     S
C1436  C1437   1.525   .     S
C1436  H1453   1.111   .     S
C1437  H1457   1.111   .     S
C1437  H1455   1.111   .     S
C1437  H1456   1.110   .     S
C1438  H1459   1.115   .     S
C1438  C1439   1.528   .     S
C1438  O1482   1.413   .     S
C1438  H1460   1.115   .     S
C1439  C1440   1.527   .     S
C1439  H1461   1.111   .     S
C1439  H1462   1.112   .     S
C1440  H1463   1.110   .     S
C1440  H1465   1.111   .     S
C1440  H936    1.110   1_565 S
C1441  H1458   1.080   .     S
C1441  C1443   1.409   .     A
C1442  O1494   1.383   .     S
C1443  O1480   1.382   .     S
C1443  C640    1.414   1_556 S
C1444  H1469   1.083   .     S
C1444  C918    1.369   1_565 S
C1445  H1471   1.083   .     S
C1446  H1472   1.083   .     S
H1449  O1494   0.992   .     S
H1450  O1480   0.992   .     S
H1466  O1483   0.990   .     S
H1467  O1484   0.988   .     S
H1468  O1485   0.990   .     S
N1477  Zn1495  2.005   .     S
N1478  Zn1496  2.005   .     S
O1479  Zn1495  1.999   .     S
O1486  H1558   0.990   .     S
O1487  Zn1496  1.999   .     S
O1488  Zn1496  1.999   .     S
O1489  Zn1495  1.999   .     S
O1490  Zn1495  1.956   .     S
O1491  Zn1496  1.956   .     S
O1492  Zn1496  1.897   .     S
O1493  Zn1495  1.897   .     S
C1497  O1567   1.281   .     A
C1497  C1500   1.418   .     S
C1497  O1576   1.281   .     A
C1498  H1561   1.084   .     S
C1498  C1500   1.396   .     A
C1498  C1005   1.369   1_565 S
C1499  C1508   1.419   .     S
C1499  C1534   1.397   .     A
C1499  C1533   1.397   .     A
C1500  C1532   1.397   .     A
C1501  N1566   1.365   .     A
C1501  H1562   1.082   .     S
C1501  C1327   1.415   1_655 S
C1502  N1565   1.365   .     A
C1502  H1563   1.082   .     S
C1503  H1564   1.082   .     S
C1503  N1565   1.366   .     A
C1504  N1566   1.367   .     A
C1504  H1536   1.082   .     S
C1504  C1326   1.415   1_655 S
C1505  O1578   1.286   .     A
C1505  C1507   1.464   .     S
C1505  O1580   1.296   .     A
C1506  O1581   1.293   .     A
C1506  O1579   1.298   .     A
C1506  C1509   1.479   .     S
C1507  C1514   1.397   .     A
C1507  C1512   1.415   .     A
C1508  O1575   1.281   .     A
C1508  O1577   1.281   .     A
C1509  C1515   1.402   .     A
C1509  C1513   1.413   .     A
C1510  O1573   1.384   .     S
C1510  C1512   1.409   .     A
C1510  C1518   1.418   .     A
C1511  O1574   1.381   .     S
C1511  C1513   1.426   .     A
C1511  C1520   1.420   .     A
C1512  O1572   1.379   .     S
C1513  O1571   1.381   .     S
C1514  O1570   1.388   .     S
C1514  C1516   1.403   .     A
C1515  C1517   1.398   .     A
C1515  O1569   1.390   .     S
C1516  C1521   1.418   .     A
C1516  C1518   1.426   .     A
C1517  C1522   1.407   .     A
C1517  C1520   1.412   .     A
C1518  C738    1.413   1_556 S
C1519  C1522   1.407   .     A
C1519  C1530   1.398   .     A
C1519  H1535   1.082   .     S
C1521  C1529   1.414   .     A
C1521  C730    1.397   1_556 S
C1523  H1540   1.117   .     S
C1523  H1539   1.111   .     S
C1523  C1524   1.531   .     S
C1523  O1569   1.418   .     S
C1524  H1542   1.111   .     S
C1524  C1525   1.525   .     S
C1524  H1541   1.111   .     S
C1525  H1545   1.111   .     S
C1525  H1543   1.111   .     S
C1525  H1544   1.110   .     S
C1526  H1547   1.115   .     S
C1526  C1527   1.528   .     S
C1526  O1570   1.413   .     S
C1526  H1548   1.115   .     S
C1527  C1528   1.527   .     S
C1527  H1549   1.111   .     S
C1527  H1550   1.112   .     S
C1528  H1551   1.110   .     S
C1528  H1553   1.111   .     S
C1528  H1024   1.110   1_565 S
C1529  H1546   1.080   .     S
C1529  C1531   1.409   .     A
C1530  O1582   1.383   .     S
C1531  O1568   1.382   .     S
C1531  C728    1.414   1_556 S
C1532  H1557   1.083   .     S
C1532  C1006   1.369   1_565 S
C1533  H1559   1.083   .     S
C1534  H1560   1.083   .     S
H1537  O1582   0.992   .     S
H1538  O1568   0.992   .     S
H1554  O1571   0.990   .     S
H1555  O1572   0.988   .     S
H1556  O1573   0.990   .     S
N1565  Zn1583  2.005   .     S
N1566  Zn1584  2.005   .     S
O1567  Zn1583  1.999   .     S
O1574  H1382   0.990   1_655 S
O1575  Zn1584  1.999   .     S
O1576  Zn1584  1.999   .     S
O1577  Zn1583  1.999   .     S
O1578  Zn1583  1.956   .     S
O1579  Zn1584  1.956   .     S
O1580  Zn1584  1.897   .     S
O1581  Zn1583  1.897   .     S
