data_str_m2_o1_o16_pcu_sym.92
_audit_creation_date              2020-01-03
_audit_creation_method            'Materials Studio'
_symmetry_space_group_name_H-M    'P1'
_symmetry_Int_Tables_number       1
_symmetry_cell_setting            triclinic
loop_
_symmetry_equiv_pos_as_xyz
  x,y,z
_cell_length_a                    28.8314
_cell_length_b                    32.3219
_cell_length_c                    26.8531
_cell_angle_alpha                 92.7184
_cell_angle_beta                  72.8526
_cell_angle_gamma                 91.4430
loop_
_atom_site_label
_atom_site_type_symbol
_atom_site_fract_x
_atom_site_fract_y
_atom_site_fract_z
_atom_site_U_iso_or_equiv
_atom_site_adp_type
_atom_site_occupancy
C1     C     0.16700   0.24586   0.25020   0.00000  Uiso   1.00
C2     C     0.12489   0.16261   0.40702   0.00000  Uiso   1.00
C3     C     0.20887   0.31193   0.22302   0.00000  Uiso   1.00
C4     C     0.14062   0.16451   0.34978   0.00000  Uiso   1.00
C5     C     0.20841   0.02142   0.22275   0.00000  Uiso   1.00
C6     C     0.16613   0.04282   0.24971   0.00000  Uiso   1.00
C7     C     0.12455   0.02143   0.27750   0.00000  Uiso   1.00
C8     C     0.12496   0.31193   0.27766   0.00000  Uiso   1.00
C9     C     0.16722   0.29053   0.25062   0.00000  Uiso   1.00
C10    C     0.30304   0.19659   0.27862   0.00000  Uiso   1.00
C11    C     0.01901   0.19597   0.27777   0.00000  Uiso   1.00
C12    C     0.14467   0.16005   0.48940   0.00000  Uiso   1.00
C13    C     0.03028   0.13663   0.22145   0.00000  Uiso   1.00
C14    C     0.31434   0.13748   0.22204   0.00000  Uiso   1.00
C15    C     0.16631   0.08747   0.24995   0.00000  Uiso   1.00
C16    C     0.19272   0.16619   0.15013   0.00000  Uiso   1.00
C17    C     0.26149   0.13211   0.01316   0.00000  Uiso   1.00
C18    C     0.20727   0.16069   0.09335   0.00000  Uiso   1.00
C19    C     0.07818   0.17646   0.43445   0.00000  Uiso   1.00
C20    C     0.06402   0.18073   0.48842   0.00000  Uiso   1.00
C21    C     0.09692   0.17350   0.01574   0.00000  Uiso   1.00
C22    C     0.15690   0.15074   0.43498   0.00000  Uiso   1.00
C23    C     0.18051   0.15509   0.01534   0.00000  Uiso   1.00
C24    C     0.22580   0.13705   0.48799   0.00000  Uiso   1.00
C25    C     0.23455   0.12324   0.43623   0.00000  Uiso   1.00
C26    C     0.20036   0.12935   0.41032   0.00000  Uiso   1.00
C27    C     0.17293   0.16801   0.06760   0.00000  Uiso   1.00
C28    C     0.25214   0.14360   0.06578   0.00000  Uiso   1.00
Cu29   Cu    0.11978   0.16666   0.25000   0.00000  Uiso   1.00
Cu30   Cu    0.21355   0.16667   0.25000   0.00000  Uiso   1.00
H31    H     0.27916   0.13771   0.08524   0.00000  Uiso   1.00
H32    H     0.05269   0.18488   0.41410   0.00000  Uiso   1.00
H33    H     0.08337   0.17774   0.05753   0.00000  Uiso   1.00
H34    H     0.02769   0.19096   0.00917   0.00000  Uiso   1.00
H35    H     0.20814   0.11594   0.37118   0.00000  Uiso   1.00
H36    H     0.24129   0.29552   0.20103   0.00000  Uiso   1.00
H37    H     0.29356   0.23529   0.38434   0.00000  Uiso   1.00
H38    H     0.13054   0.06752   0.14377   0.00000  Uiso   1.00
H39    H     0.24077   0.03781   0.20104   0.00000  Uiso   1.00
H40    H     0.09222   0.03784   0.29971   0.00000  Uiso   1.00
H41    H     0.09260   0.29554   0.29937   0.00000  Uiso   1.00
H42    H     0.03377   0.21946   0.29897   0.00000  Uiso   1.00
H43    H     0.29946   0.11408   0.20083   0.00000  Uiso   1.00
H44    H     0.26803   0.10765   0.41558   0.00000  Uiso   1.00
H45    H     0.29613   0.11836   0.49247   0.00000  Uiso   1.00
H46    H     0.14024   0.18362   0.08962   0.00000  Uiso   1.00
N47    N     0.04931   0.16666   0.24998   0.00000  Uiso   1.00
N48    N     0.28402   0.16669   0.24999   0.00000  Uiso   1.00
O49    O     0.12708   0.22678   0.25000   0.00000  Uiso   1.00
O50    O     0.21978   0.23515   0.34249   0.00000  Uiso   1.00
O51    O     0.29982   0.25756   0.35898   0.00000  Uiso   1.00
O52    O     0.05439   0.05844   0.22713   0.00000  Uiso   1.00
O53    O     0.03524   0.07556   0.14849   0.00000  Uiso   1.00
O54    O     0.11920   0.09611   0.15488   0.00000  Uiso   1.00
O55    O     0.20627   0.22679   0.25000   0.00000  Uiso   1.00
O56    O     0.10775   0.16665   0.32549   0.00000  Uiso   1.00
O57    O     0.18694   0.16666   0.32549   0.00000  Uiso   1.00
O58    O     0.12706   0.10654   0.24999   0.00000  Uiso   1.00
O59    O     0.20625   0.10655   0.24999   0.00000  Uiso   1.00
O60    O     0.14640   0.16667   0.17451   0.00000  Uiso   1.00
O61    O     0.22559   0.16668   0.17451   0.00000  Uiso   1.00
O62    O     0.27770   0.27517   0.27662   0.00000  Uiso   1.00
S63    S     0.27244   0.24115   0.31412   0.00000  Uiso   1.00
S64    S     0.06028   0.09109   0.18772   0.00000  Uiso   1.00
C65    C     0.50034   0.24586   0.25020   0.00000  Uiso   1.00
C66    C     0.45823   0.16261   0.40702   0.00000  Uiso   1.00
C67    C     0.54220   0.31193   0.22302   0.00000  Uiso   1.00
C68    C     0.47396   0.16451   0.34978   0.00000  Uiso   1.00
C69    C     0.54174   0.02142   0.22275   0.00000  Uiso   1.00
C70    C     0.49946   0.04282   0.24971   0.00000  Uiso   1.00
C71    C     0.45789   0.02143   0.27750   0.00000  Uiso   1.00
C72    C     0.45830   0.31193   0.27766   0.00000  Uiso   1.00
C73    C     0.50055   0.29053   0.25062   0.00000  Uiso   1.00
C74    C     0.63638   0.19659   0.27862   0.00000  Uiso   1.00
C75    C     0.35234   0.19597   0.27777   0.00000  Uiso   1.00
C76    C     0.47800   0.16005   0.48940   0.00000  Uiso   1.00
C77    C     0.36361   0.13663   0.22145   0.00000  Uiso   1.00
C78    C     0.64768   0.13748   0.22204   0.00000  Uiso   1.00
C79    C     0.49964   0.08747   0.24995   0.00000  Uiso   1.00
C80    C     0.52605   0.16619   0.15013   0.00000  Uiso   1.00
C81    C     0.59483   0.13211   0.01316   0.00000  Uiso   1.00
C82    C     0.54061   0.16069   0.09335   0.00000  Uiso   1.00
C83    C     0.41151   0.17646   0.43445   0.00000  Uiso   1.00
C84    C     0.39735   0.18073   0.48842   0.00000  Uiso   1.00
C85    C     0.43026   0.17350   0.01574   0.00000  Uiso   1.00
C86    C     0.49024   0.15074   0.43498   0.00000  Uiso   1.00
C87    C     0.51384   0.15509   0.01534   0.00000  Uiso   1.00
C88    C     0.55913   0.13705   0.48799   0.00000  Uiso   1.00
C89    C     0.56788   0.12324   0.43623   0.00000  Uiso   1.00
C90    C     0.53370   0.12935   0.41032   0.00000  Uiso   1.00
C91    C     0.50626   0.16801   0.06760   0.00000  Uiso   1.00
C92    C     0.58547   0.14360   0.06578   0.00000  Uiso   1.00
Cu93   Cu    0.45311   0.16666   0.25000   0.00000  Uiso   1.00
Cu94   Cu    0.54689   0.16667   0.25000   0.00000  Uiso   1.00
H95    H     0.61249   0.13771   0.08524   0.00000  Uiso   1.00
H96    H     0.38602   0.18488   0.41410   0.00000  Uiso   1.00
H97    H     0.41671   0.17774   0.05753   0.00000  Uiso   1.00
H98    H     0.36102   0.19096   0.00917   0.00000  Uiso   1.00
H99    H     0.54147   0.11594   0.37118   0.00000  Uiso   1.00
H100   H     0.57462   0.29552   0.20103   0.00000  Uiso   1.00
H101   H     0.62689   0.23529   0.38434   0.00000  Uiso   1.00
H102   H     0.46387   0.06752   0.14377   0.00000  Uiso   1.00
H103   H     0.57411   0.03781   0.20104   0.00000  Uiso   1.00
H104   H     0.42556   0.03784   0.29971   0.00000  Uiso   1.00
H105   H     0.42594   0.29554   0.29937   0.00000  Uiso   1.00
H106   H     0.36710   0.21946   0.29897   0.00000  Uiso   1.00
H107   H     0.63279   0.11408   0.20083   0.00000  Uiso   1.00
H108   H     0.60136   0.10765   0.41558   0.00000  Uiso   1.00
H109   H     0.62946   0.11836   0.49247   0.00000  Uiso   1.00
H110   H     0.47358   0.18362   0.08962   0.00000  Uiso   1.00
N111   N     0.38265   0.16666   0.24998   0.00000  Uiso   1.00
N112   N     0.61735   0.16669   0.24999   0.00000  Uiso   1.00
O113   O     0.46042   0.22678   0.25000   0.00000  Uiso   1.00
O114   O     0.55312   0.23515   0.34249   0.00000  Uiso   1.00
O115   O     0.63315   0.25756   0.35898   0.00000  Uiso   1.00
O116   O     0.38773   0.05844   0.22713   0.00000  Uiso   1.00
O117   O     0.36857   0.07556   0.14849   0.00000  Uiso   1.00
O118   O     0.45253   0.09611   0.15488   0.00000  Uiso   1.00
O119   O     0.53961   0.22679   0.25000   0.00000  Uiso   1.00
O120   O     0.44108   0.16665   0.32549   0.00000  Uiso   1.00
O121   O     0.52027   0.16666   0.32549   0.00000  Uiso   1.00
O122   O     0.46039   0.10654   0.24999   0.00000  Uiso   1.00
O123   O     0.53958   0.10655   0.24999   0.00000  Uiso   1.00
O124   O     0.47973   0.16667   0.17451   0.00000  Uiso   1.00
O125   O     0.55892   0.16668   0.17451   0.00000  Uiso   1.00
O126   O     0.61103   0.27517   0.27662   0.00000  Uiso   1.00
S127   S     0.60578   0.24115   0.31412   0.00000  Uiso   1.00
S128   S     0.39361   0.09109   0.18772   0.00000  Uiso   1.00
C129   C     0.83367   0.24586   0.25020   0.00000  Uiso   1.00
C130   C     0.79156   0.16261   0.40702   0.00000  Uiso   1.00
C131   C     0.87554   0.31193   0.22302   0.00000  Uiso   1.00
C132   C     0.80729   0.16451   0.34978   0.00000  Uiso   1.00
C133   C     0.87508   0.02142   0.22275   0.00000  Uiso   1.00
C134   C     0.83280   0.04282   0.24971   0.00000  Uiso   1.00
C135   C     0.79122   0.02143   0.27750   0.00000  Uiso   1.00
C136   C     0.79163   0.31193   0.27766   0.00000  Uiso   1.00
C137   C     0.83388   0.29053   0.25062   0.00000  Uiso   1.00
C138   C     0.96971   0.19659   0.27862   0.00000  Uiso   1.00
C139   C     0.68567   0.19597   0.27777   0.00000  Uiso   1.00
C140   C     0.81133   0.16005   0.48940   0.00000  Uiso   1.00
C141   C     0.69695   0.13663   0.22145   0.00000  Uiso   1.00
C142   C     0.98101   0.13748   0.22204   0.00000  Uiso   1.00
C143   C     0.83297   0.08747   0.24995   0.00000  Uiso   1.00
C144   C     0.85938   0.16619   0.15013   0.00000  Uiso   1.00
C145   C     0.92816   0.13211   0.01316   0.00000  Uiso   1.00
C146   C     0.87394   0.16069   0.09335   0.00000  Uiso   1.00
C147   C     0.74485   0.17646   0.43445   0.00000  Uiso   1.00
C148   C     0.73068   0.18073   0.48842   0.00000  Uiso   1.00
C149   C     0.76359   0.17350   0.01574   0.00000  Uiso   1.00
C150   C     0.82357   0.15074   0.43498   0.00000  Uiso   1.00
C151   C     0.84717   0.15509   0.01534   0.00000  Uiso   1.00
C152   C     0.89247   0.13705   0.48799   0.00000  Uiso   1.00
C153   C     0.90122   0.12324   0.43623   0.00000  Uiso   1.00
C154   C     0.86703   0.12935   0.41032   0.00000  Uiso   1.00
C155   C     0.83960   0.16801   0.06760   0.00000  Uiso   1.00
C156   C     0.91881   0.14360   0.06578   0.00000  Uiso   1.00
Cu157  Cu    0.78645   0.16666   0.25000   0.00000  Uiso   1.00
Cu158  Cu    0.88022   0.16667   0.25000   0.00000  Uiso   1.00
H159   H     0.94582   0.13771   0.08524   0.00000  Uiso   1.00
H160   H     0.71935   0.18488   0.41410   0.00000  Uiso   1.00
H161   H     0.75004   0.17774   0.05753   0.00000  Uiso   1.00
H162   H     0.69436   0.19096   0.00917   0.00000  Uiso   1.00
H163   H     0.87481   0.11594   0.37118   0.00000  Uiso   1.00
H164   H     0.90796   0.29552   0.20103   0.00000  Uiso   1.00
H165   H     0.96022   0.23529   0.38434   0.00000  Uiso   1.00
H166   H     0.79720   0.06752   0.14377   0.00000  Uiso   1.00
H167   H     0.90744   0.03781   0.20104   0.00000  Uiso   1.00
H168   H     0.75889   0.03784   0.29971   0.00000  Uiso   1.00
H169   H     0.75927   0.29554   0.29937   0.00000  Uiso   1.00
H170   H     0.70043   0.21946   0.29897   0.00000  Uiso   1.00
H171   H     0.96612   0.11408   0.20083   0.00000  Uiso   1.00
H172   H     0.93470   0.10765   0.41558   0.00000  Uiso   1.00
H173   H     0.96279   0.11836   0.49247   0.00000  Uiso   1.00
H174   H     0.80691   0.18362   0.08962   0.00000  Uiso   1.00
N175   N     0.71598   0.16666   0.24998   0.00000  Uiso   1.00
N176   N     0.95069   0.16669   0.24999   0.00000  Uiso   1.00
O177   O     0.79375   0.22678   0.25000   0.00000  Uiso   1.00
O178   O     0.88645   0.23515   0.34249   0.00000  Uiso   1.00
O179   O     0.96649   0.25756   0.35898   0.00000  Uiso   1.00
O180   O     0.72106   0.05844   0.22713   0.00000  Uiso   1.00
O181   O     0.70191   0.07556   0.14849   0.00000  Uiso   1.00
O182   O     0.78587   0.09611   0.15488   0.00000  Uiso   1.00
O183   O     0.87294   0.22679   0.25000   0.00000  Uiso   1.00
O184   O     0.77441   0.16665   0.32549   0.00000  Uiso   1.00
O185   O     0.85360   0.16666   0.32549   0.00000  Uiso   1.00
O186   O     0.79373   0.10654   0.24999   0.00000  Uiso   1.00
O187   O     0.87292   0.10655   0.24999   0.00000  Uiso   1.00
O188   O     0.81306   0.16667   0.17451   0.00000  Uiso   1.00
O189   O     0.89225   0.16668   0.17451   0.00000  Uiso   1.00
O190   O     0.94436   0.27517   0.27662   0.00000  Uiso   1.00
S191   S     0.93911   0.24115   0.31412   0.00000  Uiso   1.00
S192   S     0.72695   0.09109   0.18772   0.00000  Uiso   1.00
C193   C     0.16700   0.57920   0.25020   0.00000  Uiso   1.00
C194   C     0.12489   0.49594   0.40702   0.00000  Uiso   1.00
C195   C     0.20887   0.64526   0.22302   0.00000  Uiso   1.00
C196   C     0.14062   0.49784   0.34978   0.00000  Uiso   1.00
C197   C     0.20841   0.35476   0.22275   0.00000  Uiso   1.00
C198   C     0.16613   0.37615   0.24971   0.00000  Uiso   1.00
C199   C     0.12455   0.35476   0.27750   0.00000  Uiso   1.00
C200   C     0.12496   0.64526   0.27766   0.00000  Uiso   1.00
C201   C     0.16722   0.62386   0.25062   0.00000  Uiso   1.00
C202   C     0.30304   0.52993   0.27862   0.00000  Uiso   1.00
C203   C     0.01901   0.52931   0.27777   0.00000  Uiso   1.00
C204   C     0.14467   0.49339   0.48940   0.00000  Uiso   1.00
C205   C     0.03028   0.46996   0.22145   0.00000  Uiso   1.00
C206   C     0.31434   0.47081   0.22204   0.00000  Uiso   1.00
C207   C     0.16631   0.42081   0.24995   0.00000  Uiso   1.00
C208   C     0.19272   0.49953   0.15013   0.00000  Uiso   1.00
C209   C     0.26149   0.46544   0.01316   0.00000  Uiso   1.00
C210   C     0.20727   0.49403   0.09335   0.00000  Uiso   1.00
C211   C     0.07818   0.50980   0.43445   0.00000  Uiso   1.00
C212   C     0.06402   0.51406   0.48842   0.00000  Uiso   1.00
C213   C     0.09692   0.50683   0.01574   0.00000  Uiso   1.00
C214   C     0.15690   0.48407   0.43498   0.00000  Uiso   1.00
C215   C     0.18051   0.48842   0.01534   0.00000  Uiso   1.00
C216   C     0.22580   0.47038   0.48799   0.00000  Uiso   1.00
C217   C     0.23455   0.45657   0.43623   0.00000  Uiso   1.00
C218   C     0.20036   0.46268   0.41032   0.00000  Uiso   1.00
C219   C     0.17293   0.50134   0.06760   0.00000  Uiso   1.00
C220   C     0.25214   0.47694   0.06578   0.00000  Uiso   1.00
Cu221  Cu    0.11978   0.49999   0.25000   0.00000  Uiso   1.00
Cu222  Cu    0.21355   0.50001   0.25000   0.00000  Uiso   1.00
H223   H     0.27916   0.47104   0.08524   0.00000  Uiso   1.00
H224   H     0.05269   0.51821   0.41410   0.00000  Uiso   1.00
H225   H     0.08337   0.51107   0.05753   0.00000  Uiso   1.00
H226   H     0.02769   0.52430   0.00917   0.00000  Uiso   1.00
H227   H     0.20814   0.44927   0.37118   0.00000  Uiso   1.00
H228   H     0.24129   0.62886   0.20103   0.00000  Uiso   1.00
H229   H     0.29356   0.56862   0.38434   0.00000  Uiso   1.00
H230   H     0.13054   0.40086   0.14377   0.00000  Uiso   1.00
H231   H     0.24077   0.37114   0.20104   0.00000  Uiso   1.00
H232   H     0.09222   0.37118   0.29971   0.00000  Uiso   1.00
H233   H     0.09260   0.62887   0.29937   0.00000  Uiso   1.00
H234   H     0.03377   0.55280   0.29897   0.00000  Uiso   1.00
H235   H     0.29946   0.44742   0.20083   0.00000  Uiso   1.00
H236   H     0.26803   0.44099   0.41558   0.00000  Uiso   1.00
H237   H     0.29613   0.45170   0.49247   0.00000  Uiso   1.00
H238   H     0.14024   0.51695   0.08962   0.00000  Uiso   1.00
N239   N     0.04931   0.49999   0.24998   0.00000  Uiso   1.00
N240   N     0.28402   0.50002   0.24999   0.00000  Uiso   1.00
O241   O     0.12708   0.56011   0.25000   0.00000  Uiso   1.00
O242   O     0.21978   0.56848   0.34249   0.00000  Uiso   1.00
O243   O     0.29982   0.59089   0.35898   0.00000  Uiso   1.00
O244   O     0.05439   0.39178   0.22713   0.00000  Uiso   1.00
O245   O     0.03524   0.40889   0.14849   0.00000  Uiso   1.00
O246   O     0.11920   0.42945   0.15488   0.00000  Uiso   1.00
O247   O     0.20627   0.56012   0.25000   0.00000  Uiso   1.00
O248   O     0.10775   0.49998   0.32549   0.00000  Uiso   1.00
O249   O     0.18694   0.49999   0.32549   0.00000  Uiso   1.00
O250   O     0.12706   0.43988   0.24999   0.00000  Uiso   1.00
O251   O     0.20625   0.43989   0.24999   0.00000  Uiso   1.00
O252   O     0.14640   0.50001   0.17451   0.00000  Uiso   1.00
O253   O     0.22559   0.50002   0.17451   0.00000  Uiso   1.00
O254   O     0.27770   0.60850   0.27662   0.00000  Uiso   1.00
S255   S     0.27244   0.57448   0.31412   0.00000  Uiso   1.00
S256   S     0.06028   0.42443   0.18772   0.00000  Uiso   1.00
C257   C     0.50034   0.57920   0.25020   0.00000  Uiso   1.00
C258   C     0.45823   0.49594   0.40702   0.00000  Uiso   1.00
C259   C     0.54220   0.64526   0.22302   0.00000  Uiso   1.00
C260   C     0.47396   0.49784   0.34978   0.00000  Uiso   1.00
C261   C     0.54174   0.35476   0.22275   0.00000  Uiso   1.00
C262   C     0.49946   0.37615   0.24971   0.00000  Uiso   1.00
C263   C     0.45789   0.35476   0.27750   0.00000  Uiso   1.00
C264   C     0.45830   0.64526   0.27766   0.00000  Uiso   1.00
C265   C     0.50055   0.62386   0.25062   0.00000  Uiso   1.00
C266   C     0.63638   0.52993   0.27862   0.00000  Uiso   1.00
C267   C     0.35234   0.52931   0.27777   0.00000  Uiso   1.00
C268   C     0.47800   0.49339   0.48940   0.00000  Uiso   1.00
C269   C     0.36361   0.46996   0.22145   0.00000  Uiso   1.00
C270   C     0.64768   0.47081   0.22204   0.00000  Uiso   1.00
C271   C     0.49964   0.42081   0.24995   0.00000  Uiso   1.00
C272   C     0.52605   0.49953   0.15013   0.00000  Uiso   1.00
C273   C     0.59483   0.46544   0.01316   0.00000  Uiso   1.00
C274   C     0.54061   0.49403   0.09335   0.00000  Uiso   1.00
C275   C     0.41151   0.50980   0.43445   0.00000  Uiso   1.00
C276   C     0.39735   0.51406   0.48842   0.00000  Uiso   1.00
C277   C     0.43026   0.50683   0.01574   0.00000  Uiso   1.00
C278   C     0.49024   0.48407   0.43498   0.00000  Uiso   1.00
C279   C     0.51384   0.48842   0.01534   0.00000  Uiso   1.00
C280   C     0.55913   0.47038   0.48799   0.00000  Uiso   1.00
C281   C     0.56788   0.45657   0.43623   0.00000  Uiso   1.00
C282   C     0.53370   0.46268   0.41032   0.00000  Uiso   1.00
C283   C     0.50626   0.50134   0.06760   0.00000  Uiso   1.00
C284   C     0.58547   0.47694   0.06578   0.00000  Uiso   1.00
Cu285  Cu    0.45311   0.49999   0.25000   0.00000  Uiso   1.00
Cu286  Cu    0.54689   0.50001   0.25000   0.00000  Uiso   1.00
H287   H     0.61249   0.47104   0.08524   0.00000  Uiso   1.00
H288   H     0.38602   0.51821   0.41410   0.00000  Uiso   1.00
H289   H     0.41671   0.51107   0.05753   0.00000  Uiso   1.00
H290   H     0.36102   0.52430   0.00917   0.00000  Uiso   1.00
H291   H     0.54147   0.44927   0.37118   0.00000  Uiso   1.00
H292   H     0.57462   0.62886   0.20103   0.00000  Uiso   1.00
H293   H     0.62689   0.56862   0.38434   0.00000  Uiso   1.00
H294   H     0.46387   0.40086   0.14377   0.00000  Uiso   1.00
H295   H     0.57411   0.37114   0.20104   0.00000  Uiso   1.00
H296   H     0.42556   0.37118   0.29971   0.00000  Uiso   1.00
H297   H     0.42594   0.62887   0.29937   0.00000  Uiso   1.00
H298   H     0.36710   0.55280   0.29897   0.00000  Uiso   1.00
H299   H     0.63279   0.44742   0.20083   0.00000  Uiso   1.00
H300   H     0.60136   0.44099   0.41558   0.00000  Uiso   1.00
H301   H     0.62946   0.45170   0.49247   0.00000  Uiso   1.00
H302   H     0.47358   0.51695   0.08962   0.00000  Uiso   1.00
N303   N     0.38265   0.49999   0.24998   0.00000  Uiso   1.00
N304   N     0.61735   0.50002   0.24999   0.00000  Uiso   1.00
O305   O     0.46042   0.56011   0.25000   0.00000  Uiso   1.00
O306   O     0.55312   0.56848   0.34249   0.00000  Uiso   1.00
O307   O     0.63315   0.59089   0.35898   0.00000  Uiso   1.00
O308   O     0.38773   0.39178   0.22713   0.00000  Uiso   1.00
O309   O     0.36857   0.40889   0.14849   0.00000  Uiso   1.00
O310   O     0.45253   0.42945   0.15488   0.00000  Uiso   1.00
O311   O     0.53961   0.56012   0.25000   0.00000  Uiso   1.00
O312   O     0.44108   0.49998   0.32549   0.00000  Uiso   1.00
O313   O     0.52027   0.49999   0.32549   0.00000  Uiso   1.00
O314   O     0.46039   0.43988   0.24999   0.00000  Uiso   1.00
O315   O     0.53958   0.43989   0.24999   0.00000  Uiso   1.00
O316   O     0.47973   0.50001   0.17451   0.00000  Uiso   1.00
O317   O     0.55892   0.50002   0.17451   0.00000  Uiso   1.00
O318   O     0.61103   0.60850   0.27662   0.00000  Uiso   1.00
S319   S     0.60578   0.57448   0.31412   0.00000  Uiso   1.00
S320   S     0.39361   0.42443   0.18772   0.00000  Uiso   1.00
C321   C     0.83367   0.57920   0.25020   0.00000  Uiso   1.00
C322   C     0.79156   0.49594   0.40702   0.00000  Uiso   1.00
C323   C     0.87554   0.64526   0.22302   0.00000  Uiso   1.00
C324   C     0.80729   0.49784   0.34978   0.00000  Uiso   1.00
C325   C     0.87508   0.35476   0.22275   0.00000  Uiso   1.00
C326   C     0.83280   0.37615   0.24971   0.00000  Uiso   1.00
C327   C     0.79122   0.35476   0.27750   0.00000  Uiso   1.00
C328   C     0.79163   0.64526   0.27766   0.00000  Uiso   1.00
C329   C     0.83388   0.62386   0.25062   0.00000  Uiso   1.00
C330   C     0.96971   0.52993   0.27862   0.00000  Uiso   1.00
C331   C     0.68567   0.52931   0.27777   0.00000  Uiso   1.00
C332   C     0.81133   0.49339   0.48940   0.00000  Uiso   1.00
C333   C     0.69695   0.46996   0.22145   0.00000  Uiso   1.00
C334   C     0.98101   0.47081   0.22204   0.00000  Uiso   1.00
C335   C     0.83297   0.42081   0.24995   0.00000  Uiso   1.00
C336   C     0.85938   0.49953   0.15013   0.00000  Uiso   1.00
C337   C     0.92816   0.46544   0.01316   0.00000  Uiso   1.00
C338   C     0.87394   0.49403   0.09335   0.00000  Uiso   1.00
C339   C     0.74485   0.50980   0.43445   0.00000  Uiso   1.00
C340   C     0.73068   0.51406   0.48842   0.00000  Uiso   1.00
C341   C     0.76359   0.50683   0.01574   0.00000  Uiso   1.00
C342   C     0.82357   0.48407   0.43498   0.00000  Uiso   1.00
C343   C     0.84717   0.48842   0.01534   0.00000  Uiso   1.00
C344   C     0.89247   0.47038   0.48799   0.00000  Uiso   1.00
C345   C     0.90122   0.45657   0.43623   0.00000  Uiso   1.00
C346   C     0.86703   0.46268   0.41032   0.00000  Uiso   1.00
C347   C     0.83960   0.50134   0.06760   0.00000  Uiso   1.00
C348   C     0.91881   0.47694   0.06578   0.00000  Uiso   1.00
Cu349  Cu    0.78645   0.49999   0.25000   0.00000  Uiso   1.00
Cu350  Cu    0.88022   0.50001   0.25000   0.00000  Uiso   1.00
H351   H     0.94582   0.47104   0.08524   0.00000  Uiso   1.00
H352   H     0.71935   0.51821   0.41410   0.00000  Uiso   1.00
H353   H     0.75004   0.51107   0.05753   0.00000  Uiso   1.00
H354   H     0.69436   0.52430   0.00917   0.00000  Uiso   1.00
H355   H     0.87481   0.44927   0.37118   0.00000  Uiso   1.00
H356   H     0.90796   0.62886   0.20103   0.00000  Uiso   1.00
H357   H     0.96022   0.56862   0.38434   0.00000  Uiso   1.00
H358   H     0.79720   0.40086   0.14377   0.00000  Uiso   1.00
H359   H     0.90744   0.37114   0.20104   0.00000  Uiso   1.00
H360   H     0.75889   0.37118   0.29971   0.00000  Uiso   1.00
H361   H     0.75927   0.62887   0.29937   0.00000  Uiso   1.00
H362   H     0.70043   0.55280   0.29897   0.00000  Uiso   1.00
H363   H     0.96612   0.44742   0.20083   0.00000  Uiso   1.00
H364   H     0.93470   0.44099   0.41558   0.00000  Uiso   1.00
H365   H     0.96279   0.45170   0.49247   0.00000  Uiso   1.00
H366   H     0.80691   0.51695   0.08962   0.00000  Uiso   1.00
N367   N     0.71598   0.49999   0.24998   0.00000  Uiso   1.00
N368   N     0.95069   0.50002   0.24999   0.00000  Uiso   1.00
O369   O     0.79375   0.56011   0.25000   0.00000  Uiso   1.00
O370   O     0.88645   0.56848   0.34249   0.00000  Uiso   1.00
O371   O     0.96649   0.59089   0.35898   0.00000  Uiso   1.00
O372   O     0.72106   0.39178   0.22713   0.00000  Uiso   1.00
O373   O     0.70191   0.40889   0.14849   0.00000  Uiso   1.00
O374   O     0.78587   0.42945   0.15488   0.00000  Uiso   1.00
O375   O     0.87294   0.56012   0.25000   0.00000  Uiso   1.00
O376   O     0.77441   0.49998   0.32549   0.00000  Uiso   1.00
O377   O     0.85360   0.49999   0.32549   0.00000  Uiso   1.00
O378   O     0.79373   0.43988   0.24999   0.00000  Uiso   1.00
O379   O     0.87292   0.43989   0.24999   0.00000  Uiso   1.00
O380   O     0.81306   0.50001   0.17451   0.00000  Uiso   1.00
O381   O     0.89225   0.50002   0.17451   0.00000  Uiso   1.00
O382   O     0.94436   0.60850   0.27662   0.00000  Uiso   1.00
S383   S     0.93911   0.57448   0.31412   0.00000  Uiso   1.00
S384   S     0.72695   0.42443   0.18772   0.00000  Uiso   1.00
C385   C     0.16700   0.91253   0.25020   0.00000  Uiso   1.00
C386   C     0.12489   0.82928   0.40702   0.00000  Uiso   1.00
C387   C     0.20887   0.97860   0.22302   0.00000  Uiso   1.00
C388   C     0.14062   0.83118   0.34978   0.00000  Uiso   1.00
C389   C     0.20841   0.68809   0.22275   0.00000  Uiso   1.00
C390   C     0.16613   0.70948   0.24971   0.00000  Uiso   1.00
C391   C     0.12455   0.68809   0.27750   0.00000  Uiso   1.00
C392   C     0.12496   0.97859   0.27766   0.00000  Uiso   1.00
C393   C     0.16722   0.95719   0.25062   0.00000  Uiso   1.00
C394   C     0.30304   0.86326   0.27862   0.00000  Uiso   1.00
C395   C     0.01901   0.86264   0.27777   0.00000  Uiso   1.00
C396   C     0.14467   0.82672   0.48940   0.00000  Uiso   1.00
C397   C     0.03028   0.80330   0.22145   0.00000  Uiso   1.00
C398   C     0.31434   0.80414   0.22204   0.00000  Uiso   1.00
C399   C     0.16631   0.75414   0.24995   0.00000  Uiso   1.00
C400   C     0.19272   0.83286   0.15013   0.00000  Uiso   1.00
C401   C     0.26149   0.79878   0.01316   0.00000  Uiso   1.00
C402   C     0.20727   0.82736   0.09335   0.00000  Uiso   1.00
C403   C     0.07818   0.84313   0.43445   0.00000  Uiso   1.00
C404   C     0.06402   0.84739   0.48842   0.00000  Uiso   1.00
C405   C     0.09692   0.84016   0.01574   0.00000  Uiso   1.00
C406   C     0.15690   0.81740   0.43498   0.00000  Uiso   1.00
C407   C     0.18051   0.82175   0.01534   0.00000  Uiso   1.00
C408   C     0.22580   0.80371   0.48799   0.00000  Uiso   1.00
C409   C     0.23455   0.78991   0.43623   0.00000  Uiso   1.00
C410   C     0.20036   0.79601   0.41032   0.00000  Uiso   1.00
C411   C     0.17293   0.83468   0.06760   0.00000  Uiso   1.00
C412   C     0.25214   0.81027   0.06578   0.00000  Uiso   1.00
Cu413  Cu    0.11978   0.83333   0.25000   0.00000  Uiso   1.00
Cu414  Cu    0.21355   0.83334   0.25000   0.00000  Uiso   1.00
H415   H     0.27916   0.80437   0.08524   0.00000  Uiso   1.00
H416   H     0.05269   0.85155   0.41410   0.00000  Uiso   1.00
H417   H     0.08337   0.84440   0.05753   0.00000  Uiso   1.00
H418   H     0.02769   0.85763   0.00917   0.00000  Uiso   1.00
H419   H     0.20814   0.78261   0.37118   0.00000  Uiso   1.00
H420   H     0.24129   0.96219   0.20103   0.00000  Uiso   1.00
H421   H     0.29356   0.90195   0.38434   0.00000  Uiso   1.00
H422   H     0.13054   0.73419   0.14377   0.00000  Uiso   1.00
H423   H     0.24077   0.70448   0.20104   0.00000  Uiso   1.00
H424   H     0.09222   0.70451   0.29971   0.00000  Uiso   1.00
H425   H     0.09260   0.96220   0.29937   0.00000  Uiso   1.00
H426   H     0.03377   0.88613   0.29897   0.00000  Uiso   1.00
H427   H     0.29946   0.78075   0.20083   0.00000  Uiso   1.00
H428   H     0.26803   0.77432   0.41558   0.00000  Uiso   1.00
H429   H     0.29613   0.78503   0.49247   0.00000  Uiso   1.00
H430   H     0.14024   0.85028   0.08962   0.00000  Uiso   1.00
N431   N     0.04931   0.83332   0.24998   0.00000  Uiso   1.00
N432   N     0.28402   0.83335   0.24999   0.00000  Uiso   1.00
O433   O     0.12708   0.89345   0.25000   0.00000  Uiso   1.00
O434   O     0.21978   0.90182   0.34249   0.00000  Uiso   1.00
O435   O     0.29982   0.92422   0.35898   0.00000  Uiso   1.00
O436   O     0.05439   0.72511   0.22713   0.00000  Uiso   1.00
O437   O     0.03524   0.74222   0.14849   0.00000  Uiso   1.00
O438   O     0.11920   0.76278   0.15488   0.00000  Uiso   1.00
O439   O     0.20627   0.89346   0.25000   0.00000  Uiso   1.00
O440   O     0.10775   0.83332   0.32549   0.00000  Uiso   1.00
O441   O     0.18694   0.83333   0.32549   0.00000  Uiso   1.00
O442   O     0.12706   0.77321   0.24999   0.00000  Uiso   1.00
O443   O     0.20625   0.77322   0.24999   0.00000  Uiso   1.00
O444   O     0.14640   0.83334   0.17451   0.00000  Uiso   1.00
O445   O     0.22559   0.83335   0.17451   0.00000  Uiso   1.00
O446   O     0.27770   0.94184   0.27662   0.00000  Uiso   1.00
S447   S     0.27244   0.90782   0.31412   0.00000  Uiso   1.00
S448   S     0.06028   0.75776   0.18772   0.00000  Uiso   1.00
C449   C     0.50034   0.91253   0.25020   0.00000  Uiso   1.00
C450   C     0.45823   0.82928   0.40702   0.00000  Uiso   1.00
C451   C     0.54220   0.97860   0.22302   0.00000  Uiso   1.00
C452   C     0.47396   0.83118   0.34978   0.00000  Uiso   1.00
C453   C     0.54174   0.68809   0.22275   0.00000  Uiso   1.00
C454   C     0.49946   0.70948   0.24971   0.00000  Uiso   1.00
C455   C     0.45789   0.68809   0.27750   0.00000  Uiso   1.00
C456   C     0.45830   0.97859   0.27766   0.00000  Uiso   1.00
C457   C     0.50055   0.95719   0.25062   0.00000  Uiso   1.00
C458   C     0.63638   0.86326   0.27862   0.00000  Uiso   1.00
C459   C     0.35234   0.86264   0.27777   0.00000  Uiso   1.00
C460   C     0.47800   0.82672   0.48940   0.00000  Uiso   1.00
C461   C     0.36361   0.80330   0.22145   0.00000  Uiso   1.00
C462   C     0.64768   0.80414   0.22204   0.00000  Uiso   1.00
C463   C     0.49964   0.75414   0.24995   0.00000  Uiso   1.00
C464   C     0.52605   0.83286   0.15013   0.00000  Uiso   1.00
C465   C     0.59483   0.79878   0.01316   0.00000  Uiso   1.00
C466   C     0.54061   0.82736   0.09335   0.00000  Uiso   1.00
C467   C     0.41151   0.84313   0.43445   0.00000  Uiso   1.00
C468   C     0.39735   0.84739   0.48842   0.00000  Uiso   1.00
C469   C     0.43026   0.84016   0.01574   0.00000  Uiso   1.00
C470   C     0.49024   0.81740   0.43498   0.00000  Uiso   1.00
C471   C     0.51384   0.82175   0.01534   0.00000  Uiso   1.00
C472   C     0.55913   0.80371   0.48799   0.00000  Uiso   1.00
C473   C     0.56788   0.78991   0.43623   0.00000  Uiso   1.00
C474   C     0.53370   0.79601   0.41032   0.00000  Uiso   1.00
C475   C     0.50626   0.83468   0.06760   0.00000  Uiso   1.00
C476   C     0.58547   0.81027   0.06578   0.00000  Uiso   1.00
Cu477  Cu    0.45311   0.83333   0.25000   0.00000  Uiso   1.00
Cu478  Cu    0.54689   0.83334   0.25000   0.00000  Uiso   1.00
H479   H     0.61249   0.80437   0.08524   0.00000  Uiso   1.00
H480   H     0.38602   0.85155   0.41410   0.00000  Uiso   1.00
H481   H     0.41671   0.84440   0.05753   0.00000  Uiso   1.00
H482   H     0.36102   0.85763   0.00917   0.00000  Uiso   1.00
H483   H     0.54147   0.78261   0.37118   0.00000  Uiso   1.00
H484   H     0.57462   0.96219   0.20103   0.00000  Uiso   1.00
H485   H     0.62689   0.90195   0.38434   0.00000  Uiso   1.00
H486   H     0.46387   0.73419   0.14377   0.00000  Uiso   1.00
H487   H     0.57411   0.70448   0.20104   0.00000  Uiso   1.00
H488   H     0.42556   0.70451   0.29971   0.00000  Uiso   1.00
H489   H     0.42594   0.96220   0.29937   0.00000  Uiso   1.00
H490   H     0.36710   0.88613   0.29897   0.00000  Uiso   1.00
H491   H     0.63279   0.78075   0.20083   0.00000  Uiso   1.00
H492   H     0.60136   0.77432   0.41558   0.00000  Uiso   1.00
H493   H     0.62946   0.78503   0.49247   0.00000  Uiso   1.00
H494   H     0.47358   0.85028   0.08962   0.00000  Uiso   1.00
N495   N     0.38265   0.83332   0.24998   0.00000  Uiso   1.00
N496   N     0.61735   0.83335   0.24999   0.00000  Uiso   1.00
O497   O     0.46042   0.89345   0.25000   0.00000  Uiso   1.00
O498   O     0.55312   0.90182   0.34249   0.00000  Uiso   1.00
O499   O     0.63315   0.92422   0.35898   0.00000  Uiso   1.00
O500   O     0.38773   0.72511   0.22713   0.00000  Uiso   1.00
O501   O     0.36857   0.74222   0.14849   0.00000  Uiso   1.00
O502   O     0.45253   0.76278   0.15488   0.00000  Uiso   1.00
O503   O     0.53961   0.89346   0.25000   0.00000  Uiso   1.00
O504   O     0.44108   0.83332   0.32549   0.00000  Uiso   1.00
O505   O     0.52027   0.83333   0.32549   0.00000  Uiso   1.00
O506   O     0.46039   0.77321   0.24999   0.00000  Uiso   1.00
O507   O     0.53958   0.77322   0.24999   0.00000  Uiso   1.00
O508   O     0.47973   0.83334   0.17451   0.00000  Uiso   1.00
O509   O     0.55892   0.83335   0.17451   0.00000  Uiso   1.00
O510   O     0.61103   0.94184   0.27662   0.00000  Uiso   1.00
S511   S     0.60578   0.90782   0.31412   0.00000  Uiso   1.00
S512   S     0.39361   0.75776   0.18772   0.00000  Uiso   1.00
C513   C     0.83367   0.91253   0.25020   0.00000  Uiso   1.00
C514   C     0.79156   0.82928   0.40702   0.00000  Uiso   1.00
C515   C     0.87554   0.97860   0.22302   0.00000  Uiso   1.00
C516   C     0.80729   0.83118   0.34978   0.00000  Uiso   1.00
C517   C     0.87508   0.68809   0.22275   0.00000  Uiso   1.00
C518   C     0.83280   0.70948   0.24971   0.00000  Uiso   1.00
C519   C     0.79122   0.68809   0.27750   0.00000  Uiso   1.00
C520   C     0.79163   0.97859   0.27766   0.00000  Uiso   1.00
C521   C     0.83388   0.95719   0.25062   0.00000  Uiso   1.00
C522   C     0.96971   0.86326   0.27862   0.00000  Uiso   1.00
C523   C     0.68567   0.86264   0.27777   0.00000  Uiso   1.00
C524   C     0.81133   0.82672   0.48940   0.00000  Uiso   1.00
C525   C     0.69695   0.80330   0.22145   0.00000  Uiso   1.00
C526   C     0.98101   0.80414   0.22204   0.00000  Uiso   1.00
C527   C     0.83297   0.75414   0.24995   0.00000  Uiso   1.00
C528   C     0.85938   0.83286   0.15013   0.00000  Uiso   1.00
C529   C     0.92816   0.79878   0.01316   0.00000  Uiso   1.00
C530   C     0.87394   0.82736   0.09335   0.00000  Uiso   1.00
C531   C     0.74485   0.84313   0.43445   0.00000  Uiso   1.00
C532   C     0.73068   0.84739   0.48842   0.00000  Uiso   1.00
C533   C     0.76359   0.84016   0.01574   0.00000  Uiso   1.00
C534   C     0.82357   0.81740   0.43498   0.00000  Uiso   1.00
C535   C     0.84717   0.82175   0.01534   0.00000  Uiso   1.00
C536   C     0.89247   0.80371   0.48799   0.00000  Uiso   1.00
C537   C     0.90122   0.78991   0.43623   0.00000  Uiso   1.00
C538   C     0.86703   0.79601   0.41032   0.00000  Uiso   1.00
C539   C     0.83960   0.83468   0.06760   0.00000  Uiso   1.00
C540   C     0.91881   0.81027   0.06578   0.00000  Uiso   1.00
Cu541  Cu    0.78645   0.83333   0.25000   0.00000  Uiso   1.00
Cu542  Cu    0.88022   0.83334   0.25000   0.00000  Uiso   1.00
H543   H     0.94582   0.80437   0.08524   0.00000  Uiso   1.00
H544   H     0.71935   0.85155   0.41410   0.00000  Uiso   1.00
H545   H     0.75004   0.84440   0.05753   0.00000  Uiso   1.00
H546   H     0.69436   0.85763   0.00917   0.00000  Uiso   1.00
H547   H     0.87481   0.78261   0.37118   0.00000  Uiso   1.00
H548   H     0.90796   0.96219   0.20103   0.00000  Uiso   1.00
H549   H     0.96022   0.90195   0.38434   0.00000  Uiso   1.00
H550   H     0.79720   0.73419   0.14377   0.00000  Uiso   1.00
H551   H     0.90744   0.70448   0.20104   0.00000  Uiso   1.00
H552   H     0.75889   0.70451   0.29971   0.00000  Uiso   1.00
H553   H     0.75927   0.96220   0.29937   0.00000  Uiso   1.00
H554   H     0.70043   0.88613   0.29897   0.00000  Uiso   1.00
H555   H     0.96612   0.78075   0.20083   0.00000  Uiso   1.00
H556   H     0.93470   0.77432   0.41558   0.00000  Uiso   1.00
H557   H     0.96279   0.78503   0.49247   0.00000  Uiso   1.00
H558   H     0.80691   0.85028   0.08962   0.00000  Uiso   1.00
N559   N     0.71598   0.83332   0.24998   0.00000  Uiso   1.00
N560   N     0.95069   0.83335   0.24999   0.00000  Uiso   1.00
O561   O     0.79375   0.89345   0.25000   0.00000  Uiso   1.00
O562   O     0.88645   0.90182   0.34249   0.00000  Uiso   1.00
O563   O     0.96649   0.92422   0.35898   0.00000  Uiso   1.00
O564   O     0.72106   0.72511   0.22713   0.00000  Uiso   1.00
O565   O     0.70191   0.74222   0.14849   0.00000  Uiso   1.00
O566   O     0.78587   0.76278   0.15488   0.00000  Uiso   1.00
O567   O     0.87294   0.89346   0.25000   0.00000  Uiso   1.00
O568   O     0.77441   0.83332   0.32549   0.00000  Uiso   1.00
O569   O     0.85360   0.83333   0.32549   0.00000  Uiso   1.00
O570   O     0.79373   0.77321   0.24999   0.00000  Uiso   1.00
O571   O     0.87292   0.77322   0.24999   0.00000  Uiso   1.00
O572   O     0.81306   0.83334   0.17451   0.00000  Uiso   1.00
O573   O     0.89225   0.83335   0.17451   0.00000  Uiso   1.00
O574   O     0.94436   0.94184   0.27662   0.00000  Uiso   1.00
S575   S     0.93911   0.90782   0.31412   0.00000  Uiso   1.00
S576   S     0.72695   0.75776   0.18772   0.00000  Uiso   1.00
C577   C     0.16700   0.24586   0.75020   0.00000  Uiso   1.00
C578   C     0.12489   0.16261   0.90702   0.00000  Uiso   1.00
C579   C     0.20887   0.31193   0.72302   0.00000  Uiso   1.00
C580   C     0.14062   0.16451   0.84978   0.00000  Uiso   1.00
C581   C     0.20841   0.02142   0.72275   0.00000  Uiso   1.00
C582   C     0.16613   0.04282   0.74971   0.00000  Uiso   1.00
C583   C     0.12455   0.02143   0.77750   0.00000  Uiso   1.00
C584   C     0.12496   0.31193   0.77766   0.00000  Uiso   1.00
C585   C     0.16722   0.29053   0.75062   0.00000  Uiso   1.00
C586   C     0.30304   0.19659   0.77862   0.00000  Uiso   1.00
C587   C     0.01901   0.19597   0.77777   0.00000  Uiso   1.00
C588   C     0.14467   0.16005   0.98940   0.00000  Uiso   1.00
C589   C     0.03028   0.13663   0.72145   0.00000  Uiso   1.00
C590   C     0.31434   0.13748   0.72204   0.00000  Uiso   1.00
C591   C     0.16631   0.08747   0.74995   0.00000  Uiso   1.00
C592   C     0.19272   0.16619   0.65013   0.00000  Uiso   1.00
C593   C     0.26149   0.13211   0.51316   0.00000  Uiso   1.00
C594   C     0.20727   0.16069   0.59335   0.00000  Uiso   1.00
C595   C     0.07818   0.17646   0.93445   0.00000  Uiso   1.00
C596   C     0.06402   0.18073   0.98842   0.00000  Uiso   1.00
C597   C     0.09692   0.17350   0.51574   0.00000  Uiso   1.00
C598   C     0.15690   0.15074   0.93498   0.00000  Uiso   1.00
C599   C     0.18051   0.15509   0.51534   0.00000  Uiso   1.00
C600   C     0.22580   0.13705   0.98799   0.00000  Uiso   1.00
C601   C     0.23455   0.12324   0.93623   0.00000  Uiso   1.00
C602   C     0.20036   0.12935   0.91032   0.00000  Uiso   1.00
C603   C     0.17293   0.16801   0.56760   0.00000  Uiso   1.00
C604   C     0.25214   0.14360   0.56578   0.00000  Uiso   1.00
Cu605  Cu    0.11978   0.16666   0.75000   0.00000  Uiso   1.00
Cu606  Cu    0.21355   0.16667   0.75000   0.00000  Uiso   1.00
H607   H     0.27916   0.13771   0.58524   0.00000  Uiso   1.00
H608   H     0.05269   0.18488   0.91410   0.00000  Uiso   1.00
H609   H     0.08337   0.17774   0.55753   0.00000  Uiso   1.00
H610   H     0.02769   0.19096   0.50917   0.00000  Uiso   1.00
H611   H     0.20814   0.11594   0.87118   0.00000  Uiso   1.00
H612   H     0.24129   0.29552   0.70103   0.00000  Uiso   1.00
H613   H     0.29356   0.23529   0.88434   0.00000  Uiso   1.00
H614   H     0.13054   0.06752   0.64377   0.00000  Uiso   1.00
H615   H     0.24077   0.03781   0.70104   0.00000  Uiso   1.00
H616   H     0.09222   0.03784   0.79971   0.00000  Uiso   1.00
H617   H     0.09260   0.29554   0.79937   0.00000  Uiso   1.00
H618   H     0.03377   0.21946   0.79897   0.00000  Uiso   1.00
H619   H     0.29946   0.11408   0.70083   0.00000  Uiso   1.00
H620   H     0.26803   0.10765   0.91558   0.00000  Uiso   1.00
H621   H     0.29613   0.11836   0.99247   0.00000  Uiso   1.00
H622   H     0.14024   0.18362   0.58962   0.00000  Uiso   1.00
N623   N     0.04931   0.16666   0.74998   0.00000  Uiso   1.00
N624   N     0.28402   0.16669   0.74999   0.00000  Uiso   1.00
O625   O     0.12708   0.22678   0.75000   0.00000  Uiso   1.00
O626   O     0.21978   0.23515   0.84249   0.00000  Uiso   1.00
O627   O     0.29982   0.25756   0.85898   0.00000  Uiso   1.00
O628   O     0.05439   0.05844   0.72713   0.00000  Uiso   1.00
O629   O     0.03524   0.07556   0.64849   0.00000  Uiso   1.00
O630   O     0.11920   0.09611   0.65488   0.00000  Uiso   1.00
O631   O     0.20627   0.22679   0.75000   0.00000  Uiso   1.00
O632   O     0.10775   0.16665   0.82549   0.00000  Uiso   1.00
O633   O     0.18694   0.16666   0.82549   0.00000  Uiso   1.00
O634   O     0.12706   0.10654   0.74999   0.00000  Uiso   1.00
O635   O     0.20625   0.10655   0.74999   0.00000  Uiso   1.00
O636   O     0.14640   0.16667   0.67451   0.00000  Uiso   1.00
O637   O     0.22559   0.16668   0.67451   0.00000  Uiso   1.00
O638   O     0.27770   0.27517   0.77662   0.00000  Uiso   1.00
S639   S     0.27244   0.24115   0.81412   0.00000  Uiso   1.00
S640   S     0.06028   0.09109   0.68772   0.00000  Uiso   1.00
C641   C     0.50034   0.24586   0.75020   0.00000  Uiso   1.00
C642   C     0.45823   0.16261   0.90702   0.00000  Uiso   1.00
C643   C     0.54220   0.31193   0.72302   0.00000  Uiso   1.00
C644   C     0.47396   0.16451   0.84978   0.00000  Uiso   1.00
C645   C     0.54174   0.02142   0.72275   0.00000  Uiso   1.00
C646   C     0.49946   0.04282   0.74971   0.00000  Uiso   1.00
C647   C     0.45789   0.02143   0.77750   0.00000  Uiso   1.00
C648   C     0.45830   0.31193   0.77766   0.00000  Uiso   1.00
C649   C     0.50055   0.29053   0.75062   0.00000  Uiso   1.00
C650   C     0.63638   0.19659   0.77862   0.00000  Uiso   1.00
C651   C     0.35234   0.19597   0.77777   0.00000  Uiso   1.00
C652   C     0.47800   0.16005   0.98940   0.00000  Uiso   1.00
C653   C     0.36361   0.13663   0.72145   0.00000  Uiso   1.00
C654   C     0.64768   0.13748   0.72204   0.00000  Uiso   1.00
C655   C     0.49964   0.08747   0.74995   0.00000  Uiso   1.00
C656   C     0.52605   0.16619   0.65013   0.00000  Uiso   1.00
C657   C     0.59483   0.13211   0.51316   0.00000  Uiso   1.00
C658   C     0.54061   0.16069   0.59335   0.00000  Uiso   1.00
C659   C     0.41151   0.17646   0.93445   0.00000  Uiso   1.00
C660   C     0.39735   0.18073   0.98842   0.00000  Uiso   1.00
C661   C     0.43026   0.17350   0.51574   0.00000  Uiso   1.00
C662   C     0.49024   0.15074   0.93498   0.00000  Uiso   1.00
C663   C     0.51384   0.15509   0.51534   0.00000  Uiso   1.00
C664   C     0.55913   0.13705   0.98799   0.00000  Uiso   1.00
C665   C     0.56788   0.12324   0.93623   0.00000  Uiso   1.00
C666   C     0.53370   0.12935   0.91032   0.00000  Uiso   1.00
C667   C     0.50626   0.16801   0.56760   0.00000  Uiso   1.00
C668   C     0.58547   0.14360   0.56578   0.00000  Uiso   1.00
Cu669  Cu    0.45311   0.16666   0.75000   0.00000  Uiso   1.00
Cu670  Cu    0.54689   0.16667   0.75000   0.00000  Uiso   1.00
H671   H     0.61249   0.13771   0.58524   0.00000  Uiso   1.00
H672   H     0.38602   0.18488   0.91410   0.00000  Uiso   1.00
H673   H     0.41671   0.17774   0.55753   0.00000  Uiso   1.00
H674   H     0.36102   0.19096   0.50917   0.00000  Uiso   1.00
H675   H     0.54147   0.11594   0.87118   0.00000  Uiso   1.00
H676   H     0.57462   0.29552   0.70103   0.00000  Uiso   1.00
H677   H     0.62689   0.23529   0.88434   0.00000  Uiso   1.00
H678   H     0.46387   0.06752   0.64377   0.00000  Uiso   1.00
H679   H     0.57411   0.03781   0.70104   0.00000  Uiso   1.00
H680   H     0.42556   0.03784   0.79971   0.00000  Uiso   1.00
H681   H     0.42594   0.29554   0.79937   0.00000  Uiso   1.00
H682   H     0.36710   0.21946   0.79897   0.00000  Uiso   1.00
H683   H     0.63279   0.11408   0.70083   0.00000  Uiso   1.00
H684   H     0.60136   0.10765   0.91558   0.00000  Uiso   1.00
H685   H     0.62946   0.11836   0.99247   0.00000  Uiso   1.00
H686   H     0.47358   0.18362   0.58962   0.00000  Uiso   1.00
N687   N     0.38265   0.16666   0.74998   0.00000  Uiso   1.00
N688   N     0.61735   0.16669   0.74999   0.00000  Uiso   1.00
O689   O     0.46042   0.22678   0.75000   0.00000  Uiso   1.00
O690   O     0.55312   0.23515   0.84249   0.00000  Uiso   1.00
O691   O     0.63315   0.25756   0.85898   0.00000  Uiso   1.00
O692   O     0.38773   0.05844   0.72713   0.00000  Uiso   1.00
O693   O     0.36857   0.07556   0.64849   0.00000  Uiso   1.00
O694   O     0.45253   0.09611   0.65488   0.00000  Uiso   1.00
O695   O     0.53961   0.22679   0.75000   0.00000  Uiso   1.00
O696   O     0.44108   0.16665   0.82549   0.00000  Uiso   1.00
O697   O     0.52027   0.16666   0.82549   0.00000  Uiso   1.00
O698   O     0.46039   0.10654   0.74999   0.00000  Uiso   1.00
O699   O     0.53958   0.10655   0.74999   0.00000  Uiso   1.00
O700   O     0.47973   0.16667   0.67451   0.00000  Uiso   1.00
O701   O     0.55892   0.16668   0.67451   0.00000  Uiso   1.00
O702   O     0.61103   0.27517   0.77662   0.00000  Uiso   1.00
S703   S     0.60578   0.24115   0.81412   0.00000  Uiso   1.00
S704   S     0.39361   0.09109   0.68772   0.00000  Uiso   1.00
C705   C     0.83367   0.24586   0.75020   0.00000  Uiso   1.00
C706   C     0.79156   0.16261   0.90702   0.00000  Uiso   1.00
C707   C     0.87554   0.31193   0.72302   0.00000  Uiso   1.00
C708   C     0.80729   0.16451   0.84978   0.00000  Uiso   1.00
C709   C     0.87508   0.02142   0.72275   0.00000  Uiso   1.00
C710   C     0.83280   0.04282   0.74971   0.00000  Uiso   1.00
C711   C     0.79122   0.02143   0.77750   0.00000  Uiso   1.00
C712   C     0.79163   0.31193   0.77766   0.00000  Uiso   1.00
C713   C     0.83388   0.29053   0.75062   0.00000  Uiso   1.00
C714   C     0.96971   0.19659   0.77862   0.00000  Uiso   1.00
C715   C     0.68567   0.19597   0.77777   0.00000  Uiso   1.00
C716   C     0.81133   0.16005   0.98940   0.00000  Uiso   1.00
C717   C     0.69695   0.13663   0.72145   0.00000  Uiso   1.00
C718   C     0.98101   0.13748   0.72204   0.00000  Uiso   1.00
C719   C     0.83297   0.08747   0.74995   0.00000  Uiso   1.00
C720   C     0.85938   0.16619   0.65013   0.00000  Uiso   1.00
C721   C     0.92816   0.13211   0.51316   0.00000  Uiso   1.00
C722   C     0.87394   0.16069   0.59335   0.00000  Uiso   1.00
C723   C     0.74485   0.17646   0.93445   0.00000  Uiso   1.00
C724   C     0.73068   0.18073   0.98842   0.00000  Uiso   1.00
C725   C     0.76359   0.17350   0.51574   0.00000  Uiso   1.00
C726   C     0.82357   0.15074   0.93498   0.00000  Uiso   1.00
C727   C     0.84717   0.15509   0.51534   0.00000  Uiso   1.00
C728   C     0.89247   0.13705   0.98799   0.00000  Uiso   1.00
C729   C     0.90122   0.12324   0.93623   0.00000  Uiso   1.00
C730   C     0.86703   0.12935   0.91032   0.00000  Uiso   1.00
C731   C     0.83960   0.16801   0.56760   0.00000  Uiso   1.00
C732   C     0.91881   0.14360   0.56578   0.00000  Uiso   1.00
Cu733  Cu    0.78645   0.16666   0.75000   0.00000  Uiso   1.00
Cu734  Cu    0.88022   0.16667   0.75000   0.00000  Uiso   1.00
H735   H     0.94582   0.13771   0.58524   0.00000  Uiso   1.00
H736   H     0.71935   0.18488   0.91410   0.00000  Uiso   1.00
H737   H     0.75004   0.17774   0.55753   0.00000  Uiso   1.00
H738   H     0.69436   0.19096   0.50917   0.00000  Uiso   1.00
H739   H     0.87481   0.11594   0.87118   0.00000  Uiso   1.00
H740   H     0.90796   0.29552   0.70103   0.00000  Uiso   1.00
H741   H     0.96022   0.23529   0.88434   0.00000  Uiso   1.00
H742   H     0.79720   0.06752   0.64377   0.00000  Uiso   1.00
H743   H     0.90744   0.03781   0.70104   0.00000  Uiso   1.00
H744   H     0.75889   0.03784   0.79971   0.00000  Uiso   1.00
H745   H     0.75927   0.29554   0.79937   0.00000  Uiso   1.00
H746   H     0.70043   0.21946   0.79897   0.00000  Uiso   1.00
H747   H     0.96612   0.11408   0.70083   0.00000  Uiso   1.00
H748   H     0.93470   0.10765   0.91558   0.00000  Uiso   1.00
H749   H     0.96279   0.11836   0.99247   0.00000  Uiso   1.00
H750   H     0.80691   0.18362   0.58962   0.00000  Uiso   1.00
N751   N     0.71598   0.16666   0.74998   0.00000  Uiso   1.00
N752   N     0.95069   0.16669   0.74999   0.00000  Uiso   1.00
O753   O     0.79375   0.22678   0.75000   0.00000  Uiso   1.00
O754   O     0.88645   0.23515   0.84249   0.00000  Uiso   1.00
O755   O     0.96649   0.25756   0.85898   0.00000  Uiso   1.00
O756   O     0.72106   0.05844   0.72713   0.00000  Uiso   1.00
O757   O     0.70191   0.07556   0.64849   0.00000  Uiso   1.00
O758   O     0.78587   0.09611   0.65488   0.00000  Uiso   1.00
O759   O     0.87294   0.22679   0.75000   0.00000  Uiso   1.00
O760   O     0.77441   0.16665   0.82549   0.00000  Uiso   1.00
O761   O     0.85360   0.16666   0.82549   0.00000  Uiso   1.00
O762   O     0.79373   0.10654   0.74999   0.00000  Uiso   1.00
O763   O     0.87292   0.10655   0.74999   0.00000  Uiso   1.00
O764   O     0.81306   0.16667   0.67451   0.00000  Uiso   1.00
O765   O     0.89225   0.16668   0.67451   0.00000  Uiso   1.00
O766   O     0.94436   0.27517   0.77662   0.00000  Uiso   1.00
S767   S     0.93911   0.24115   0.81412   0.00000  Uiso   1.00
S768   S     0.72695   0.09109   0.68772   0.00000  Uiso   1.00
C769   C     0.16700   0.57920   0.75020   0.00000  Uiso   1.00
C770   C     0.12489   0.49594   0.90702   0.00000  Uiso   1.00
C771   C     0.20887   0.64526   0.72302   0.00000  Uiso   1.00
C772   C     0.14062   0.49784   0.84978   0.00000  Uiso   1.00
C773   C     0.20841   0.35476   0.72275   0.00000  Uiso   1.00
C774   C     0.16613   0.37615   0.74971   0.00000  Uiso   1.00
C775   C     0.12455   0.35476   0.77750   0.00000  Uiso   1.00
C776   C     0.12496   0.64526   0.77766   0.00000  Uiso   1.00
C777   C     0.16722   0.62386   0.75062   0.00000  Uiso   1.00
C778   C     0.30304   0.52993   0.77862   0.00000  Uiso   1.00
C779   C     0.01901   0.52931   0.77777   0.00000  Uiso   1.00
C780   C     0.14467   0.49339   0.98940   0.00000  Uiso   1.00
C781   C     0.03028   0.46996   0.72145   0.00000  Uiso   1.00
C782   C     0.31434   0.47081   0.72204   0.00000  Uiso   1.00
C783   C     0.16631   0.42081   0.74995   0.00000  Uiso   1.00
C784   C     0.19272   0.49953   0.65013   0.00000  Uiso   1.00
C785   C     0.26149   0.46544   0.51316   0.00000  Uiso   1.00
C786   C     0.20727   0.49403   0.59335   0.00000  Uiso   1.00
C787   C     0.07818   0.50980   0.93445   0.00000  Uiso   1.00
C788   C     0.06402   0.51406   0.98842   0.00000  Uiso   1.00
C789   C     0.09692   0.50683   0.51574   0.00000  Uiso   1.00
C790   C     0.15690   0.48407   0.93498   0.00000  Uiso   1.00
C791   C     0.18051   0.48842   0.51534   0.00000  Uiso   1.00
C792   C     0.22580   0.47038   0.98799   0.00000  Uiso   1.00
C793   C     0.23455   0.45657   0.93623   0.00000  Uiso   1.00
C794   C     0.20036   0.46268   0.91032   0.00000  Uiso   1.00
C795   C     0.17293   0.50134   0.56760   0.00000  Uiso   1.00
C796   C     0.25214   0.47694   0.56578   0.00000  Uiso   1.00
Cu797  Cu    0.11978   0.49999   0.75000   0.00000  Uiso   1.00
Cu798  Cu    0.21355   0.50001   0.75000   0.00000  Uiso   1.00
H799   H     0.27916   0.47104   0.58524   0.00000  Uiso   1.00
H800   H     0.05269   0.51821   0.91410   0.00000  Uiso   1.00
H801   H     0.08337   0.51107   0.55753   0.00000  Uiso   1.00
H802   H     0.02769   0.52430   0.50917   0.00000  Uiso   1.00
H803   H     0.20814   0.44927   0.87118   0.00000  Uiso   1.00
H804   H     0.24129   0.62886   0.70103   0.00000  Uiso   1.00
H805   H     0.29356   0.56862   0.88434   0.00000  Uiso   1.00
H806   H     0.13054   0.40086   0.64377   0.00000  Uiso   1.00
H807   H     0.24077   0.37114   0.70104   0.00000  Uiso   1.00
H808   H     0.09222   0.37118   0.79971   0.00000  Uiso   1.00
H809   H     0.09260   0.62887   0.79937   0.00000  Uiso   1.00
H810   H     0.03377   0.55280   0.79897   0.00000  Uiso   1.00
H811   H     0.29946   0.44742   0.70083   0.00000  Uiso   1.00
H812   H     0.26803   0.44099   0.91558   0.00000  Uiso   1.00
H813   H     0.29613   0.45170   0.99247   0.00000  Uiso   1.00
H814   H     0.14024   0.51695   0.58962   0.00000  Uiso   1.00
N815   N     0.04931   0.49999   0.74998   0.00000  Uiso   1.00
N816   N     0.28402   0.50002   0.74999   0.00000  Uiso   1.00
O817   O     0.12708   0.56011   0.75000   0.00000  Uiso   1.00
O818   O     0.21978   0.56848   0.84249   0.00000  Uiso   1.00
O819   O     0.29982   0.59089   0.85898   0.00000  Uiso   1.00
O820   O     0.05439   0.39178   0.72713   0.00000  Uiso   1.00
O821   O     0.03524   0.40889   0.64849   0.00000  Uiso   1.00
O822   O     0.11920   0.42945   0.65488   0.00000  Uiso   1.00
O823   O     0.20627   0.56012   0.75000   0.00000  Uiso   1.00
O824   O     0.10775   0.49998   0.82549   0.00000  Uiso   1.00
O825   O     0.18694   0.49999   0.82549   0.00000  Uiso   1.00
O826   O     0.12706   0.43988   0.74999   0.00000  Uiso   1.00
O827   O     0.20625   0.43989   0.74999   0.00000  Uiso   1.00
O828   O     0.14640   0.50001   0.67451   0.00000  Uiso   1.00
O829   O     0.22559   0.50002   0.67451   0.00000  Uiso   1.00
O830   O     0.27770   0.60850   0.77662   0.00000  Uiso   1.00
S831   S     0.27244   0.57448   0.81412   0.00000  Uiso   1.00
S832   S     0.06028   0.42443   0.68772   0.00000  Uiso   1.00
C833   C     0.50034   0.57920   0.75020   0.00000  Uiso   1.00
C834   C     0.45823   0.49594   0.90702   0.00000  Uiso   1.00
C835   C     0.54220   0.64526   0.72302   0.00000  Uiso   1.00
C836   C     0.47396   0.49784   0.84978   0.00000  Uiso   1.00
C837   C     0.54174   0.35476   0.72275   0.00000  Uiso   1.00
C838   C     0.49946   0.37615   0.74971   0.00000  Uiso   1.00
C839   C     0.45789   0.35476   0.77750   0.00000  Uiso   1.00
C840   C     0.45830   0.64526   0.77766   0.00000  Uiso   1.00
C841   C     0.50055   0.62386   0.75062   0.00000  Uiso   1.00
C842   C     0.63638   0.52993   0.77862   0.00000  Uiso   1.00
C843   C     0.35234   0.52931   0.77777   0.00000  Uiso   1.00
C844   C     0.47800   0.49339   0.98940   0.00000  Uiso   1.00
C845   C     0.36361   0.46996   0.72145   0.00000  Uiso   1.00
C846   C     0.64768   0.47081   0.72204   0.00000  Uiso   1.00
C847   C     0.49964   0.42081   0.74995   0.00000  Uiso   1.00
C848   C     0.52605   0.49953   0.65013   0.00000  Uiso   1.00
C849   C     0.59483   0.46544   0.51316   0.00000  Uiso   1.00
C850   C     0.54061   0.49403   0.59335   0.00000  Uiso   1.00
C851   C     0.41151   0.50980   0.93445   0.00000  Uiso   1.00
C852   C     0.39735   0.51406   0.98842   0.00000  Uiso   1.00
C853   C     0.43026   0.50683   0.51574   0.00000  Uiso   1.00
C854   C     0.49024   0.48407   0.93498   0.00000  Uiso   1.00
C855   C     0.51384   0.48842   0.51534   0.00000  Uiso   1.00
C856   C     0.55913   0.47038   0.98799   0.00000  Uiso   1.00
C857   C     0.56788   0.45657   0.93623   0.00000  Uiso   1.00
C858   C     0.53370   0.46268   0.91032   0.00000  Uiso   1.00
C859   C     0.50626   0.50134   0.56760   0.00000  Uiso   1.00
C860   C     0.58547   0.47694   0.56578   0.00000  Uiso   1.00
Cu861  Cu    0.45311   0.49999   0.75000   0.00000  Uiso   1.00
Cu862  Cu    0.54689   0.50001   0.75000   0.00000  Uiso   1.00
H863   H     0.61249   0.47104   0.58524   0.00000  Uiso   1.00
H864   H     0.38602   0.51821   0.91410   0.00000  Uiso   1.00
H865   H     0.41671   0.51107   0.55753   0.00000  Uiso   1.00
H866   H     0.36102   0.52430   0.50917   0.00000  Uiso   1.00
H867   H     0.54147   0.44927   0.87118   0.00000  Uiso   1.00
H868   H     0.57462   0.62886   0.70103   0.00000  Uiso   1.00
H869   H     0.62689   0.56862   0.88434   0.00000  Uiso   1.00
H870   H     0.46387   0.40086   0.64377   0.00000  Uiso   1.00
H871   H     0.57411   0.37114   0.70104   0.00000  Uiso   1.00
H872   H     0.42556   0.37118   0.79971   0.00000  Uiso   1.00
H873   H     0.42594   0.62887   0.79937   0.00000  Uiso   1.00
H874   H     0.36710   0.55280   0.79897   0.00000  Uiso   1.00
H875   H     0.63279   0.44742   0.70083   0.00000  Uiso   1.00
H876   H     0.60136   0.44099   0.91558   0.00000  Uiso   1.00
H877   H     0.62946   0.45170   0.99247   0.00000  Uiso   1.00
H878   H     0.47358   0.51695   0.58962   0.00000  Uiso   1.00
N879   N     0.38265   0.49999   0.74998   0.00000  Uiso   1.00
N880   N     0.61735   0.50002   0.74999   0.00000  Uiso   1.00
O881   O     0.46042   0.56011   0.75000   0.00000  Uiso   1.00
O882   O     0.55312   0.56848   0.84249   0.00000  Uiso   1.00
O883   O     0.63315   0.59089   0.85898   0.00000  Uiso   1.00
O884   O     0.38773   0.39178   0.72713   0.00000  Uiso   1.00
O885   O     0.36857   0.40889   0.64849   0.00000  Uiso   1.00
O886   O     0.45253   0.42945   0.65488   0.00000  Uiso   1.00
O887   O     0.53961   0.56012   0.75000   0.00000  Uiso   1.00
O888   O     0.44108   0.49998   0.82549   0.00000  Uiso   1.00
O889   O     0.52027   0.49999   0.82549   0.00000  Uiso   1.00
O890   O     0.46039   0.43988   0.74999   0.00000  Uiso   1.00
O891   O     0.53958   0.43989   0.74999   0.00000  Uiso   1.00
O892   O     0.47973   0.50001   0.67451   0.00000  Uiso   1.00
O893   O     0.55892   0.50002   0.67451   0.00000  Uiso   1.00
O894   O     0.61103   0.60850   0.77662   0.00000  Uiso   1.00
S895   S     0.60578   0.57448   0.81412   0.00000  Uiso   1.00
S896   S     0.39361   0.42443   0.68772   0.00000  Uiso   1.00
C897   C     0.83367   0.57920   0.75020   0.00000  Uiso   1.00
C898   C     0.79156   0.49594   0.90702   0.00000  Uiso   1.00
C899   C     0.87554   0.64526   0.72302   0.00000  Uiso   1.00
C900   C     0.80729   0.49784   0.84978   0.00000  Uiso   1.00
C901   C     0.87508   0.35476   0.72275   0.00000  Uiso   1.00
C902   C     0.83280   0.37615   0.74971   0.00000  Uiso   1.00
C903   C     0.79122   0.35476   0.77750   0.00000  Uiso   1.00
C904   C     0.79163   0.64526   0.77766   0.00000  Uiso   1.00
C905   C     0.83388   0.62386   0.75062   0.00000  Uiso   1.00
C906   C     0.96971   0.52993   0.77862   0.00000  Uiso   1.00
C907   C     0.68567   0.52931   0.77777   0.00000  Uiso   1.00
C908   C     0.81133   0.49339   0.98940   0.00000  Uiso   1.00
C909   C     0.69695   0.46996   0.72145   0.00000  Uiso   1.00
C910   C     0.98101   0.47081   0.72204   0.00000  Uiso   1.00
C911   C     0.83297   0.42081   0.74995   0.00000  Uiso   1.00
C912   C     0.85938   0.49953   0.65013   0.00000  Uiso   1.00
C913   C     0.92816   0.46544   0.51316   0.00000  Uiso   1.00
C914   C     0.87394   0.49403   0.59335   0.00000  Uiso   1.00
C915   C     0.74485   0.50980   0.93445   0.00000  Uiso   1.00
C916   C     0.73068   0.51406   0.98842   0.00000  Uiso   1.00
C917   C     0.76359   0.50683   0.51574   0.00000  Uiso   1.00
C918   C     0.82357   0.48407   0.93498   0.00000  Uiso   1.00
C919   C     0.84717   0.48842   0.51534   0.00000  Uiso   1.00
C920   C     0.89247   0.47038   0.98799   0.00000  Uiso   1.00
C921   C     0.90122   0.45657   0.93623   0.00000  Uiso   1.00
C922   C     0.86703   0.46268   0.91032   0.00000  Uiso   1.00
C923   C     0.83960   0.50134   0.56760   0.00000  Uiso   1.00
C924   C     0.91881   0.47694   0.56578   0.00000  Uiso   1.00
Cu925  Cu    0.78645   0.49999   0.75000   0.00000  Uiso   1.00
Cu926  Cu    0.88022   0.50001   0.75000   0.00000  Uiso   1.00
H927   H     0.94582   0.47104   0.58524   0.00000  Uiso   1.00
H928   H     0.71935   0.51821   0.91410   0.00000  Uiso   1.00
H929   H     0.75004   0.51107   0.55753   0.00000  Uiso   1.00
H930   H     0.69436   0.52430   0.50917   0.00000  Uiso   1.00
H931   H     0.87481   0.44927   0.87118   0.00000  Uiso   1.00
H932   H     0.90796   0.62886   0.70103   0.00000  Uiso   1.00
H933   H     0.96022   0.56862   0.88434   0.00000  Uiso   1.00
H934   H     0.79720   0.40086   0.64377   0.00000  Uiso   1.00
H935   H     0.90744   0.37114   0.70104   0.00000  Uiso   1.00
H936   H     0.75889   0.37118   0.79971   0.00000  Uiso   1.00
H937   H     0.75927   0.62887   0.79937   0.00000  Uiso   1.00
H938   H     0.70043   0.55280   0.79897   0.00000  Uiso   1.00
H939   H     0.96612   0.44742   0.70083   0.00000  Uiso   1.00
H940   H     0.93470   0.44099   0.91558   0.00000  Uiso   1.00
H941   H     0.96279   0.45170   0.99247   0.00000  Uiso   1.00
H942   H     0.80691   0.51695   0.58962   0.00000  Uiso   1.00
N943   N     0.71598   0.49999   0.74998   0.00000  Uiso   1.00
N944   N     0.95069   0.50002   0.74999   0.00000  Uiso   1.00
O945   O     0.79375   0.56011   0.75000   0.00000  Uiso   1.00
O946   O     0.88645   0.56848   0.84249   0.00000  Uiso   1.00
O947   O     0.96649   0.59089   0.85898   0.00000  Uiso   1.00
O948   O     0.72106   0.39178   0.72713   0.00000  Uiso   1.00
O949   O     0.70191   0.40889   0.64849   0.00000  Uiso   1.00
O950   O     0.78587   0.42945   0.65488   0.00000  Uiso   1.00
O951   O     0.87294   0.56012   0.75000   0.00000  Uiso   1.00
O952   O     0.77441   0.49998   0.82549   0.00000  Uiso   1.00
O953   O     0.85360   0.49999   0.82549   0.00000  Uiso   1.00
O954   O     0.79373   0.43988   0.74999   0.00000  Uiso   1.00
O955   O     0.87292   0.43989   0.74999   0.00000  Uiso   1.00
O956   O     0.81306   0.50001   0.67451   0.00000  Uiso   1.00
O957   O     0.89225   0.50002   0.67451   0.00000  Uiso   1.00
O958   O     0.94436   0.60850   0.77662   0.00000  Uiso   1.00
S959   S     0.93911   0.57448   0.81412   0.00000  Uiso   1.00
S960   S     0.72695   0.42443   0.68772   0.00000  Uiso   1.00
C961   C     0.16700   0.91253   0.75020   0.00000  Uiso   1.00
C962   C     0.12489   0.82928   0.90702   0.00000  Uiso   1.00
C963   C     0.20887   0.97860   0.72302   0.00000  Uiso   1.00
C964   C     0.14062   0.83118   0.84978   0.00000  Uiso   1.00
C965   C     0.20841   0.68809   0.72275   0.00000  Uiso   1.00
C966   C     0.16613   0.70948   0.74971   0.00000  Uiso   1.00
C967   C     0.12455   0.68809   0.77750   0.00000  Uiso   1.00
C968   C     0.12496   0.97859   0.77766   0.00000  Uiso   1.00
C969   C     0.16722   0.95719   0.75062   0.00000  Uiso   1.00
C970   C     0.30304   0.86326   0.77862   0.00000  Uiso   1.00
C971   C     0.01901   0.86264   0.77777   0.00000  Uiso   1.00
C972   C     0.14467   0.82672   0.98940   0.00000  Uiso   1.00
C973   C     0.03028   0.80330   0.72145   0.00000  Uiso   1.00
C974   C     0.31434   0.80414   0.72204   0.00000  Uiso   1.00
C975   C     0.16631   0.75414   0.74995   0.00000  Uiso   1.00
C976   C     0.19272   0.83286   0.65013   0.00000  Uiso   1.00
C977   C     0.26149   0.79878   0.51316   0.00000  Uiso   1.00
C978   C     0.20727   0.82736   0.59335   0.00000  Uiso   1.00
C979   C     0.07818   0.84313   0.93445   0.00000  Uiso   1.00
C980   C     0.06402   0.84739   0.98842   0.00000  Uiso   1.00
C981   C     0.09692   0.84016   0.51574   0.00000  Uiso   1.00
C982   C     0.15690   0.81740   0.93498   0.00000  Uiso   1.00
C983   C     0.18051   0.82175   0.51534   0.00000  Uiso   1.00
C984   C     0.22580   0.80371   0.98799   0.00000  Uiso   1.00
C985   C     0.23455   0.78991   0.93623   0.00000  Uiso   1.00
C986   C     0.20036   0.79601   0.91032   0.00000  Uiso   1.00
C987   C     0.17293   0.83468   0.56760   0.00000  Uiso   1.00
C988   C     0.25214   0.81027   0.56578   0.00000  Uiso   1.00
Cu989  Cu    0.11978   0.83333   0.75000   0.00000  Uiso   1.00
Cu990  Cu    0.21355   0.83334   0.75000   0.00000  Uiso   1.00
H991   H     0.27916   0.80437   0.58524   0.00000  Uiso   1.00
H992   H     0.05269   0.85155   0.91410   0.00000  Uiso   1.00
H993   H     0.08337   0.84440   0.55753   0.00000  Uiso   1.00
H994   H     0.02769   0.85763   0.50917   0.00000  Uiso   1.00
H995   H     0.20814   0.78261   0.87118   0.00000  Uiso   1.00
H996   H     0.24129   0.96219   0.70103   0.00000  Uiso   1.00
H997   H     0.29356   0.90195   0.88434   0.00000  Uiso   1.00
H998   H     0.13054   0.73419   0.64377   0.00000  Uiso   1.00
H999   H     0.24077   0.70448   0.70104   0.00000  Uiso   1.00
H1000  H     0.09222   0.70451   0.79971   0.00000  Uiso   1.00
H1001  H     0.09260   0.96220   0.79937   0.00000  Uiso   1.00
H1002  H     0.03377   0.88613   0.79897   0.00000  Uiso   1.00
H1003  H     0.29946   0.78075   0.70083   0.00000  Uiso   1.00
H1004  H     0.26803   0.77432   0.91558   0.00000  Uiso   1.00
H1005  H     0.29613   0.78503   0.99247   0.00000  Uiso   1.00
H1006  H     0.14024   0.85028   0.58962   0.00000  Uiso   1.00
N1007  N     0.04931   0.83332   0.74998   0.00000  Uiso   1.00
N1008  N     0.28402   0.83335   0.74999   0.00000  Uiso   1.00
O1009  O     0.12708   0.89345   0.75000   0.00000  Uiso   1.00
O1010  O     0.21978   0.90182   0.84249   0.00000  Uiso   1.00
O1011  O     0.29982   0.92422   0.85898   0.00000  Uiso   1.00
O1012  O     0.05439   0.72511   0.72713   0.00000  Uiso   1.00
O1013  O     0.03524   0.74222   0.64849   0.00000  Uiso   1.00
O1014  O     0.11920   0.76278   0.65488   0.00000  Uiso   1.00
O1015  O     0.20627   0.89346   0.75000   0.00000  Uiso   1.00
O1016  O     0.10775   0.83332   0.82549   0.00000  Uiso   1.00
O1017  O     0.18694   0.83333   0.82549   0.00000  Uiso   1.00
O1018  O     0.12706   0.77321   0.74999   0.00000  Uiso   1.00
O1019  O     0.20625   0.77322   0.74999   0.00000  Uiso   1.00
O1020  O     0.14640   0.83334   0.67451   0.00000  Uiso   1.00
O1021  O     0.22559   0.83335   0.67451   0.00000  Uiso   1.00
O1022  O     0.27770   0.94184   0.77662   0.00000  Uiso   1.00
S1023  S     0.27244   0.90782   0.81412   0.00000  Uiso   1.00
S1024  S     0.06028   0.75776   0.68772   0.00000  Uiso   1.00
C1025  C     0.50034   0.91253   0.75020   0.00000  Uiso   1.00
C1026  C     0.45823   0.82928   0.90702   0.00000  Uiso   1.00
C1027  C     0.54220   0.97860   0.72302   0.00000  Uiso   1.00
C1028  C     0.47396   0.83118   0.84978   0.00000  Uiso   1.00
C1029  C     0.54174   0.68809   0.72275   0.00000  Uiso   1.00
C1030  C     0.49946   0.70948   0.74971   0.00000  Uiso   1.00
C1031  C     0.45789   0.68809   0.77750   0.00000  Uiso   1.00
C1032  C     0.45830   0.97859   0.77766   0.00000  Uiso   1.00
C1033  C     0.50055   0.95719   0.75062   0.00000  Uiso   1.00
C1034  C     0.63638   0.86326   0.77862   0.00000  Uiso   1.00
C1035  C     0.35234   0.86264   0.77777   0.00000  Uiso   1.00
C1036  C     0.47800   0.82672   0.98940   0.00000  Uiso   1.00
C1037  C     0.36361   0.80330   0.72145   0.00000  Uiso   1.00
C1038  C     0.64768   0.80414   0.72204   0.00000  Uiso   1.00
C1039  C     0.49964   0.75414   0.74995   0.00000  Uiso   1.00
C1040  C     0.52605   0.83286   0.65013   0.00000  Uiso   1.00
C1041  C     0.59483   0.79878   0.51316   0.00000  Uiso   1.00
C1042  C     0.54061   0.82736   0.59335   0.00000  Uiso   1.00
C1043  C     0.41151   0.84313   0.93445   0.00000  Uiso   1.00
C1044  C     0.39735   0.84739   0.98842   0.00000  Uiso   1.00
C1045  C     0.43026   0.84016   0.51574   0.00000  Uiso   1.00
C1046  C     0.49024   0.81740   0.93498   0.00000  Uiso   1.00
C1047  C     0.51384   0.82175   0.51534   0.00000  Uiso   1.00
C1048  C     0.55913   0.80371   0.98799   0.00000  Uiso   1.00
C1049  C     0.56788   0.78991   0.93623   0.00000  Uiso   1.00
C1050  C     0.53370   0.79601   0.91032   0.00000  Uiso   1.00
C1051  C     0.50626   0.83468   0.56760   0.00000  Uiso   1.00
C1052  C     0.58547   0.81027   0.56578   0.00000  Uiso   1.00
Cu1053 Cu    0.45311   0.83333   0.75000   0.00000  Uiso   1.00
Cu1054 Cu    0.54689   0.83334   0.75000   0.00000  Uiso   1.00
H1055  H     0.61249   0.80437   0.58524   0.00000  Uiso   1.00
H1056  H     0.38602   0.85155   0.91410   0.00000  Uiso   1.00
H1057  H     0.41671   0.84440   0.55753   0.00000  Uiso   1.00
H1058  H     0.36102   0.85763   0.50917   0.00000  Uiso   1.00
H1059  H     0.54147   0.78261   0.87118   0.00000  Uiso   1.00
H1060  H     0.57462   0.96219   0.70103   0.00000  Uiso   1.00
H1061  H     0.62689   0.90195   0.88434   0.00000  Uiso   1.00
H1062  H     0.46387   0.73419   0.64377   0.00000  Uiso   1.00
H1063  H     0.57411   0.70448   0.70104   0.00000  Uiso   1.00
H1064  H     0.42556   0.70451   0.79971   0.00000  Uiso   1.00
H1065  H     0.42594   0.96220   0.79937   0.00000  Uiso   1.00
H1066  H     0.36710   0.88613   0.79897   0.00000  Uiso   1.00
H1067  H     0.63279   0.78075   0.70083   0.00000  Uiso   1.00
H1068  H     0.60136   0.77432   0.91558   0.00000  Uiso   1.00
H1069  H     0.62946   0.78503   0.99247   0.00000  Uiso   1.00
H1070  H     0.47358   0.85028   0.58962   0.00000  Uiso   1.00
N1071  N     0.38265   0.83332   0.74998   0.00000  Uiso   1.00
N1072  N     0.61735   0.83335   0.74999   0.00000  Uiso   1.00
O1073  O     0.46042   0.89345   0.75000   0.00000  Uiso   1.00
O1074  O     0.55312   0.90182   0.84249   0.00000  Uiso   1.00
O1075  O     0.63315   0.92422   0.85898   0.00000  Uiso   1.00
O1076  O     0.38773   0.72511   0.72713   0.00000  Uiso   1.00
O1077  O     0.36857   0.74222   0.64849   0.00000  Uiso   1.00
O1078  O     0.45253   0.76278   0.65488   0.00000  Uiso   1.00
O1079  O     0.53961   0.89346   0.75000   0.00000  Uiso   1.00
O1080  O     0.44108   0.83332   0.82549   0.00000  Uiso   1.00
O1081  O     0.52027   0.83333   0.82549   0.00000  Uiso   1.00
O1082  O     0.46039   0.77321   0.74999   0.00000  Uiso   1.00
O1083  O     0.53958   0.77322   0.74999   0.00000  Uiso   1.00
O1084  O     0.47973   0.83334   0.67451   0.00000  Uiso   1.00
O1085  O     0.55892   0.83335   0.67451   0.00000  Uiso   1.00
O1086  O     0.61103   0.94184   0.77662   0.00000  Uiso   1.00
S1087  S     0.60578   0.90782   0.81412   0.00000  Uiso   1.00
S1088  S     0.39361   0.75776   0.68772   0.00000  Uiso   1.00
C1089  C     0.83367   0.91253   0.75020   0.00000  Uiso   1.00
C1090  C     0.79156   0.82928   0.90702   0.00000  Uiso   1.00
C1091  C     0.87554   0.97860   0.72302   0.00000  Uiso   1.00
C1092  C     0.80729   0.83118   0.84978   0.00000  Uiso   1.00
C1093  C     0.87508   0.68809   0.72275   0.00000  Uiso   1.00
C1094  C     0.83280   0.70948   0.74971   0.00000  Uiso   1.00
C1095  C     0.79122   0.68809   0.77750   0.00000  Uiso   1.00
C1096  C     0.79163   0.97859   0.77766   0.00000  Uiso   1.00
C1097  C     0.83388   0.95719   0.75062   0.00000  Uiso   1.00
C1098  C     0.96971   0.86326   0.77862   0.00000  Uiso   1.00
C1099  C     0.68567   0.86264   0.77777   0.00000  Uiso   1.00
C1100  C     0.81133   0.82672   0.98940   0.00000  Uiso   1.00
C1101  C     0.69695   0.80330   0.72145   0.00000  Uiso   1.00
C1102  C     0.98101   0.80414   0.72204   0.00000  Uiso   1.00
C1103  C     0.83297   0.75414   0.74995   0.00000  Uiso   1.00
C1104  C     0.85938   0.83286   0.65013   0.00000  Uiso   1.00
C1105  C     0.92816   0.79878   0.51316   0.00000  Uiso   1.00
C1106  C     0.87394   0.82736   0.59335   0.00000  Uiso   1.00
C1107  C     0.74485   0.84313   0.93445   0.00000  Uiso   1.00
C1108  C     0.73068   0.84739   0.98842   0.00000  Uiso   1.00
C1109  C     0.76359   0.84016   0.51574   0.00000  Uiso   1.00
C1110  C     0.82357   0.81740   0.93498   0.00000  Uiso   1.00
C1111  C     0.84717   0.82175   0.51534   0.00000  Uiso   1.00
C1112  C     0.89247   0.80371   0.98799   0.00000  Uiso   1.00
C1113  C     0.90122   0.78991   0.93623   0.00000  Uiso   1.00
C1114  C     0.86703   0.79601   0.91032   0.00000  Uiso   1.00
C1115  C     0.83960   0.83468   0.56760   0.00000  Uiso   1.00
C1116  C     0.91881   0.81027   0.56578   0.00000  Uiso   1.00
Cu1117 Cu    0.78645   0.83333   0.75000   0.00000  Uiso   1.00
Cu1118 Cu    0.88022   0.83334   0.75000   0.00000  Uiso   1.00
H1119  H     0.94582   0.80437   0.58524   0.00000  Uiso   1.00
H1120  H     0.71935   0.85155   0.91410   0.00000  Uiso   1.00
H1121  H     0.75004   0.84440   0.55753   0.00000  Uiso   1.00
H1122  H     0.69436   0.85763   0.50917   0.00000  Uiso   1.00
H1123  H     0.87481   0.78261   0.87118   0.00000  Uiso   1.00
H1124  H     0.90796   0.96219   0.70103   0.00000  Uiso   1.00
H1125  H     0.96022   0.90195   0.88434   0.00000  Uiso   1.00
H1126  H     0.79720   0.73419   0.64377   0.00000  Uiso   1.00
H1127  H     0.90744   0.70448   0.70104   0.00000  Uiso   1.00
H1128  H     0.75889   0.70451   0.79971   0.00000  Uiso   1.00
H1129  H     0.75927   0.96220   0.79937   0.00000  Uiso   1.00
H1130  H     0.70043   0.88613   0.79897   0.00000  Uiso   1.00
H1131  H     0.96612   0.78075   0.70083   0.00000  Uiso   1.00
H1132  H     0.93470   0.77432   0.91558   0.00000  Uiso   1.00
H1133  H     0.96279   0.78503   0.99247   0.00000  Uiso   1.00
H1134  H     0.80691   0.85028   0.58962   0.00000  Uiso   1.00
N1135  N     0.71598   0.83332   0.74998   0.00000  Uiso   1.00
N1136  N     0.95069   0.83335   0.74999   0.00000  Uiso   1.00
O1137  O     0.79375   0.89345   0.75000   0.00000  Uiso   1.00
O1138  O     0.88645   0.90182   0.84249   0.00000  Uiso   1.00
O1139  O     0.96649   0.92422   0.85898   0.00000  Uiso   1.00
O1140  O     0.72106   0.72511   0.72713   0.00000  Uiso   1.00
O1141  O     0.70191   0.74222   0.64849   0.00000  Uiso   1.00
O1142  O     0.78587   0.76278   0.65488   0.00000  Uiso   1.00
O1143  O     0.87294   0.89346   0.75000   0.00000  Uiso   1.00
O1144  O     0.77441   0.83332   0.82549   0.00000  Uiso   1.00
O1145  O     0.85360   0.83333   0.82549   0.00000  Uiso   1.00
O1146  O     0.79373   0.77321   0.74999   0.00000  Uiso   1.00
O1147  O     0.87292   0.77322   0.74999   0.00000  Uiso   1.00
O1148  O     0.81306   0.83334   0.67451   0.00000  Uiso   1.00
O1149  O     0.89225   0.83335   0.67451   0.00000  Uiso   1.00
O1150  O     0.94436   0.94184   0.77662   0.00000  Uiso   1.00
S1151  S     0.93911   0.90782   0.81412   0.00000  Uiso   1.00
S1152  S     0.72695   0.75776   0.68772   0.00000  Uiso   1.00
loop_
_geom_bond_atom_site_label_1
_geom_bond_atom_site_label_2
_geom_bond_distance
_geom_bond_site_symmetry_2
_ccdc_geom_bond_type
C1     O55     1.301   .     A
C1     C9      1.443   .     S
C1     O49     1.293   .     A
C2     C22     1.420   .     A
C2     C4      1.473   .     S
C2     C19     1.404   .     A
C3     C9      1.397   .     A
C3     H36     1.083   .     S
C3     C197    1.385   .     S
C4     O57     1.304   .     A
C4     O56     1.304   .     A
C5     H39     1.084   .     S
C5     C6      1.401   .     A
C5     C387    1.385   1_545 S
C6     C7      1.397   .     A
C6     C15     1.443   .     S
C7     H40     1.083   .     S
C7     C392    1.385   1_545 S
C8     H41     1.084   .     S
C8     C9      1.401   .     A
C8     C199    1.385   .     S
C10    S63     1.789   .     S
C10    N48     1.406   .     A
C10    C75     1.415   .     S
C11    N47     1.345   .     A
C11    H42     1.080   .     S
C11    C138    1.415   1_455 S
C12    C22     1.418   .     A
C12    C597    1.418   .     S
C12    C599    1.422   .     S
C13    S64     1.792   .     S
C13    N47     1.407   .     A
C13    C142    1.417   1_455 S
C14    N48     1.344   .     A
C14    H43     1.080   .     S
C14    C77     1.417   .     S
C15    O58     1.302   .     A
C15    O59     1.293   .     A
C16    C18     1.461   .     S
C16    O60     1.303   .     A
C16    O61     1.300   .     A
C17    C28     1.392   .     A
C17    C600    1.403   1_554 S
C17    H621    1.084   1_554 S
C18    C28     1.400   .     A
C18    C27     1.395   .     A
C19    H32     1.083   .     S
C19    C20     1.386   .     A
C20    C597    1.390   .     S
C20    H610    1.083   .     S
C21    H33     1.077   .     S
C21    C588    1.418   1_554 S
C21    C596    1.390   1_554 S
C22    C26     1.413   .     A
C23    C27     1.400   .     A
C23    C588    1.422   1_554 S
C23    C600    1.420   1_554 S
C24    C25     1.391   .     A
C24    C593    1.403   .     S
C24    C599    1.420   .     S
C25    C26     1.386   .     A
C25    H44     1.084   .     S
C26    H35     1.080   .     S
C27    H46     1.077   .     S
C28    H31     1.083   .     S
Cu29   O56     1.953   .     S
Cu29   O60     1.944   .     S
Cu29   O49     1.949   .     S
Cu29   Cu30    2.704   .     S
Cu29   N47     2.032   .     S
Cu29   O58     1.960   .     S
Cu30   O55     1.960   .     S
Cu30   O59     1.949   .     S
Cu30   N48     2.032   .     S
Cu30   O57     1.944   .     S
Cu30   O61     1.953   .     S
H34    C596    1.083   1_554 S
H37    O51     0.991   .     S
H38    O54     0.991   .     S
H45    C593    1.084   .     S
O50    S63     1.497   .     D
O51    S63     1.683   .     S
O52    S64     1.501   .     D
O53    S64     1.504   .     D
O54    S64     1.675   .     S
O62    S63     1.501   .     D
C65    O119    1.301   .     A
C65    C73     1.443   .     S
C65    O113    1.293   .     A
C66    C86     1.420   .     A
C66    C68     1.473   .     S
C66    C83     1.404   .     A
C67    C73     1.397   .     A
C67    H100    1.083   .     S
C67    C261    1.385   .     S
C68    O121    1.304   .     A
C68    O120    1.304   .     A
C69    H103    1.084   .     S
C69    C70     1.401   .     A
C69    C451    1.385   1_545 S
C70    C71     1.397   .     A
C70    C79     1.443   .     S
C71    H104    1.083   .     S
C71    C456    1.385   1_545 S
C72    H105    1.084   .     S
C72    C73     1.401   .     A
C72    C263    1.385   .     S
C74    S127    1.789   .     S
C74    N112    1.406   .     A
C74    C139    1.415   .     S
C75    N111    1.345   .     A
C75    H106    1.080   .     S
C76    C86     1.418   .     A
C76    C661    1.418   .     S
C76    C663    1.422   .     S
C77    S128    1.792   .     S
C77    N111    1.407   .     A
C78    N112    1.344   .     A
C78    H107    1.080   .     S
C78    C141    1.417   .     S
C79    O122    1.302   .     A
C79    O123    1.293   .     A
C80    C82     1.461   .     S
C80    O124    1.303   .     A
C80    O125    1.300   .     A
C81    C92     1.392   .     A
C81    C664    1.403   1_554 S
C81    H685    1.084   1_554 S
C82    C92     1.400   .     A
C82    C91     1.395   .     A
C83    H96     1.083   .     S
C83    C84     1.386   .     A
C84    C661    1.390   .     S
C84    H674    1.083   .     S
C85    H97     1.077   .     S
C85    C652    1.418   1_554 S
C85    C660    1.390   1_554 S
C86    C90     1.413   .     A
C87    C91     1.400   .     A
C87    C652    1.422   1_554 S
C87    C664    1.420   1_554 S
C88    C89     1.391   .     A
C88    C657    1.403   .     S
C88    C663    1.420   .     S
C89    C90     1.386   .     A
C89    H108    1.084   .     S
C90    H99     1.080   .     S
C91    H110    1.077   .     S
C92    H95     1.083   .     S
Cu93   O120    1.953   .     S
Cu93   O124    1.944   .     S
Cu93   O113    1.949   .     S
Cu93   Cu94    2.704   .     S
Cu93   N111    2.032   .     S
Cu93   O122    1.960   .     S
Cu94   O119    1.960   .     S
Cu94   O123    1.949   .     S
Cu94   N112    2.032   .     S
Cu94   O121    1.944   .     S
Cu94   O125    1.953   .     S
H98    C660    1.083   1_554 S
H101   O115    0.991   .     S
H102   O118    0.991   .     S
H109   C657    1.084   .     S
O114   S127    1.497   .     D
O115   S127    1.683   .     S
O116   S128    1.501   .     D
O117   S128    1.504   .     D
O118   S128    1.675   .     S
O126   S127    1.501   .     D
C129   O183    1.301   .     A
C129   C137    1.443   .     S
C129   O177    1.293   .     A
C130   C150    1.420   .     A
C130   C132    1.473   .     S
C130   C147    1.404   .     A
C131   C137    1.397   .     A
C131   H164    1.083   .     S
C131   C325    1.385   .     S
C132   O185    1.304   .     A
C132   O184    1.304   .     A
C133   H167    1.084   .     S
C133   C134    1.401   .     A
C133   C515    1.385   1_545 S
C134   C135    1.397   .     A
C134   C143    1.443   .     S
C135   H168    1.083   .     S
C135   C520    1.385   1_545 S
C136   H169    1.084   .     S
C136   C137    1.401   .     A
C136   C327    1.385   .     S
C138   S191    1.789   .     S
C138   N176    1.406   .     A
C138   C11     1.415   1_655 S
C139   N175    1.345   .     A
C139   H170    1.080   .     S
C140   C150    1.418   .     A
C140   C725    1.418   .     S
C140   C727    1.422   .     S
C141   S192    1.792   .     S
C141   N175    1.407   .     A
C142   N176    1.344   .     A
C142   H171    1.080   .     S
C142   C13     1.417   1_655 S
C143   O186    1.302   .     A
C143   O187    1.293   .     A
C144   C146    1.461   .     S
C144   O188    1.303   .     A
C144   O189    1.300   .     A
C145   C156    1.392   .     A
C145   C728    1.403   1_554 S
C145   H749    1.084   1_554 S
C146   C156    1.400   .     A
C146   C155    1.395   .     A
C147   H160    1.083   .     S
C147   C148    1.386   .     A
C148   C725    1.390   .     S
C148   H738    1.083   .     S
C149   H161    1.077   .     S
C149   C716    1.418   1_554 S
C149   C724    1.390   1_554 S
C150   C154    1.413   .     A
C151   C155    1.400   .     A
C151   C716    1.422   1_554 S
C151   C728    1.420   1_554 S
C152   C153    1.391   .     A
C152   C721    1.403   .     S
C152   C727    1.420   .     S
C153   C154    1.386   .     A
C153   H172    1.084   .     S
C154   H163    1.080   .     S
C155   H174    1.077   .     S
C156   H159    1.083   .     S
Cu157  O184    1.953   .     S
Cu157  O188    1.944   .     S
Cu157  O177    1.949   .     S
Cu157  Cu158   2.704   .     S
Cu157  N175    2.032   .     S
Cu157  O186    1.960   .     S
Cu158  O183    1.960   .     S
Cu158  O187    1.949   .     S
Cu158  N176    2.032   .     S
Cu158  O185    1.944   .     S
Cu158  O189    1.953   .     S
H162   C724    1.083   1_554 S
H165   O179    0.991   .     S
H166   O182    0.991   .     S
H173   C721    1.084   .     S
O178   S191    1.497   .     D
O179   S191    1.683   .     S
O180   S192    1.501   .     D
O181   S192    1.504   .     D
O182   S192    1.675   .     S
O190   S191    1.501   .     D
C193   O247    1.301   .     A
C193   C201    1.443   .     S
C193   O241    1.293   .     A
C194   C214    1.420   .     A
C194   C196    1.473   .     S
C194   C211    1.404   .     A
C195   C201    1.397   .     A
C195   H228    1.083   .     S
C195   C389    1.385   .     S
C196   O249    1.304   .     A
C196   O248    1.304   .     A
C197   H231    1.084   .     S
C197   C198    1.401   .     A
C198   C199    1.397   .     A
C198   C207    1.443   .     S
C199   H232    1.083   .     S
C200   H233    1.084   .     S
C200   C201    1.401   .     A
C200   C391    1.385   .     S
C202   S255    1.789   .     S
C202   N240    1.406   .     A
C202   C267    1.415   .     S
C203   N239    1.345   .     A
C203   H234    1.080   .     S
C203   C330    1.415   1_455 S
C204   C214    1.418   .     A
C204   C789    1.418   .     S
C204   C791    1.422   .     S
C205   S256    1.792   .     S
C205   N239    1.407   .     A
C205   C334    1.417   1_455 S
C206   N240    1.344   .     A
C206   H235    1.080   .     S
C206   C269    1.417   .     S
C207   O250    1.302   .     A
C207   O251    1.293   .     A
C208   C210    1.461   .     S
C208   O252    1.303   .     A
C208   O253    1.300   .     A
C209   C220    1.392   .     A
C209   C792    1.403   1_554 S
C209   H813    1.084   1_554 S
C210   C220    1.400   .     A
C210   C219    1.395   .     A
C211   H224    1.083   .     S
C211   C212    1.386   .     A
C212   C789    1.390   .     S
C212   H802    1.083   .     S
C213   H225    1.077   .     S
C213   C780    1.418   1_554 S
C213   C788    1.390   1_554 S
C214   C218    1.413   .     A
C215   C219    1.400   .     A
C215   C780    1.422   1_554 S
C215   C792    1.420   1_554 S
C216   C217    1.391   .     A
C216   C785    1.403   .     S
C216   C791    1.420   .     S
C217   C218    1.386   .     A
C217   H236    1.084   .     S
C218   H227    1.080   .     S
C219   H238    1.077   .     S
C220   H223    1.083   .     S
Cu221  O248    1.953   .     S
Cu221  O252    1.944   .     S
Cu221  O241    1.949   .     S
Cu221  Cu222   2.704   .     S
Cu221  N239    2.032   .     S
Cu221  O250    1.960   .     S
Cu222  O247    1.960   .     S
Cu222  O251    1.949   .     S
Cu222  N240    2.032   .     S
Cu222  O249    1.944   .     S
Cu222  O253    1.953   .     S
H226   C788    1.083   1_554 S
H229   O243    0.991   .     S
H230   O246    0.991   .     S
H237   C785    1.084   .     S
O242   S255    1.497   .     D
O243   S255    1.683   .     S
O244   S256    1.501   .     D
O245   S256    1.504   .     D
O246   S256    1.675   .     S
O254   S255    1.501   .     D
C257   O311    1.301   .     A
C257   C265    1.443   .     S
C257   O305    1.293   .     A
C258   C278    1.420   .     A
C258   C260    1.473   .     S
C258   C275    1.404   .     A
C259   C265    1.397   .     A
C259   H292    1.083   .     S
C259   C453    1.385   .     S
C260   O313    1.304   .     A
C260   O312    1.304   .     A
C261   H295    1.084   .     S
C261   C262    1.401   .     A
C262   C263    1.397   .     A
C262   C271    1.443   .     S
C263   H296    1.083   .     S
C264   H297    1.084   .     S
C264   C265    1.401   .     A
C264   C455    1.385   .     S
C266   S319    1.789   .     S
C266   N304    1.406   .     A
C266   C331    1.415   .     S
C267   N303    1.345   .     A
C267   H298    1.080   .     S
C268   C278    1.418   .     A
C268   C853    1.418   .     S
C268   C855    1.422   .     S
C269   S320    1.792   .     S
C269   N303    1.407   .     A
C270   N304    1.344   .     A
C270   H299    1.080   .     S
C270   C333    1.417   .     S
C271   O314    1.302   .     A
C271   O315    1.293   .     A
C272   C274    1.461   .     S
C272   O316    1.303   .     A
C272   O317    1.300   .     A
C273   C284    1.392   .     A
C273   C856    1.403   1_554 S
C273   H877    1.084   1_554 S
C274   C284    1.400   .     A
C274   C283    1.395   .     A
C275   H288    1.083   .     S
C275   C276    1.386   .     A
C276   C853    1.390   .     S
C276   H866    1.083   .     S
C277   H289    1.077   .     S
C277   C844    1.418   1_554 S
C277   C852    1.390   1_554 S
C278   C282    1.413   .     A
C279   C283    1.400   .     A
C279   C844    1.422   1_554 S
C279   C856    1.420   1_554 S
C280   C281    1.391   .     A
C280   C849    1.403   .     S
C280   C855    1.420   .     S
C281   C282    1.386   .     A
C281   H300    1.084   .     S
C282   H291    1.080   .     S
C283   H302    1.077   .     S
C284   H287    1.083   .     S
Cu285  O312    1.953   .     S
Cu285  O316    1.944   .     S
Cu285  O305    1.949   .     S
Cu285  Cu286   2.704   .     S
Cu285  N303    2.032   .     S
Cu285  O314    1.960   .     S
Cu286  O311    1.960   .     S
Cu286  O315    1.949   .     S
Cu286  N304    2.032   .     S
Cu286  O313    1.944   .     S
Cu286  O317    1.953   .     S
H290   C852    1.083   1_554 S
H293   O307    0.991   .     S
H294   O310    0.991   .     S
H301   C849    1.084   .     S
O306   S319    1.497   .     D
O307   S319    1.683   .     S
O308   S320    1.501   .     D
O309   S320    1.504   .     D
O310   S320    1.675   .     S
O318   S319    1.501   .     D
C321   O375    1.301   .     A
C321   C329    1.443   .     S
C321   O369    1.293   .     A
C322   C342    1.420   .     A
C322   C324    1.473   .     S
C322   C339    1.404   .     A
C323   C329    1.397   .     A
C323   H356    1.083   .     S
C323   C517    1.385   .     S
C324   O377    1.304   .     A
C324   O376    1.304   .     A
C325   H359    1.084   .     S
C325   C326    1.401   .     A
C326   C327    1.397   .     A
C326   C335    1.443   .     S
C327   H360    1.083   .     S
C328   H361    1.084   .     S
C328   C329    1.401   .     A
C328   C519    1.385   .     S
C330   S383    1.789   .     S
C330   N368    1.406   .     A
C330   C203    1.415   1_655 S
C331   N367    1.345   .     A
C331   H362    1.080   .     S
C332   C342    1.418   .     A
C332   C917    1.418   .     S
C332   C919    1.422   .     S
C333   S384    1.792   .     S
C333   N367    1.407   .     A
C334   N368    1.344   .     A
C334   H363    1.080   .     S
C334   C205    1.417   1_655 S
C335   O378    1.302   .     A
C335   O379    1.293   .     A
C336   C338    1.461   .     S
C336   O380    1.303   .     A
C336   O381    1.300   .     A
C337   C348    1.392   .     A
C337   C920    1.403   1_554 S
C337   H941    1.084   1_554 S
C338   C348    1.400   .     A
C338   C347    1.395   .     A
C339   H352    1.083   .     S
C339   C340    1.386   .     A
C340   C917    1.390   .     S
C340   H930    1.083   .     S
C341   H353    1.077   .     S
C341   C908    1.418   1_554 S
C341   C916    1.390   1_554 S
C342   C346    1.413   .     A
C343   C347    1.400   .     A
C343   C908    1.422   1_554 S
C343   C920    1.420   1_554 S
C344   C345    1.391   .     A
C344   C913    1.403   .     S
C344   C919    1.420   .     S
C345   C346    1.386   .     A
C345   H364    1.084   .     S
C346   H355    1.080   .     S
C347   H366    1.077   .     S
C348   H351    1.083   .     S
Cu349  O376    1.953   .     S
Cu349  O380    1.944   .     S
Cu349  O369    1.949   .     S
Cu349  Cu350   2.704   .     S
Cu349  N367    2.032   .     S
Cu349  O378    1.960   .     S
Cu350  O375    1.960   .     S
Cu350  O379    1.949   .     S
Cu350  N368    2.032   .     S
Cu350  O377    1.944   .     S
Cu350  O381    1.953   .     S
H354   C916    1.083   1_554 S
H357   O371    0.991   .     S
H358   O374    0.991   .     S
H365   C913    1.084   .     S
O370   S383    1.497   .     D
O371   S383    1.683   .     S
O372   S384    1.501   .     D
O373   S384    1.504   .     D
O374   S384    1.675   .     S
O382   S383    1.501   .     D
C385   O439    1.301   .     A
C385   C393    1.443   .     S
C385   O433    1.293   .     A
C386   C406    1.420   .     A
C386   C388    1.473   .     S
C386   C403    1.404   .     A
C387   C393    1.397   .     A
C387   H420    1.083   .     S
C387   C5      1.385   1_565 S
C388   O441    1.304   .     A
C388   O440    1.304   .     A
C389   H423    1.084   .     S
C389   C390    1.401   .     A
C390   C391    1.397   .     A
C390   C399    1.443   .     S
C391   H424    1.083   .     S
C392   H425    1.084   .     S
C392   C393    1.401   .     A
C392   C7      1.385   1_565 S
C394   S447    1.789   .     S
C394   N432    1.406   .     A
C394   C459    1.415   .     S
C395   N431    1.345   .     A
C395   H426    1.080   .     S
C395   C522    1.415   1_455 S
C396   C406    1.418   .     A
C396   C981    1.418   .     S
C396   C983    1.422   .     S
C397   S448    1.792   .     S
C397   N431    1.407   .     A
C397   C526    1.417   1_455 S
C398   N432    1.344   .     A
C398   H427    1.080   .     S
C398   C461    1.417   .     S
C399   O442    1.302   .     A
C399   O443    1.293   .     A
C400   C402    1.461   .     S
C400   O444    1.303   .     A
C400   O445    1.300   .     A
C401   C412    1.392   .     A
C401   C984    1.403   1_554 S
C401   H1005   1.084   1_554 S
C402   C412    1.400   .     A
C402   C411    1.395   .     A
C403   H416    1.083   .     S
C403   C404    1.386   .     A
C404   C981    1.390   .     S
C404   H994    1.083   .     S
C405   H417    1.077   .     S
C405   C972    1.418   1_554 S
C405   C980    1.390   1_554 S
C406   C410    1.413   .     A
C407   C411    1.400   .     A
C407   C972    1.422   1_554 S
C407   C984    1.420   1_554 S
C408   C409    1.391   .     A
C408   C977    1.403   .     S
C408   C983    1.420   .     S
C409   C410    1.386   .     A
C409   H428    1.084   .     S
C410   H419    1.080   .     S
C411   H430    1.077   .     S
C412   H415    1.083   .     S
Cu413  O440    1.953   .     S
Cu413  O444    1.944   .     S
Cu413  O433    1.949   .     S
Cu413  Cu414   2.704   .     S
Cu413  N431    2.032   .     S
Cu413  O442    1.960   .     S
Cu414  O439    1.960   .     S
Cu414  O443    1.949   .     S
Cu414  N432    2.032   .     S
Cu414  O441    1.944   .     S
Cu414  O445    1.953   .     S
H418   C980    1.083   1_554 S
H421   O435    0.991   .     S
H422   O438    0.991   .     S
H429   C977    1.084   .     S
O434   S447    1.497   .     D
O435   S447    1.683   .     S
O436   S448    1.501   .     D
O437   S448    1.504   .     D
O438   S448    1.675   .     S
O446   S447    1.501   .     D
C449   O503    1.301   .     A
C449   C457    1.443   .     S
C449   O497    1.293   .     A
C450   C470    1.420   .     A
C450   C452    1.473   .     S
C450   C467    1.404   .     A
C451   C457    1.397   .     A
C451   H484    1.083   .     S
C451   C69     1.385   1_565 S
C452   O505    1.304   .     A
C452   O504    1.304   .     A
C453   H487    1.084   .     S
C453   C454    1.401   .     A
C454   C455    1.397   .     A
C454   C463    1.443   .     S
C455   H488    1.083   .     S
C456   H489    1.084   .     S
C456   C457    1.401   .     A
C456   C71     1.385   1_565 S
C458   S511    1.789   .     S
C458   N496    1.406   .     A
C458   C523    1.415   .     S
C459   N495    1.345   .     A
C459   H490    1.080   .     S
C460   C470    1.418   .     A
C460   C1045   1.418   .     S
C460   C1047   1.422   .     S
C461   S512    1.792   .     S
C461   N495    1.407   .     A
C462   N496    1.344   .     A
C462   H491    1.080   .     S
C462   C525    1.417   .     S
C463   O506    1.302   .     A
C463   O507    1.293   .     A
C464   C466    1.461   .     S
C464   O508    1.303   .     A
C464   O509    1.300   .     A
C465   C476    1.392   .     A
C465   C1048   1.403   1_554 S
C465   H1069   1.084   1_554 S
C466   C476    1.400   .     A
C466   C475    1.395   .     A
C467   H480    1.083   .     S
C467   C468    1.386   .     A
C468   C1045   1.390   .     S
C468   H1058   1.083   .     S
C469   H481    1.077   .     S
C469   C1036   1.418   1_554 S
C469   C1044   1.390   1_554 S
C470   C474    1.413   .     A
C471   C475    1.400   .     A
C471   C1036   1.422   1_554 S
C471   C1048   1.420   1_554 S
C472   C473    1.391   .     A
C472   C1041   1.403   .     S
C472   C1047   1.420   .     S
C473   C474    1.386   .     A
C473   H492    1.084   .     S
C474   H483    1.080   .     S
C475   H494    1.077   .     S
C476   H479    1.083   .     S
Cu477  O504    1.953   .     S
Cu477  O508    1.944   .     S
Cu477  O497    1.949   .     S
Cu477  Cu478   2.704   .     S
Cu477  N495    2.032   .     S
Cu477  O506    1.960   .     S
Cu478  O503    1.960   .     S
Cu478  O507    1.949   .     S
Cu478  N496    2.032   .     S
Cu478  O505    1.944   .     S
Cu478  O509    1.953   .     S
H482   C1044   1.083   1_554 S
H485   O499    0.991   .     S
H486   O502    0.991   .     S
H493   C1041   1.084   .     S
O498   S511    1.497   .     D
O499   S511    1.683   .     S
O500   S512    1.501   .     D
O501   S512    1.504   .     D
O502   S512    1.675   .     S
O510   S511    1.501   .     D
C513   O567    1.301   .     A
C513   C521    1.443   .     S
C513   O561    1.293   .     A
C514   C534    1.420   .     A
C514   C516    1.473   .     S
C514   C531    1.404   .     A
C515   C521    1.397   .     A
C515   H548    1.083   .     S
C515   C133    1.385   1_565 S
C516   O569    1.304   .     A
C516   O568    1.304   .     A
C517   H551    1.084   .     S
C517   C518    1.401   .     A
C518   C519    1.397   .     A
C518   C527    1.443   .     S
C519   H552    1.083   .     S
C520   H553    1.084   .     S
C520   C521    1.401   .     A
C520   C135    1.385   1_565 S
C522   S575    1.789   .     S
C522   N560    1.406   .     A
C522   C395    1.415   1_655 S
C523   N559    1.345   .     A
C523   H554    1.080   .     S
C524   C534    1.418   .     A
C524   C1109   1.418   .     S
C524   C1111   1.422   .     S
C525   S576    1.792   .     S
C525   N559    1.407   .     A
C526   N560    1.344   .     A
C526   H555    1.080   .     S
C526   C397    1.417   1_655 S
C527   O570    1.302   .     A
C527   O571    1.293   .     A
C528   C530    1.461   .     S
C528   O572    1.303   .     A
C528   O573    1.300   .     A
C529   C540    1.392   .     A
C529   C1112   1.403   1_554 S
C529   H1133   1.084   1_554 S
C530   C540    1.400   .     A
C530   C539    1.395   .     A
C531   H544    1.083   .     S
C531   C532    1.386   .     A
C532   C1109   1.390   .     S
C532   H1122   1.083   .     S
C533   H545    1.077   .     S
C533   C1100   1.418   1_554 S
C533   C1108   1.390   1_554 S
C534   C538    1.413   .     A
C535   C539    1.400   .     A
C535   C1100   1.422   1_554 S
C535   C1112   1.420   1_554 S
C536   C537    1.391   .     A
C536   C1105   1.403   .     S
C536   C1111   1.420   .     S
C537   C538    1.386   .     A
C537   H556    1.084   .     S
C538   H547    1.080   .     S
C539   H558    1.077   .     S
C540   H543    1.083   .     S
Cu541  O568    1.953   .     S
Cu541  O572    1.944   .     S
Cu541  O561    1.949   .     S
Cu541  Cu542   2.704   .     S
Cu541  N559    2.032   .     S
Cu541  O570    1.960   .     S
Cu542  O567    1.960   .     S
Cu542  O571    1.949   .     S
Cu542  N560    2.032   .     S
Cu542  O569    1.944   .     S
Cu542  O573    1.953   .     S
H546   C1108   1.083   1_554 S
H549   O563    0.991   .     S
H550   O566    0.991   .     S
H557   C1105   1.084   .     S
O562   S575    1.497   .     D
O563   S575    1.683   .     S
O564   S576    1.501   .     D
O565   S576    1.504   .     D
O566   S576    1.675   .     S
O574   S575    1.501   .     D
C577   O631    1.301   .     A
C577   C585    1.443   .     S
C577   O625    1.293   .     A
C578   C598    1.420   .     A
C578   C580    1.473   .     S
C578   C595    1.404   .     A
C579   C585    1.397   .     A
C579   H612    1.083   .     S
C579   C773    1.385   .     S
C580   O633    1.304   .     A
C580   O632    1.304   .     A
C581   H615    1.084   .     S
C581   C582    1.401   .     A
C581   C963    1.385   1_545 S
C582   C583    1.397   .     A
C582   C591    1.443   .     S
C583   H616    1.083   .     S
C583   C968    1.385   1_545 S
C584   H617    1.084   .     S
C584   C585    1.401   .     A
C584   C775    1.385   .     S
C586   S639    1.789   .     S
C586   N624    1.406   .     A
C586   C651    1.415   .     S
C587   N623    1.345   .     A
C587   H618    1.080   .     S
C587   C714    1.415   1_455 S
C588   C598    1.418   .     A
C588   C21     1.418   1_556 S
C588   C23     1.422   1_556 S
C589   S640    1.792   .     S
C589   N623    1.407   .     A
C589   C718    1.417   1_455 S
C590   N624    1.344   .     A
C590   H619    1.080   .     S
C590   C653    1.417   .     S
C591   O634    1.302   .     A
C591   O635    1.293   .     A
C592   C594    1.461   .     S
C592   O636    1.303   .     A
C592   O637    1.300   .     A
C593   C604    1.392   .     A
C594   C604    1.400   .     A
C594   C603    1.395   .     A
C595   H608    1.083   .     S
C595   C596    1.386   .     A
C596   C21     1.390   1_556 S
C596   H34     1.083   1_556 S
C597   H609    1.077   .     S
C598   C602    1.413   .     A
C599   C603    1.400   .     A
C600   C601    1.391   .     A
C600   C17     1.403   1_556 S
C600   C23     1.420   1_556 S
C601   C602    1.386   .     A
C601   H620    1.084   .     S
C602   H611    1.080   .     S
C603   H622    1.077   .     S
C604   H607    1.083   .     S
Cu605  O632    1.953   .     S
Cu605  O636    1.944   .     S
Cu605  O625    1.949   .     S
Cu605  Cu606   2.704   .     S
Cu605  N623    2.032   .     S
Cu605  O634    1.960   .     S
Cu606  O631    1.960   .     S
Cu606  O635    1.949   .     S
Cu606  N624    2.032   .     S
Cu606  O633    1.944   .     S
Cu606  O637    1.953   .     S
H613   O627    0.991   .     S
H614   O630    0.991   .     S
H621   C17     1.084   1_556 S
O626   S639    1.497   .     D
O627   S639    1.683   .     S
O628   S640    1.501   .     D
O629   S640    1.504   .     D
O630   S640    1.675   .     S
O638   S639    1.501   .     D
C641   O695    1.301   .     A
C641   C649    1.443   .     S
C641   O689    1.293   .     A
C642   C662    1.420   .     A
C642   C644    1.473   .     S
C642   C659    1.404   .     A
C643   C649    1.397   .     A
C643   H676    1.083   .     S
C643   C837    1.385   .     S
C644   O697    1.304   .     A
C644   O696    1.304   .     A
C645   H679    1.084   .     S
C645   C646    1.401   .     A
C645   C1027   1.385   1_545 S
C646   C647    1.397   .     A
C646   C655    1.443   .     S
C647   H680    1.083   .     S
C647   C1032   1.385   1_545 S
C648   H681    1.084   .     S
C648   C649    1.401   .     A
C648   C839    1.385   .     S
C650   S703    1.789   .     S
C650   N688    1.406   .     A
C650   C715    1.415   .     S
C651   N687    1.345   .     A
C651   H682    1.080   .     S
C652   C662    1.418   .     A
C652   C85     1.418   1_556 S
C652   C87     1.422   1_556 S
C653   S704    1.792   .     S
C653   N687    1.407   .     A
C654   N688    1.344   .     A
C654   H683    1.080   .     S
C654   C717    1.417   .     S
C655   O698    1.302   .     A
C655   O699    1.293   .     A
C656   C658    1.461   .     S
C656   O700    1.303   .     A
C656   O701    1.300   .     A
C657   C668    1.392   .     A
C658   C668    1.400   .     A
C658   C667    1.395   .     A
C659   H672    1.083   .     S
C659   C660    1.386   .     A
C660   C85     1.390   1_556 S
C660   H98     1.083   1_556 S
C661   H673    1.077   .     S
C662   C666    1.413   .     A
C663   C667    1.400   .     A
C664   C665    1.391   .     A
C664   C81     1.403   1_556 S
C664   C87     1.420   1_556 S
C665   C666    1.386   .     A
C665   H684    1.084   .     S
C666   H675    1.080   .     S
C667   H686    1.077   .     S
C668   H671    1.083   .     S
Cu669  O696    1.953   .     S
Cu669  O700    1.944   .     S
Cu669  O689    1.949   .     S
Cu669  Cu670   2.704   .     S
Cu669  N687    2.032   .     S
Cu669  O698    1.960   .     S
Cu670  O695    1.960   .     S
Cu670  O699    1.949   .     S
Cu670  N688    2.032   .     S
Cu670  O697    1.944   .     S
Cu670  O701    1.953   .     S
H677   O691    0.991   .     S
H678   O694    0.991   .     S
H685   C81     1.084   1_556 S
O690   S703    1.497   .     D
O691   S703    1.683   .     S
O692   S704    1.501   .     D
O693   S704    1.504   .     D
O694   S704    1.675   .     S
O702   S703    1.501   .     D
C705   O759    1.301   .     A
C705   C713    1.443   .     S
C705   O753    1.293   .     A
C706   C726    1.420   .     A
C706   C708    1.473   .     S
C706   C723    1.404   .     A
C707   C713    1.397   .     A
C707   H740    1.083   .     S
C707   C901    1.385   .     S
C708   O761    1.304   .     A
C708   O760    1.304   .     A
C709   H743    1.084   .     S
C709   C710    1.401   .     A
C709   C1091   1.385   1_545 S
C710   C711    1.397   .     A
C710   C719    1.443   .     S
C711   H744    1.083   .     S
C711   C1096   1.385   1_545 S
C712   H745    1.084   .     S
C712   C713    1.401   .     A
C712   C903    1.385   .     S
C714   S767    1.789   .     S
C714   N752    1.406   .     A
C714   C587    1.415   1_655 S
C715   N751    1.345   .     A
C715   H746    1.080   .     S
C716   C726    1.418   .     A
C716   C149    1.418   1_556 S
C716   C151    1.422   1_556 S
C717   S768    1.792   .     S
C717   N751    1.407   .     A
C718   N752    1.344   .     A
C718   H747    1.080   .     S
C718   C589    1.417   1_655 S
C719   O762    1.302   .     A
C719   O763    1.293   .     A
C720   C722    1.461   .     S
C720   O764    1.303   .     A
C720   O765    1.300   .     A
C721   C732    1.392   .     A
C722   C732    1.400   .     A
C722   C731    1.395   .     A
C723   H736    1.083   .     S
C723   C724    1.386   .     A
C724   C149    1.390   1_556 S
C724   H162    1.083   1_556 S
C725   H737    1.077   .     S
C726   C730    1.413   .     A
C727   C731    1.400   .     A
C728   C729    1.391   .     A
C728   C145    1.403   1_556 S
C728   C151    1.420   1_556 S
C729   C730    1.386   .     A
C729   H748    1.084   .     S
C730   H739    1.080   .     S
C731   H750    1.077   .     S
C732   H735    1.083   .     S
Cu733  O760    1.953   .     S
Cu733  O764    1.944   .     S
Cu733  O753    1.949   .     S
Cu733  Cu734   2.704   .     S
Cu733  N751    2.032   .     S
Cu733  O762    1.960   .     S
Cu734  O759    1.960   .     S
Cu734  O763    1.949   .     S
Cu734  N752    2.032   .     S
Cu734  O761    1.944   .     S
Cu734  O765    1.953   .     S
H741   O755    0.991   .     S
H742   O758    0.991   .     S
H749   C145    1.084   1_556 S
O754   S767    1.497   .     D
O755   S767    1.683   .     S
O756   S768    1.501   .     D
O757   S768    1.504   .     D
O758   S768    1.675   .     S
O766   S767    1.501   .     D
C769   O823    1.301   .     A
C769   C777    1.443   .     S
C769   O817    1.293   .     A
C770   C790    1.420   .     A
C770   C772    1.473   .     S
C770   C787    1.404   .     A
C771   C777    1.397   .     A
C771   H804    1.083   .     S
C771   C965    1.385   .     S
C772   O825    1.304   .     A
C772   O824    1.304   .     A
C773   H807    1.084   .     S
C773   C774    1.401   .     A
C774   C775    1.397   .     A
C774   C783    1.443   .     S
C775   H808    1.083   .     S
C776   H809    1.084   .     S
C776   C777    1.401   .     A
C776   C967    1.385   .     S
C778   S831    1.789   .     S
C778   N816    1.406   .     A
C778   C843    1.415   .     S
C779   N815    1.345   .     A
C779   H810    1.080   .     S
C779   C906    1.415   1_455 S
C780   C790    1.418   .     A
C780   C213    1.418   1_556 S
C780   C215    1.422   1_556 S
C781   S832    1.792   .     S
C781   N815    1.407   .     A
C781   C910    1.417   1_455 S
C782   N816    1.344   .     A
C782   H811    1.080   .     S
C782   C845    1.417   .     S
C783   O826    1.302   .     A
C783   O827    1.293   .     A
C784   C786    1.461   .     S
C784   O828    1.303   .     A
C784   O829    1.300   .     A
C785   C796    1.392   .     A
C786   C796    1.400   .     A
C786   C795    1.395   .     A
C787   H800    1.083   .     S
C787   C788    1.386   .     A
C788   C213    1.390   1_556 S
C788   H226    1.083   1_556 S
C789   H801    1.077   .     S
C790   C794    1.413   .     A
C791   C795    1.400   .     A
C792   C793    1.391   .     A
C792   C209    1.403   1_556 S
C792   C215    1.420   1_556 S
C793   C794    1.386   .     A
C793   H812    1.084   .     S
C794   H803    1.080   .     S
C795   H814    1.077   .     S
C796   H799    1.083   .     S
Cu797  O824    1.953   .     S
Cu797  O828    1.944   .     S
Cu797  O817    1.949   .     S
Cu797  Cu798   2.704   .     S
Cu797  N815    2.032   .     S
Cu797  O826    1.960   .     S
Cu798  O823    1.960   .     S
Cu798  O827    1.949   .     S
Cu798  N816    2.032   .     S
Cu798  O825    1.944   .     S
Cu798  O829    1.953   .     S
H805   O819    0.991   .     S
H806   O822    0.991   .     S
H813   C209    1.084   1_556 S
O818   S831    1.497   .     D
O819   S831    1.683   .     S
O820   S832    1.501   .     D
O821   S832    1.504   .     D
O822   S832    1.675   .     S
O830   S831    1.501   .     D
C833   O887    1.301   .     A
C833   C841    1.443   .     S
C833   O881    1.293   .     A
C834   C854    1.420   .     A
C834   C836    1.473   .     S
C834   C851    1.404   .     A
C835   C841    1.397   .     A
C835   H868    1.083   .     S
C835   C1029   1.385   .     S
C836   O889    1.304   .     A
C836   O888    1.304   .     A
C837   H871    1.084   .     S
C837   C838    1.401   .     A
C838   C839    1.397   .     A
C838   C847    1.443   .     S
C839   H872    1.083   .     S
C840   H873    1.084   .     S
C840   C841    1.401   .     A
C840   C1031   1.385   .     S
C842   S895    1.789   .     S
C842   N880    1.406   .     A
C842   C907    1.415   .     S
C843   N879    1.345   .     A
C843   H874    1.080   .     S
C844   C854    1.418   .     A
C844   C277    1.418   1_556 S
C844   C279    1.422   1_556 S
C845   S896    1.792   .     S
C845   N879    1.407   .     A
C846   N880    1.344   .     A
C846   H875    1.080   .     S
C846   C909    1.417   .     S
C847   O890    1.302   .     A
C847   O891    1.293   .     A
C848   C850    1.461   .     S
C848   O892    1.303   .     A
C848   O893    1.300   .     A
C849   C860    1.392   .     A
C850   C860    1.400   .     A
C850   C859    1.395   .     A
C851   H864    1.083   .     S
C851   C852    1.386   .     A
C852   C277    1.390   1_556 S
C852   H290    1.083   1_556 S
C853   H865    1.077   .     S
C854   C858    1.413   .     A
C855   C859    1.400   .     A
C856   C857    1.391   .     A
C856   C273    1.403   1_556 S
C856   C279    1.420   1_556 S
C857   C858    1.386   .     A
C857   H876    1.084   .     S
C858   H867    1.080   .     S
C859   H878    1.077   .     S
C860   H863    1.083   .     S
Cu861  O888    1.953   .     S
Cu861  O892    1.944   .     S
Cu861  O881    1.949   .     S
Cu861  Cu862   2.704   .     S
Cu861  N879    2.032   .     S
Cu861  O890    1.960   .     S
Cu862  O887    1.960   .     S
Cu862  O891    1.949   .     S
Cu862  N880    2.032   .     S
Cu862  O889    1.944   .     S
Cu862  O893    1.953   .     S
H869   O883    0.991   .     S
H870   O886    0.991   .     S
H877   C273    1.084   1_556 S
O882   S895    1.497   .     D
O883   S895    1.683   .     S
O884   S896    1.501   .     D
O885   S896    1.504   .     D
O886   S896    1.675   .     S
O894   S895    1.501   .     D
C897   O951    1.301   .     A
C897   C905    1.443   .     S
C897   O945    1.293   .     A
C898   C918    1.420   .     A
C898   C900    1.473   .     S
C898   C915    1.404   .     A
C899   C905    1.397   .     A
C899   H932    1.083   .     S
C899   C1093   1.385   .     S
C900   O953    1.304   .     A
C900   O952    1.304   .     A
C901   H935    1.084   .     S
C901   C902    1.401   .     A
C902   C903    1.397   .     A
C902   C911    1.443   .     S
C903   H936    1.083   .     S
C904   H937    1.084   .     S
C904   C905    1.401   .     A
C904   C1095   1.385   .     S
C906   S959    1.789   .     S
C906   N944    1.406   .     A
C906   C779    1.415   1_655 S
C907   N943    1.345   .     A
C907   H938    1.080   .     S
C908   C918    1.418   .     A
C908   C341    1.418   1_556 S
C908   C343    1.422   1_556 S
C909   S960    1.792   .     S
C909   N943    1.407   .     A
C910   N944    1.344   .     A
C910   H939    1.080   .     S
C910   C781    1.417   1_655 S
C911   O954    1.302   .     A
C911   O955    1.293   .     A
C912   C914    1.461   .     S
C912   O956    1.303   .     A
C912   O957    1.300   .     A
C913   C924    1.392   .     A
C914   C924    1.400   .     A
C914   C923    1.395   .     A
C915   H928    1.083   .     S
C915   C916    1.386   .     A
C916   C341    1.390   1_556 S
C916   H354    1.083   1_556 S
C917   H929    1.077   .     S
C918   C922    1.413   .     A
C919   C923    1.400   .     A
C920   C921    1.391   .     A
C920   C337    1.403   1_556 S
C920   C343    1.420   1_556 S
C921   C922    1.386   .     A
C921   H940    1.084   .     S
C922   H931    1.080   .     S
C923   H942    1.077   .     S
C924   H927    1.083   .     S
Cu925  O952    1.953   .     S
Cu925  O956    1.944   .     S
Cu925  O945    1.949   .     S
Cu925  Cu926   2.704   .     S
Cu925  N943    2.032   .     S
Cu925  O954    1.960   .     S
Cu926  O951    1.960   .     S
Cu926  O955    1.949   .     S
Cu926  N944    2.032   .     S
Cu926  O953    1.944   .     S
Cu926  O957    1.953   .     S
H933   O947    0.991   .     S
H934   O950    0.991   .     S
H941   C337    1.084   1_556 S
O946   S959    1.497   .     D
O947   S959    1.683   .     S
O948   S960    1.501   .     D
O949   S960    1.504   .     D
O950   S960    1.675   .     S
O958   S959    1.501   .     D
C961   O1015   1.301   .     A
C961   C969    1.443   .     S
C961   O1009   1.293   .     A
C962   C982    1.420   .     A
C962   C964    1.473   .     S
C962   C979    1.404   .     A
C963   C969    1.397   .     A
C963   H996    1.083   .     S
C963   C581    1.385   1_565 S
C964   O1017   1.304   .     A
C964   O1016   1.304   .     A
C965   H999    1.084   .     S
C965   C966    1.401   .     A
C966   C967    1.397   .     A
C966   C975    1.443   .     S
C967   H1000   1.083   .     S
C968   H1001   1.084   .     S
C968   C969    1.401   .     A
C968   C583    1.385   1_565 S
C970   S1023   1.789   .     S
C970   N1008   1.406   .     A
C970   C1035   1.415   .     S
C971   N1007   1.345   .     A
C971   H1002   1.080   .     S
C971   C1098   1.415   1_455 S
C972   C982    1.418   .     A
C972   C405    1.418   1_556 S
C972   C407    1.422   1_556 S
C973   S1024   1.792   .     S
C973   N1007   1.407   .     A
C973   C1102   1.417   1_455 S
C974   N1008   1.344   .     A
C974   H1003   1.080   .     S
C974   C1037   1.417   .     S
C975   O1018   1.302   .     A
C975   O1019   1.293   .     A
C976   C978    1.461   .     S
C976   O1020   1.303   .     A
C976   O1021   1.300   .     A
C977   C988    1.392   .     A
C978   C988    1.400   .     A
C978   C987    1.395   .     A
C979   H992    1.083   .     S
C979   C980    1.386   .     A
C980   C405    1.390   1_556 S
C980   H418    1.083   1_556 S
C981   H993    1.077   .     S
C982   C986    1.413   .     A
C983   C987    1.400   .     A
C984   C985    1.391   .     A
C984   C401    1.403   1_556 S
C984   C407    1.420   1_556 S
C985   C986    1.386   .     A
C985   H1004   1.084   .     S
C986   H995    1.080   .     S
C987   H1006   1.077   .     S
C988   H991    1.083   .     S
Cu989  O1016   1.953   .     S
Cu989  O1020   1.944   .     S
Cu989  O1009   1.949   .     S
Cu989  Cu990   2.704   .     S
Cu989  N1007   2.032   .     S
Cu989  O1018   1.960   .     S
Cu990  O1015   1.960   .     S
Cu990  O1019   1.949   .     S
Cu990  N1008   2.032   .     S
Cu990  O1017   1.944   .     S
Cu990  O1021   1.953   .     S
H997   O1011   0.991   .     S
H998   O1014   0.991   .     S
H1005  C401    1.084   1_556 S
O1010  S1023   1.497   .     D
O1011  S1023   1.683   .     S
O1012  S1024   1.501   .     D
O1013  S1024   1.504   .     D
O1014  S1024   1.675   .     S
O1022  S1023   1.501   .     D
C1025  O1079   1.301   .     A
C1025  C1033   1.443   .     S
C1025  O1073   1.293   .     A
C1026  C1046   1.420   .     A
C1026  C1028   1.473   .     S
C1026  C1043   1.404   .     A
C1027  C1033   1.397   .     A
C1027  H1060   1.083   .     S
C1027  C645    1.385   1_565 S
C1028  O1081   1.304   .     A
C1028  O1080   1.304   .     A
C1029  H1063   1.084   .     S
C1029  C1030   1.401   .     A
C1030  C1031   1.397   .     A
C1030  C1039   1.443   .     S
C1031  H1064   1.083   .     S
C1032  H1065   1.084   .     S
C1032  C1033   1.401   .     A
C1032  C647    1.385   1_565 S
C1034  S1087   1.789   .     S
C1034  N1072   1.406   .     A
C1034  C1099   1.415   .     S
C1035  N1071   1.345   .     A
C1035  H1066   1.080   .     S
C1036  C1046   1.418   .     A
C1036  C469    1.418   1_556 S
C1036  C471    1.422   1_556 S
C1037  S1088   1.792   .     S
C1037  N1071   1.407   .     A
C1038  N1072   1.344   .     A
C1038  H1067   1.080   .     S
C1038  C1101   1.417   .     S
C1039  O1082   1.302   .     A
C1039  O1083   1.293   .     A
C1040  C1042   1.461   .     S
C1040  O1084   1.303   .     A
C1040  O1085   1.300   .     A
C1041  C1052   1.392   .     A
C1042  C1052   1.400   .     A
C1042  C1051   1.395   .     A
C1043  H1056   1.083   .     S
C1043  C1044   1.386   .     A
C1044  C469    1.390   1_556 S
C1044  H482    1.083   1_556 S
C1045  H1057   1.077   .     S
C1046  C1050   1.413   .     A
C1047  C1051   1.400   .     A
C1048  C1049   1.391   .     A
C1048  C465    1.403   1_556 S
C1048  C471    1.420   1_556 S
C1049  C1050   1.386   .     A
C1049  H1068   1.084   .     S
C1050  H1059   1.080   .     S
C1051  H1070   1.077   .     S
C1052  H1055   1.083   .     S
Cu1053 O1080   1.953   .     S
Cu1053 O1084   1.944   .     S
Cu1053 O1073   1.949   .     S
Cu1053 Cu1054  2.704   .     S
Cu1053 N1071   2.032   .     S
Cu1053 O1082   1.960   .     S
Cu1054 O1079   1.960   .     S
Cu1054 O1083   1.949   .     S
Cu1054 N1072   2.032   .     S
Cu1054 O1081   1.944   .     S
Cu1054 O1085   1.953   .     S
H1061  O1075   0.991   .     S
H1062  O1078   0.991   .     S
H1069  C465    1.084   1_556 S
O1074  S1087   1.497   .     D
O1075  S1087   1.683   .     S
O1076  S1088   1.501   .     D
O1077  S1088   1.504   .     D
O1078  S1088   1.675   .     S
O1086  S1087   1.501   .     D
C1089  O1143   1.301   .     A
C1089  C1097   1.443   .     S
C1089  O1137   1.293   .     A
C1090  C1110   1.420   .     A
C1090  C1092   1.473   .     S
C1090  C1107   1.404   .     A
C1091  C1097   1.397   .     A
C1091  H1124   1.083   .     S
C1091  C709    1.385   1_565 S
C1092  O1145   1.304   .     A
C1092  O1144   1.304   .     A
C1093  H1127   1.084   .     S
C1093  C1094   1.401   .     A
C1094  C1095   1.397   .     A
C1094  C1103   1.443   .     S
C1095  H1128   1.083   .     S
C1096  H1129   1.084   .     S
C1096  C1097   1.401   .     A
C1096  C711    1.385   1_565 S
C1098  S1151   1.789   .     S
C1098  N1136   1.406   .     A
C1098  C971    1.415   1_655 S
C1099  N1135   1.345   .     A
C1099  H1130   1.080   .     S
C1100  C1110   1.418   .     A
C1100  C533    1.418   1_556 S
C1100  C535    1.422   1_556 S
C1101  S1152   1.792   .     S
C1101  N1135   1.407   .     A
C1102  N1136   1.344   .     A
C1102  H1131   1.080   .     S
C1102  C973    1.417   1_655 S
C1103  O1146   1.302   .     A
C1103  O1147   1.293   .     A
C1104  C1106   1.461   .     S
C1104  O1148   1.303   .     A
C1104  O1149   1.300   .     A
C1105  C1116   1.392   .     A
C1106  C1116   1.400   .     A
C1106  C1115   1.395   .     A
C1107  H1120   1.083   .     S
C1107  C1108   1.386   .     A
C1108  C533    1.390   1_556 S
C1108  H546    1.083   1_556 S
C1109  H1121   1.077   .     S
C1110  C1114   1.413   .     A
C1111  C1115   1.400   .     A
C1112  C1113   1.391   .     A
C1112  C529    1.403   1_556 S
C1112  C535    1.420   1_556 S
C1113  C1114   1.386   .     A
C1113  H1132   1.084   .     S
C1114  H1123   1.080   .     S
C1115  H1134   1.077   .     S
C1116  H1119   1.083   .     S
Cu1117 O1144   1.953   .     S
Cu1117 O1148   1.944   .     S
Cu1117 O1137   1.949   .     S
Cu1117 Cu1118  2.704   .     S
Cu1117 N1135   2.032   .     S
Cu1117 O1146   1.960   .     S
Cu1118 O1143   1.960   .     S
Cu1118 O1147   1.949   .     S
Cu1118 N1136   2.032   .     S
Cu1118 O1145   1.944   .     S
Cu1118 O1149   1.953   .     S
H1125  O1139   0.991   .     S
H1126  O1142   0.991   .     S
H1133  C529    1.084   1_556 S
O1138  S1151   1.497   .     D
O1139  S1151   1.683   .     S
O1140  S1152   1.501   .     D
O1141  S1152   1.504   .     D
O1142  S1152   1.675   .     S
O1150  S1151   1.501   .     D
