data_str_m2_o2_o5_pcu_sym.35
_audit_creation_date              2020-01-03
_audit_creation_method            'Materials Studio'
_symmetry_space_group_name_H-M    'P1'
_symmetry_Int_Tables_number       1
_symmetry_cell_setting            triclinic
loop_
_symmetry_equiv_pos_as_xyz
  x,y,z
_cell_length_a                    30.4419
_cell_length_b                    27.9402
_cell_length_c                    27.1909
_cell_angle_alpha                 89.5479
_cell_angle_beta                  92.5236
_cell_angle_gamma                 89.3942
loop_
_atom_site_label
_atom_site_type_symbol
_atom_site_fract_x
_atom_site_fract_y
_atom_site_fract_z
_atom_site_U_iso_or_equiv
_atom_site_adp_type
_atom_site_occupancy
C1     C     0.16489   0.25024   0.16930   0.00000  Uiso   1.00
C2     C     0.28393   0.44559   0.19077   0.00000  Uiso   1.00
C3     C     0.24994   0.25012   0.07359   0.00000  Uiso   1.00
C4     C     0.25013   0.24989   0.25974   0.00000  Uiso   1.00
C5     C     0.24640   0.02721   0.16730   0.00000  Uiso   1.00
C6     C     0.25207   0.47243   0.16223   0.00000  Uiso   1.00
C7     C     0.25003   0.25017   0.02187   0.00000  Uiso   1.00
C8     C     0.25009   0.24985   0.31148   0.00000  Uiso   1.00
C9     C     0.04663   0.29630   0.16897   0.00000  Uiso   1.00
C10    C     0.45509   0.22207   0.19318   0.00000  Uiso   1.00
C11    C     0.44989   0.28513   0.13186   0.00000  Uiso   1.00
C12    C     0.33491   0.24979   0.16528   0.00000  Uiso   1.00
C13    C     0.04596   0.21048   0.16058   0.00000  Uiso   1.00
C14    C     0.09250   0.29552   0.17539   0.00000  Uiso   1.00
C15    C     0.40965   0.21843   0.19242   0.00000  Uiso   1.00
C16    C     0.40380   0.28307   0.13090   0.00000  Uiso   1.00
C17    C     0.09154   0.20793   0.16769   0.00000  Uiso   1.00
C18    C     0.11604   0.25109   0.17206   0.00000  Uiso   1.00
C19    C     0.38320   0.24972   0.16210   0.00000  Uiso   1.00
C20    C     0.02348   0.25412   0.16183   0.00000  Uiso   1.00
C21    C     0.47536   0.25439   0.16246   0.00000  Uiso   1.00
C22    C     0.11375   0.34117   0.19011   0.00000  Uiso   1.00
C23    C     0.27011   0.10290   0.20456   0.00000  Uiso   1.00
C24    C     0.39155   0.17968   0.22204   0.00000  Uiso   1.00
C25    C     0.37812   0.31375   0.09481   0.00000  Uiso   1.00
C26    C     0.11113   0.15928   0.17470   0.00000  Uiso   1.00
C27    C     0.22503   0.39550   0.13151   0.00000  Uiso   1.00
C28    C     0.22201   0.10559   0.13421   0.00000  Uiso   1.00
C29    C     0.28021   0.39531   0.19531   0.00000  Uiso   1.00
C30    C     0.26548   0.05263   0.20740   0.00000  Uiso   1.00
C31    C     0.22944   0.44544   0.12551   0.00000  Uiso   1.00
C32    C     0.21691   0.05531   0.13714   0.00000  Uiso   1.00
Cl33   Cl    0.29991   0.12989   0.25356   0.00000  Uiso   1.00
Cl34   Cl    0.18757   0.36597   0.09127   0.00000  Uiso   1.00
Cl35   Cl    0.18825   0.13690   0.09023   0.00000  Uiso   1.00
Cl36   Cl    0.31618   0.36501   0.23781   0.00000  Uiso   1.00
Cl37   Cl    0.26878   0.02570   0.26684   0.00000  Uiso   1.00
Cl38   Cl    0.22342   0.46789   0.06443   0.00000  Uiso   1.00
Cl39   Cl    0.16404   0.03305   0.12056   0.00000  Uiso   1.00
Cl40   Cl    0.33565   0.47086   0.20723   0.00000  Uiso   1.00
Cu41   Cu    0.25000   0.29822   0.16667   0.00000  Uiso   1.00
Cu42   Cu    0.25000   0.20179   0.16667   0.00000  Uiso   1.00
H43    H     0.02850   0.32962   0.17258   0.00000  Uiso   1.00
H44    H     0.47503   0.19842   0.21708   0.00000  Uiso   1.00
H45    H     0.46617   0.30950   0.10754   0.00000  Uiso   1.00
H46    H     0.02733   0.17776   0.15654   0.00000  Uiso   1.00
H47    H     0.14250   0.34118   0.21510   0.00000  Uiso   1.00
H48    H     0.36921   0.15461   0.20458   0.00000  Uiso   1.00
H49    H     0.34401   0.30616   0.08512   0.00000  Uiso   1.00
H50    H     0.13880   0.15307   0.20049   0.00000  Uiso   1.00
N51    N     0.25000   0.12935   0.16667   0.00000  Uiso   1.00
N52    N     0.25000   0.37066   0.16667   0.00000  Uiso   1.00
O53    O     0.18573   0.29072   0.16667   0.00000  Uiso   1.00
O54    O     0.40346   0.17394   0.26517   0.00000  Uiso   1.00
O55    O     0.39506   0.34773   0.07475   0.00000  Uiso   1.00
O56    O     0.09531   0.12497   0.15301   0.00000  Uiso   1.00
O57    O     0.31427   0.20929   0.16666   0.00000  Uiso   1.00
O58    O     0.31427   0.29072   0.16666   0.00000  Uiso   1.00
O59    O     0.18573   0.20929   0.16667   0.00000  Uiso   1.00
O60    O     0.25000   0.29071   0.09613   0.00000  Uiso   1.00
O61    O     0.25000   0.20929   0.23720   0.00000  Uiso   1.00
O62    O     0.25000   0.29071   0.23720   0.00000  Uiso   1.00
O63    O     0.25000   0.20929   0.09613   0.00000  Uiso   1.00
O64    O     0.09848   0.37960   0.17555   0.00000  Uiso   1.00
C65    C     0.66489   0.25024   0.16930   0.00000  Uiso   1.00
C66    C     0.78393   0.44559   0.19077   0.00000  Uiso   1.00
C67    C     0.74994   0.25012   0.07359   0.00000  Uiso   1.00
C68    C     0.75013   0.24989   0.25974   0.00000  Uiso   1.00
C69    C     0.74640   0.02721   0.16730   0.00000  Uiso   1.00
C70    C     0.75207   0.47243   0.16223   0.00000  Uiso   1.00
C71    C     0.75003   0.25017   0.02187   0.00000  Uiso   1.00
C72    C     0.75009   0.24985   0.31148   0.00000  Uiso   1.00
C73    C     0.54663   0.29630   0.16897   0.00000  Uiso   1.00
C74    C     0.95509   0.22207   0.19318   0.00000  Uiso   1.00
C75    C     0.94989   0.28513   0.13186   0.00000  Uiso   1.00
C76    C     0.83491   0.24979   0.16528   0.00000  Uiso   1.00
C77    C     0.54596   0.21048   0.16058   0.00000  Uiso   1.00
C78    C     0.59250   0.29552   0.17539   0.00000  Uiso   1.00
C79    C     0.90965   0.21843   0.19242   0.00000  Uiso   1.00
C80    C     0.90380   0.28307   0.13090   0.00000  Uiso   1.00
C81    C     0.59154   0.20793   0.16769   0.00000  Uiso   1.00
C82    C     0.61604   0.25109   0.17206   0.00000  Uiso   1.00
C83    C     0.88320   0.24972   0.16210   0.00000  Uiso   1.00
C84    C     0.52348   0.25412   0.16183   0.00000  Uiso   1.00
C85    C     0.97536   0.25439   0.16246   0.00000  Uiso   1.00
C86    C     0.61375   0.34117   0.19011   0.00000  Uiso   1.00
C87    C     0.77011   0.10290   0.20456   0.00000  Uiso   1.00
C88    C     0.89155   0.17968   0.22204   0.00000  Uiso   1.00
C89    C     0.87812   0.31375   0.09481   0.00000  Uiso   1.00
C90    C     0.61113   0.15928   0.17470   0.00000  Uiso   1.00
C91    C     0.72503   0.39550   0.13151   0.00000  Uiso   1.00
C92    C     0.72201   0.10559   0.13421   0.00000  Uiso   1.00
C93    C     0.78021   0.39531   0.19531   0.00000  Uiso   1.00
C94    C     0.76548   0.05263   0.20740   0.00000  Uiso   1.00
C95    C     0.72944   0.44544   0.12551   0.00000  Uiso   1.00
C96    C     0.71691   0.05531   0.13714   0.00000  Uiso   1.00
Cl97   Cl    0.79991   0.12989   0.25356   0.00000  Uiso   1.00
Cl98   Cl    0.68757   0.36597   0.09127   0.00000  Uiso   1.00
Cl99   Cl    0.68825   0.13690   0.09023   0.00000  Uiso   1.00
Cl100  Cl    0.81618   0.36501   0.23781   0.00000  Uiso   1.00
Cl101  Cl    0.76878   0.02570   0.26684   0.00000  Uiso   1.00
Cl102  Cl    0.72342   0.46789   0.06443   0.00000  Uiso   1.00
Cl103  Cl    0.66404   0.03305   0.12056   0.00000  Uiso   1.00
Cl104  Cl    0.83565   0.47086   0.20723   0.00000  Uiso   1.00
Cu105  Cu    0.75000   0.29822   0.16667   0.00000  Uiso   1.00
Cu106  Cu    0.75000   0.20179   0.16667   0.00000  Uiso   1.00
H107   H     0.52850   0.32962   0.17258   0.00000  Uiso   1.00
H108   H     0.97503   0.19842   0.21708   0.00000  Uiso   1.00
H109   H     0.96617   0.30950   0.10754   0.00000  Uiso   1.00
H110   H     0.52733   0.17776   0.15654   0.00000  Uiso   1.00
H111   H     0.64250   0.34118   0.21510   0.00000  Uiso   1.00
H112   H     0.86921   0.15461   0.20458   0.00000  Uiso   1.00
H113   H     0.84401   0.30616   0.08512   0.00000  Uiso   1.00
H114   H     0.63880   0.15307   0.20049   0.00000  Uiso   1.00
N115   N     0.75000   0.12935   0.16667   0.00000  Uiso   1.00
N116   N     0.75000   0.37066   0.16667   0.00000  Uiso   1.00
O117   O     0.68573   0.29072   0.16667   0.00000  Uiso   1.00
O118   O     0.90346   0.17394   0.26517   0.00000  Uiso   1.00
O119   O     0.89506   0.34773   0.07475   0.00000  Uiso   1.00
O120   O     0.59531   0.12497   0.15301   0.00000  Uiso   1.00
O121   O     0.81427   0.20929   0.16666   0.00000  Uiso   1.00
O122   O     0.81427   0.29072   0.16666   0.00000  Uiso   1.00
O123   O     0.68573   0.20929   0.16667   0.00000  Uiso   1.00
O124   O     0.75000   0.29071   0.09613   0.00000  Uiso   1.00
O125   O     0.75000   0.20929   0.23720   0.00000  Uiso   1.00
O126   O     0.75000   0.29071   0.23720   0.00000  Uiso   1.00
O127   O     0.75000   0.20929   0.09613   0.00000  Uiso   1.00
O128   O     0.59848   0.37960   0.17555   0.00000  Uiso   1.00
C129   C     0.16489   0.75024   0.16930   0.00000  Uiso   1.00
C130   C     0.28393   0.94559   0.19077   0.00000  Uiso   1.00
C131   C     0.24994   0.75012   0.07359   0.00000  Uiso   1.00
C132   C     0.25013   0.74989   0.25974   0.00000  Uiso   1.00
C133   C     0.24640   0.52721   0.16730   0.00000  Uiso   1.00
C134   C     0.25207   0.97243   0.16223   0.00000  Uiso   1.00
C135   C     0.25003   0.75017   0.02187   0.00000  Uiso   1.00
C136   C     0.25009   0.74985   0.31148   0.00000  Uiso   1.00
C137   C     0.04663   0.79630   0.16897   0.00000  Uiso   1.00
C138   C     0.45509   0.72207   0.19318   0.00000  Uiso   1.00
C139   C     0.44989   0.78513   0.13186   0.00000  Uiso   1.00
C140   C     0.33491   0.74979   0.16528   0.00000  Uiso   1.00
C141   C     0.04596   0.71048   0.16058   0.00000  Uiso   1.00
C142   C     0.09250   0.79552   0.17539   0.00000  Uiso   1.00
C143   C     0.40965   0.71843   0.19242   0.00000  Uiso   1.00
C144   C     0.40380   0.78307   0.13090   0.00000  Uiso   1.00
C145   C     0.09154   0.70793   0.16769   0.00000  Uiso   1.00
C146   C     0.11604   0.75109   0.17206   0.00000  Uiso   1.00
C147   C     0.38320   0.74972   0.16210   0.00000  Uiso   1.00
C148   C     0.02348   0.75412   0.16183   0.00000  Uiso   1.00
C149   C     0.47536   0.75439   0.16246   0.00000  Uiso   1.00
C150   C     0.11375   0.84117   0.19011   0.00000  Uiso   1.00
C151   C     0.27011   0.60290   0.20456   0.00000  Uiso   1.00
C152   C     0.39155   0.67968   0.22204   0.00000  Uiso   1.00
C153   C     0.37812   0.81375   0.09481   0.00000  Uiso   1.00
C154   C     0.11113   0.65928   0.17470   0.00000  Uiso   1.00
C155   C     0.22503   0.89550   0.13151   0.00000  Uiso   1.00
C156   C     0.22201   0.60559   0.13421   0.00000  Uiso   1.00
C157   C     0.28021   0.89531   0.19531   0.00000  Uiso   1.00
C158   C     0.26548   0.55263   0.20740   0.00000  Uiso   1.00
C159   C     0.22944   0.94544   0.12551   0.00000  Uiso   1.00
C160   C     0.21691   0.55531   0.13714   0.00000  Uiso   1.00
Cl161  Cl    0.29991   0.62989   0.25356   0.00000  Uiso   1.00
Cl162  Cl    0.18757   0.86597   0.09127   0.00000  Uiso   1.00
Cl163  Cl    0.18825   0.63690   0.09023   0.00000  Uiso   1.00
Cl164  Cl    0.31618   0.86501   0.23781   0.00000  Uiso   1.00
Cl165  Cl    0.26878   0.52570   0.26684   0.00000  Uiso   1.00
Cl166  Cl    0.22342   0.96789   0.06443   0.00000  Uiso   1.00
Cl167  Cl    0.16404   0.53305   0.12056   0.00000  Uiso   1.00
Cl168  Cl    0.33565   0.97086   0.20723   0.00000  Uiso   1.00
Cu169  Cu    0.25000   0.79822   0.16667   0.00000  Uiso   1.00
Cu170  Cu    0.25000   0.70179   0.16667   0.00000  Uiso   1.00
H171   H     0.02850   0.82962   0.17258   0.00000  Uiso   1.00
H172   H     0.47503   0.69842   0.21708   0.00000  Uiso   1.00
H173   H     0.46617   0.80950   0.10754   0.00000  Uiso   1.00
H174   H     0.02733   0.67776   0.15654   0.00000  Uiso   1.00
H175   H     0.14250   0.84118   0.21510   0.00000  Uiso   1.00
H176   H     0.36921   0.65461   0.20458   0.00000  Uiso   1.00
H177   H     0.34401   0.80616   0.08512   0.00000  Uiso   1.00
H178   H     0.13880   0.65307   0.20049   0.00000  Uiso   1.00
N179   N     0.25000   0.62935   0.16667   0.00000  Uiso   1.00
N180   N     0.25000   0.87066   0.16667   0.00000  Uiso   1.00
O181   O     0.18573   0.79072   0.16667   0.00000  Uiso   1.00
O182   O     0.40346   0.67394   0.26517   0.00000  Uiso   1.00
O183   O     0.39506   0.84773   0.07475   0.00000  Uiso   1.00
O184   O     0.09531   0.62497   0.15301   0.00000  Uiso   1.00
O185   O     0.31427   0.70929   0.16666   0.00000  Uiso   1.00
O186   O     0.31427   0.79072   0.16666   0.00000  Uiso   1.00
O187   O     0.18573   0.70929   0.16667   0.00000  Uiso   1.00
O188   O     0.25000   0.79071   0.09613   0.00000  Uiso   1.00
O189   O     0.25000   0.70929   0.23720   0.00000  Uiso   1.00
O190   O     0.25000   0.79071   0.23720   0.00000  Uiso   1.00
O191   O     0.25000   0.70929   0.09613   0.00000  Uiso   1.00
O192   O     0.09848   0.87960   0.17555   0.00000  Uiso   1.00
C193   C     0.66489   0.75024   0.16930   0.00000  Uiso   1.00
C194   C     0.78393   0.94559   0.19077   0.00000  Uiso   1.00
C195   C     0.74994   0.75012   0.07359   0.00000  Uiso   1.00
C196   C     0.75013   0.74989   0.25974   0.00000  Uiso   1.00
C197   C     0.74640   0.52721   0.16730   0.00000  Uiso   1.00
C198   C     0.75207   0.97243   0.16223   0.00000  Uiso   1.00
C199   C     0.75003   0.75017   0.02187   0.00000  Uiso   1.00
C200   C     0.75009   0.74985   0.31148   0.00000  Uiso   1.00
C201   C     0.54663   0.79630   0.16897   0.00000  Uiso   1.00
C202   C     0.95509   0.72207   0.19318   0.00000  Uiso   1.00
C203   C     0.94989   0.78513   0.13186   0.00000  Uiso   1.00
C204   C     0.83491   0.74979   0.16528   0.00000  Uiso   1.00
C205   C     0.54596   0.71048   0.16058   0.00000  Uiso   1.00
C206   C     0.59250   0.79552   0.17539   0.00000  Uiso   1.00
C207   C     0.90965   0.71843   0.19242   0.00000  Uiso   1.00
C208   C     0.90380   0.78307   0.13090   0.00000  Uiso   1.00
C209   C     0.59154   0.70793   0.16769   0.00000  Uiso   1.00
C210   C     0.61604   0.75109   0.17206   0.00000  Uiso   1.00
C211   C     0.88320   0.74972   0.16210   0.00000  Uiso   1.00
C212   C     0.52348   0.75412   0.16183   0.00000  Uiso   1.00
C213   C     0.97536   0.75439   0.16246   0.00000  Uiso   1.00
C214   C     0.61375   0.84117   0.19011   0.00000  Uiso   1.00
C215   C     0.77011   0.60290   0.20456   0.00000  Uiso   1.00
C216   C     0.89155   0.67968   0.22204   0.00000  Uiso   1.00
C217   C     0.87812   0.81375   0.09481   0.00000  Uiso   1.00
C218   C     0.61113   0.65928   0.17470   0.00000  Uiso   1.00
C219   C     0.72503   0.89550   0.13151   0.00000  Uiso   1.00
C220   C     0.72201   0.60559   0.13421   0.00000  Uiso   1.00
C221   C     0.78021   0.89531   0.19531   0.00000  Uiso   1.00
C222   C     0.76548   0.55263   0.20740   0.00000  Uiso   1.00
C223   C     0.72944   0.94544   0.12551   0.00000  Uiso   1.00
C224   C     0.71691   0.55531   0.13714   0.00000  Uiso   1.00
Cl225  Cl    0.79991   0.62989   0.25356   0.00000  Uiso   1.00
Cl226  Cl    0.68757   0.86597   0.09127   0.00000  Uiso   1.00
Cl227  Cl    0.68825   0.63690   0.09023   0.00000  Uiso   1.00
Cl228  Cl    0.81618   0.86501   0.23781   0.00000  Uiso   1.00
Cl229  Cl    0.76878   0.52570   0.26684   0.00000  Uiso   1.00
Cl230  Cl    0.72342   0.96789   0.06443   0.00000  Uiso   1.00
Cl231  Cl    0.66404   0.53305   0.12056   0.00000  Uiso   1.00
Cl232  Cl    0.83565   0.97086   0.20723   0.00000  Uiso   1.00
Cu233  Cu    0.75000   0.79822   0.16667   0.00000  Uiso   1.00
Cu234  Cu    0.75000   0.70179   0.16667   0.00000  Uiso   1.00
H235   H     0.52850   0.82962   0.17258   0.00000  Uiso   1.00
H236   H     0.97503   0.69842   0.21708   0.00000  Uiso   1.00
H237   H     0.96617   0.80950   0.10754   0.00000  Uiso   1.00
H238   H     0.52733   0.67776   0.15654   0.00000  Uiso   1.00
H239   H     0.64250   0.84118   0.21510   0.00000  Uiso   1.00
H240   H     0.86921   0.65461   0.20458   0.00000  Uiso   1.00
H241   H     0.84401   0.80616   0.08512   0.00000  Uiso   1.00
H242   H     0.63880   0.65307   0.20049   0.00000  Uiso   1.00
N243   N     0.75000   0.62935   0.16667   0.00000  Uiso   1.00
N244   N     0.75000   0.87066   0.16667   0.00000  Uiso   1.00
O245   O     0.68573   0.79072   0.16667   0.00000  Uiso   1.00
O246   O     0.90346   0.67394   0.26517   0.00000  Uiso   1.00
O247   O     0.89506   0.84773   0.07475   0.00000  Uiso   1.00
O248   O     0.59531   0.62497   0.15301   0.00000  Uiso   1.00
O249   O     0.81427   0.70929   0.16666   0.00000  Uiso   1.00
O250   O     0.81427   0.79072   0.16666   0.00000  Uiso   1.00
O251   O     0.68573   0.70929   0.16667   0.00000  Uiso   1.00
O252   O     0.75000   0.79071   0.09613   0.00000  Uiso   1.00
O253   O     0.75000   0.70929   0.23720   0.00000  Uiso   1.00
O254   O     0.75000   0.79071   0.23720   0.00000  Uiso   1.00
O255   O     0.75000   0.70929   0.09613   0.00000  Uiso   1.00
O256   O     0.59848   0.87960   0.17555   0.00000  Uiso   1.00
C257   C     0.16489   0.25024   0.50264   0.00000  Uiso   1.00
C258   C     0.28393   0.44559   0.52411   0.00000  Uiso   1.00
C259   C     0.24994   0.25012   0.40693   0.00000  Uiso   1.00
C260   C     0.25013   0.24989   0.59308   0.00000  Uiso   1.00
C261   C     0.24640   0.02721   0.50063   0.00000  Uiso   1.00
C262   C     0.25207   0.47243   0.49557   0.00000  Uiso   1.00
C263   C     0.25003   0.25017   0.35520   0.00000  Uiso   1.00
C264   C     0.25009   0.24985   0.64481   0.00000  Uiso   1.00
C265   C     0.04663   0.29630   0.50230   0.00000  Uiso   1.00
C266   C     0.45509   0.22207   0.52651   0.00000  Uiso   1.00
C267   C     0.44989   0.28513   0.46519   0.00000  Uiso   1.00
C268   C     0.33491   0.24979   0.49862   0.00000  Uiso   1.00
C269   C     0.04596   0.21048   0.49391   0.00000  Uiso   1.00
C270   C     0.09250   0.29552   0.50873   0.00000  Uiso   1.00
C271   C     0.40965   0.21843   0.52576   0.00000  Uiso   1.00
C272   C     0.40380   0.28307   0.46423   0.00000  Uiso   1.00
C273   C     0.09154   0.20793   0.50102   0.00000  Uiso   1.00
C274   C     0.11604   0.25109   0.50540   0.00000  Uiso   1.00
C275   C     0.38320   0.24972   0.49543   0.00000  Uiso   1.00
C276   C     0.02348   0.25412   0.49517   0.00000  Uiso   1.00
C277   C     0.47536   0.25439   0.49579   0.00000  Uiso   1.00
C278   C     0.11375   0.34117   0.52345   0.00000  Uiso   1.00
C279   C     0.27011   0.10290   0.53789   0.00000  Uiso   1.00
C280   C     0.39155   0.17968   0.55537   0.00000  Uiso   1.00
C281   C     0.37812   0.31375   0.42815   0.00000  Uiso   1.00
C282   C     0.11113   0.15928   0.50803   0.00000  Uiso   1.00
C283   C     0.22503   0.39550   0.46485   0.00000  Uiso   1.00
C284   C     0.22201   0.10559   0.46755   0.00000  Uiso   1.00
C285   C     0.28021   0.39531   0.52864   0.00000  Uiso   1.00
C286   C     0.26548   0.05263   0.54074   0.00000  Uiso   1.00
C287   C     0.22944   0.44544   0.45884   0.00000  Uiso   1.00
C288   C     0.21691   0.05531   0.47047   0.00000  Uiso   1.00
Cl289  Cl    0.29991   0.12989   0.58689   0.00000  Uiso   1.00
Cl290  Cl    0.18757   0.36597   0.42461   0.00000  Uiso   1.00
Cl291  Cl    0.18825   0.13690   0.42356   0.00000  Uiso   1.00
Cl292  Cl    0.31618   0.36501   0.57114   0.00000  Uiso   1.00
Cl293  Cl    0.26878   0.02570   0.60018   0.00000  Uiso   1.00
Cl294  Cl    0.22342   0.46789   0.39776   0.00000  Uiso   1.00
Cl295  Cl    0.16404   0.03305   0.45389   0.00000  Uiso   1.00
Cl296  Cl    0.33565   0.47086   0.54057   0.00000  Uiso   1.00
Cu297  Cu    0.25000   0.29822   0.50000   0.00000  Uiso   1.00
Cu298  Cu    0.25000   0.20179   0.50000   0.00000  Uiso   1.00
H299   H     0.02850   0.32962   0.50591   0.00000  Uiso   1.00
H300   H     0.47503   0.19842   0.55041   0.00000  Uiso   1.00
H301   H     0.46617   0.30950   0.44088   0.00000  Uiso   1.00
H302   H     0.02733   0.17776   0.48988   0.00000  Uiso   1.00
H303   H     0.14250   0.34118   0.54844   0.00000  Uiso   1.00
H304   H     0.36921   0.15461   0.53791   0.00000  Uiso   1.00
H305   H     0.34401   0.30616   0.41845   0.00000  Uiso   1.00
H306   H     0.13880   0.15307   0.53382   0.00000  Uiso   1.00
N307   N     0.25000   0.12935   0.50000   0.00000  Uiso   1.00
N308   N     0.25000   0.37066   0.50000   0.00000  Uiso   1.00
O309   O     0.18573   0.29072   0.50000   0.00000  Uiso   1.00
O310   O     0.40346   0.17394   0.59850   0.00000  Uiso   1.00
O311   O     0.39506   0.34773   0.40808   0.00000  Uiso   1.00
O312   O     0.09531   0.12497   0.48634   0.00000  Uiso   1.00
O313   O     0.31427   0.20929   0.50000   0.00000  Uiso   1.00
O314   O     0.31427   0.29072   0.50000   0.00000  Uiso   1.00
O315   O     0.18573   0.20929   0.50000   0.00000  Uiso   1.00
O316   O     0.25000   0.29071   0.42946   0.00000  Uiso   1.00
O317   O     0.25000   0.20929   0.57054   0.00000  Uiso   1.00
O318   O     0.25000   0.29071   0.57054   0.00000  Uiso   1.00
O319   O     0.25000   0.20929   0.42946   0.00000  Uiso   1.00
O320   O     0.09848   0.37960   0.50889   0.00000  Uiso   1.00
C321   C     0.66489   0.25024   0.50264   0.00000  Uiso   1.00
C322   C     0.78393   0.44559   0.52411   0.00000  Uiso   1.00
C323   C     0.74994   0.25012   0.40693   0.00000  Uiso   1.00
C324   C     0.75013   0.24989   0.59308   0.00000  Uiso   1.00
C325   C     0.74640   0.02721   0.50063   0.00000  Uiso   1.00
C326   C     0.75207   0.47243   0.49557   0.00000  Uiso   1.00
C327   C     0.75003   0.25017   0.35520   0.00000  Uiso   1.00
C328   C     0.75009   0.24985   0.64481   0.00000  Uiso   1.00
C329   C     0.54663   0.29630   0.50230   0.00000  Uiso   1.00
C330   C     0.95509   0.22207   0.52651   0.00000  Uiso   1.00
C331   C     0.94989   0.28513   0.46519   0.00000  Uiso   1.00
C332   C     0.83491   0.24979   0.49862   0.00000  Uiso   1.00
C333   C     0.54596   0.21048   0.49391   0.00000  Uiso   1.00
C334   C     0.59250   0.29552   0.50873   0.00000  Uiso   1.00
C335   C     0.90965   0.21843   0.52576   0.00000  Uiso   1.00
C336   C     0.90380   0.28307   0.46423   0.00000  Uiso   1.00
C337   C     0.59154   0.20793   0.50102   0.00000  Uiso   1.00
C338   C     0.61604   0.25109   0.50540   0.00000  Uiso   1.00
C339   C     0.88320   0.24972   0.49543   0.00000  Uiso   1.00
C340   C     0.52348   0.25412   0.49517   0.00000  Uiso   1.00
C341   C     0.97536   0.25439   0.49579   0.00000  Uiso   1.00
C342   C     0.61375   0.34117   0.52345   0.00000  Uiso   1.00
C343   C     0.77011   0.10290   0.53789   0.00000  Uiso   1.00
C344   C     0.89155   0.17968   0.55537   0.00000  Uiso   1.00
C345   C     0.87812   0.31375   0.42815   0.00000  Uiso   1.00
C346   C     0.61113   0.15928   0.50803   0.00000  Uiso   1.00
C347   C     0.72503   0.39550   0.46485   0.00000  Uiso   1.00
C348   C     0.72201   0.10559   0.46755   0.00000  Uiso   1.00
C349   C     0.78021   0.39531   0.52864   0.00000  Uiso   1.00
C350   C     0.76548   0.05263   0.54074   0.00000  Uiso   1.00
C351   C     0.72944   0.44544   0.45884   0.00000  Uiso   1.00
C352   C     0.71691   0.05531   0.47047   0.00000  Uiso   1.00
Cl353  Cl    0.79991   0.12989   0.58689   0.00000  Uiso   1.00
Cl354  Cl    0.68757   0.36597   0.42461   0.00000  Uiso   1.00
Cl355  Cl    0.68825   0.13690   0.42356   0.00000  Uiso   1.00
Cl356  Cl    0.81618   0.36501   0.57114   0.00000  Uiso   1.00
Cl357  Cl    0.76878   0.02570   0.60018   0.00000  Uiso   1.00
Cl358  Cl    0.72342   0.46789   0.39776   0.00000  Uiso   1.00
Cl359  Cl    0.66404   0.03305   0.45389   0.00000  Uiso   1.00
Cl360  Cl    0.83565   0.47086   0.54057   0.00000  Uiso   1.00
Cu361  Cu    0.75000   0.29822   0.50000   0.00000  Uiso   1.00
Cu362  Cu    0.75000   0.20179   0.50000   0.00000  Uiso   1.00
H363   H     0.52850   0.32962   0.50591   0.00000  Uiso   1.00
H364   H     0.97503   0.19842   0.55041   0.00000  Uiso   1.00
H365   H     0.96617   0.30950   0.44088   0.00000  Uiso   1.00
H366   H     0.52733   0.17776   0.48988   0.00000  Uiso   1.00
H367   H     0.64250   0.34118   0.54844   0.00000  Uiso   1.00
H368   H     0.86921   0.15461   0.53791   0.00000  Uiso   1.00
H369   H     0.84401   0.30616   0.41845   0.00000  Uiso   1.00
H370   H     0.63880   0.15307   0.53382   0.00000  Uiso   1.00
N371   N     0.75000   0.12935   0.50000   0.00000  Uiso   1.00
N372   N     0.75000   0.37066   0.50000   0.00000  Uiso   1.00
O373   O     0.68573   0.29072   0.50000   0.00000  Uiso   1.00
O374   O     0.90346   0.17394   0.59850   0.00000  Uiso   1.00
O375   O     0.89506   0.34773   0.40808   0.00000  Uiso   1.00
O376   O     0.59531   0.12497   0.48634   0.00000  Uiso   1.00
O377   O     0.81427   0.20929   0.50000   0.00000  Uiso   1.00
O378   O     0.81427   0.29072   0.50000   0.00000  Uiso   1.00
O379   O     0.68573   0.20929   0.50000   0.00000  Uiso   1.00
O380   O     0.75000   0.29071   0.42946   0.00000  Uiso   1.00
O381   O     0.75000   0.20929   0.57054   0.00000  Uiso   1.00
O382   O     0.75000   0.29071   0.57054   0.00000  Uiso   1.00
O383   O     0.75000   0.20929   0.42946   0.00000  Uiso   1.00
O384   O     0.59848   0.37960   0.50889   0.00000  Uiso   1.00
C385   C     0.16489   0.75024   0.50264   0.00000  Uiso   1.00
C386   C     0.28393   0.94559   0.52411   0.00000  Uiso   1.00
C387   C     0.24994   0.75012   0.40693   0.00000  Uiso   1.00
C388   C     0.25013   0.74989   0.59308   0.00000  Uiso   1.00
C389   C     0.24640   0.52721   0.50063   0.00000  Uiso   1.00
C390   C     0.25207   0.97243   0.49557   0.00000  Uiso   1.00
C391   C     0.25003   0.75017   0.35520   0.00000  Uiso   1.00
C392   C     0.25009   0.74985   0.64481   0.00000  Uiso   1.00
C393   C     0.04663   0.79630   0.50230   0.00000  Uiso   1.00
C394   C     0.45509   0.72207   0.52651   0.00000  Uiso   1.00
C395   C     0.44989   0.78513   0.46519   0.00000  Uiso   1.00
C396   C     0.33491   0.74979   0.49862   0.00000  Uiso   1.00
C397   C     0.04596   0.71048   0.49391   0.00000  Uiso   1.00
C398   C     0.09250   0.79552   0.50873   0.00000  Uiso   1.00
C399   C     0.40965   0.71843   0.52576   0.00000  Uiso   1.00
C400   C     0.40380   0.78307   0.46423   0.00000  Uiso   1.00
C401   C     0.09154   0.70793   0.50102   0.00000  Uiso   1.00
C402   C     0.11604   0.75109   0.50540   0.00000  Uiso   1.00
C403   C     0.38320   0.74972   0.49543   0.00000  Uiso   1.00
C404   C     0.02348   0.75412   0.49517   0.00000  Uiso   1.00
C405   C     0.47536   0.75439   0.49579   0.00000  Uiso   1.00
C406   C     0.11375   0.84117   0.52345   0.00000  Uiso   1.00
C407   C     0.27011   0.60290   0.53789   0.00000  Uiso   1.00
C408   C     0.39155   0.67968   0.55537   0.00000  Uiso   1.00
C409   C     0.37812   0.81375   0.42815   0.00000  Uiso   1.00
C410   C     0.11113   0.65928   0.50803   0.00000  Uiso   1.00
C411   C     0.22503   0.89550   0.46485   0.00000  Uiso   1.00
C412   C     0.22201   0.60559   0.46755   0.00000  Uiso   1.00
C413   C     0.28021   0.89531   0.52864   0.00000  Uiso   1.00
C414   C     0.26548   0.55263   0.54074   0.00000  Uiso   1.00
C415   C     0.22944   0.94544   0.45884   0.00000  Uiso   1.00
C416   C     0.21691   0.55531   0.47047   0.00000  Uiso   1.00
Cl417  Cl    0.29991   0.62989   0.58689   0.00000  Uiso   1.00
Cl418  Cl    0.18757   0.86597   0.42461   0.00000  Uiso   1.00
Cl419  Cl    0.18825   0.63690   0.42356   0.00000  Uiso   1.00
Cl420  Cl    0.31618   0.86501   0.57114   0.00000  Uiso   1.00
Cl421  Cl    0.26878   0.52570   0.60018   0.00000  Uiso   1.00
Cl422  Cl    0.22342   0.96789   0.39776   0.00000  Uiso   1.00
Cl423  Cl    0.16404   0.53305   0.45389   0.00000  Uiso   1.00
Cl424  Cl    0.33565   0.97086   0.54057   0.00000  Uiso   1.00
Cu425  Cu    0.25000   0.79822   0.50000   0.00000  Uiso   1.00
Cu426  Cu    0.25000   0.70179   0.50000   0.00000  Uiso   1.00
H427   H     0.02850   0.82962   0.50591   0.00000  Uiso   1.00
H428   H     0.47503   0.69842   0.55041   0.00000  Uiso   1.00
H429   H     0.46617   0.80950   0.44088   0.00000  Uiso   1.00
H430   H     0.02733   0.67776   0.48988   0.00000  Uiso   1.00
H431   H     0.14250   0.84118   0.54844   0.00000  Uiso   1.00
H432   H     0.36921   0.65461   0.53791   0.00000  Uiso   1.00
H433   H     0.34401   0.80616   0.41845   0.00000  Uiso   1.00
H434   H     0.13880   0.65307   0.53382   0.00000  Uiso   1.00
N435   N     0.25000   0.62935   0.50000   0.00000  Uiso   1.00
N436   N     0.25000   0.87066   0.50000   0.00000  Uiso   1.00
O437   O     0.18573   0.79072   0.50000   0.00000  Uiso   1.00
O438   O     0.40346   0.67394   0.59850   0.00000  Uiso   1.00
O439   O     0.39506   0.84773   0.40808   0.00000  Uiso   1.00
O440   O     0.09531   0.62497   0.48634   0.00000  Uiso   1.00
O441   O     0.31427   0.70929   0.50000   0.00000  Uiso   1.00
O442   O     0.31427   0.79072   0.50000   0.00000  Uiso   1.00
O443   O     0.18573   0.70929   0.50000   0.00000  Uiso   1.00
O444   O     0.25000   0.79071   0.42946   0.00000  Uiso   1.00
O445   O     0.25000   0.70929   0.57054   0.00000  Uiso   1.00
O446   O     0.25000   0.79071   0.57054   0.00000  Uiso   1.00
O447   O     0.25000   0.70929   0.42946   0.00000  Uiso   1.00
O448   O     0.09848   0.87960   0.50889   0.00000  Uiso   1.00
C449   C     0.66489   0.75024   0.50264   0.00000  Uiso   1.00
C450   C     0.78393   0.94559   0.52411   0.00000  Uiso   1.00
C451   C     0.74994   0.75012   0.40693   0.00000  Uiso   1.00
C452   C     0.75013   0.74989   0.59308   0.00000  Uiso   1.00
C453   C     0.74640   0.52721   0.50063   0.00000  Uiso   1.00
C454   C     0.75207   0.97243   0.49557   0.00000  Uiso   1.00
C455   C     0.75003   0.75017   0.35520   0.00000  Uiso   1.00
C456   C     0.75009   0.74985   0.64481   0.00000  Uiso   1.00
C457   C     0.54663   0.79630   0.50230   0.00000  Uiso   1.00
C458   C     0.95509   0.72207   0.52651   0.00000  Uiso   1.00
C459   C     0.94989   0.78513   0.46519   0.00000  Uiso   1.00
C460   C     0.83491   0.74979   0.49862   0.00000  Uiso   1.00
C461   C     0.54596   0.71048   0.49391   0.00000  Uiso   1.00
C462   C     0.59250   0.79552   0.50873   0.00000  Uiso   1.00
C463   C     0.90965   0.71843   0.52576   0.00000  Uiso   1.00
C464   C     0.90380   0.78307   0.46423   0.00000  Uiso   1.00
C465   C     0.59154   0.70793   0.50102   0.00000  Uiso   1.00
C466   C     0.61604   0.75109   0.50540   0.00000  Uiso   1.00
C467   C     0.88320   0.74972   0.49543   0.00000  Uiso   1.00
C468   C     0.52348   0.75412   0.49517   0.00000  Uiso   1.00
C469   C     0.97536   0.75439   0.49579   0.00000  Uiso   1.00
C470   C     0.61375   0.84117   0.52345   0.00000  Uiso   1.00
C471   C     0.77011   0.60290   0.53789   0.00000  Uiso   1.00
C472   C     0.89155   0.67968   0.55537   0.00000  Uiso   1.00
C473   C     0.87812   0.81375   0.42815   0.00000  Uiso   1.00
C474   C     0.61113   0.65928   0.50803   0.00000  Uiso   1.00
C475   C     0.72503   0.89550   0.46485   0.00000  Uiso   1.00
C476   C     0.72201   0.60559   0.46755   0.00000  Uiso   1.00
C477   C     0.78021   0.89531   0.52864   0.00000  Uiso   1.00
C478   C     0.76548   0.55263   0.54074   0.00000  Uiso   1.00
C479   C     0.72944   0.94544   0.45884   0.00000  Uiso   1.00
C480   C     0.71691   0.55531   0.47047   0.00000  Uiso   1.00
Cl481  Cl    0.79991   0.62989   0.58689   0.00000  Uiso   1.00
Cl482  Cl    0.68757   0.86597   0.42461   0.00000  Uiso   1.00
Cl483  Cl    0.68825   0.63690   0.42356   0.00000  Uiso   1.00
Cl484  Cl    0.81618   0.86501   0.57114   0.00000  Uiso   1.00
Cl485  Cl    0.76878   0.52570   0.60018   0.00000  Uiso   1.00
Cl486  Cl    0.72342   0.96789   0.39776   0.00000  Uiso   1.00
Cl487  Cl    0.66404   0.53305   0.45389   0.00000  Uiso   1.00
Cl488  Cl    0.83565   0.97086   0.54057   0.00000  Uiso   1.00
Cu489  Cu    0.75000   0.79822   0.50000   0.00000  Uiso   1.00
Cu490  Cu    0.75000   0.70179   0.50000   0.00000  Uiso   1.00
H491   H     0.52850   0.82962   0.50591   0.00000  Uiso   1.00
H492   H     0.97503   0.69842   0.55041   0.00000  Uiso   1.00
H493   H     0.96617   0.80950   0.44088   0.00000  Uiso   1.00
H494   H     0.52733   0.67776   0.48988   0.00000  Uiso   1.00
H495   H     0.64250   0.84118   0.54844   0.00000  Uiso   1.00
H496   H     0.86921   0.65461   0.53791   0.00000  Uiso   1.00
H497   H     0.84401   0.80616   0.41845   0.00000  Uiso   1.00
H498   H     0.63880   0.65307   0.53382   0.00000  Uiso   1.00
N499   N     0.75000   0.62935   0.50000   0.00000  Uiso   1.00
N500   N     0.75000   0.87066   0.50000   0.00000  Uiso   1.00
O501   O     0.68573   0.79072   0.50000   0.00000  Uiso   1.00
O502   O     0.90346   0.67394   0.59850   0.00000  Uiso   1.00
O503   O     0.89506   0.84773   0.40808   0.00000  Uiso   1.00
O504   O     0.59531   0.62497   0.48634   0.00000  Uiso   1.00
O505   O     0.81427   0.70929   0.50000   0.00000  Uiso   1.00
O506   O     0.81427   0.79072   0.50000   0.00000  Uiso   1.00
O507   O     0.68573   0.70929   0.50000   0.00000  Uiso   1.00
O508   O     0.75000   0.79071   0.42946   0.00000  Uiso   1.00
O509   O     0.75000   0.70929   0.57054   0.00000  Uiso   1.00
O510   O     0.75000   0.79071   0.57054   0.00000  Uiso   1.00
O511   O     0.75000   0.70929   0.42946   0.00000  Uiso   1.00
O512   O     0.59848   0.87960   0.50889   0.00000  Uiso   1.00
C513   C     0.16489   0.25024   0.83597   0.00000  Uiso   1.00
C514   C     0.28393   0.44559   0.85744   0.00000  Uiso   1.00
C515   C     0.24994   0.25012   0.74026   0.00000  Uiso   1.00
C516   C     0.25013   0.24989   0.92641   0.00000  Uiso   1.00
C517   C     0.24640   0.02721   0.83396   0.00000  Uiso   1.00
C518   C     0.25207   0.47243   0.82890   0.00000  Uiso   1.00
C519   C     0.25003   0.25017   0.68853   0.00000  Uiso   1.00
C520   C     0.25009   0.24985   0.97814   0.00000  Uiso   1.00
C521   C     0.04663   0.29630   0.83564   0.00000  Uiso   1.00
C522   C     0.45509   0.22207   0.85985   0.00000  Uiso   1.00
C523   C     0.44989   0.28513   0.79852   0.00000  Uiso   1.00
C524   C     0.33491   0.24979   0.83195   0.00000  Uiso   1.00
C525   C     0.04596   0.21048   0.82725   0.00000  Uiso   1.00
C526   C     0.09250   0.29552   0.84206   0.00000  Uiso   1.00
C527   C     0.40965   0.21843   0.85909   0.00000  Uiso   1.00
C528   C     0.40380   0.28307   0.79757   0.00000  Uiso   1.00
C529   C     0.09154   0.20793   0.83435   0.00000  Uiso   1.00
C530   C     0.11604   0.25109   0.83873   0.00000  Uiso   1.00
C531   C     0.38320   0.24972   0.82877   0.00000  Uiso   1.00
C532   C     0.02348   0.25412   0.82850   0.00000  Uiso   1.00
C533   C     0.47536   0.25439   0.82912   0.00000  Uiso   1.00
C534   C     0.11375   0.34117   0.85678   0.00000  Uiso   1.00
C535   C     0.27011   0.10290   0.87123   0.00000  Uiso   1.00
C536   C     0.39155   0.17968   0.88870   0.00000  Uiso   1.00
C537   C     0.37812   0.31375   0.76148   0.00000  Uiso   1.00
C538   C     0.11113   0.15928   0.84136   0.00000  Uiso   1.00
C539   C     0.22503   0.39550   0.79818   0.00000  Uiso   1.00
C540   C     0.22201   0.10559   0.80088   0.00000  Uiso   1.00
C541   C     0.28021   0.39531   0.86197   0.00000  Uiso   1.00
C542   C     0.26548   0.05263   0.87407   0.00000  Uiso   1.00
C543   C     0.22944   0.44544   0.79217   0.00000  Uiso   1.00
C544   C     0.21691   0.05531   0.80380   0.00000  Uiso   1.00
Cl545  Cl    0.29991   0.12989   0.92023   0.00000  Uiso   1.00
Cl546  Cl    0.18757   0.36597   0.75794   0.00000  Uiso   1.00
Cl547  Cl    0.18825   0.13690   0.75689   0.00000  Uiso   1.00
Cl548  Cl    0.31618   0.36501   0.90448   0.00000  Uiso   1.00
Cl549  Cl    0.26878   0.02570   0.93351   0.00000  Uiso   1.00
Cl550  Cl    0.22342   0.46789   0.73109   0.00000  Uiso   1.00
Cl551  Cl    0.16404   0.03305   0.78722   0.00000  Uiso   1.00
Cl552  Cl    0.33565   0.47086   0.87390   0.00000  Uiso   1.00
Cu553  Cu    0.25000   0.29822   0.83333   0.00000  Uiso   1.00
Cu554  Cu    0.25000   0.20179   0.83333   0.00000  Uiso   1.00
H555   H     0.02850   0.32962   0.83925   0.00000  Uiso   1.00
H556   H     0.47503   0.19842   0.88374   0.00000  Uiso   1.00
H557   H     0.46617   0.30950   0.77421   0.00000  Uiso   1.00
H558   H     0.02733   0.17776   0.82321   0.00000  Uiso   1.00
H559   H     0.14250   0.34118   0.88177   0.00000  Uiso   1.00
H560   H     0.36921   0.15461   0.87125   0.00000  Uiso   1.00
H561   H     0.34401   0.30616   0.75178   0.00000  Uiso   1.00
H562   H     0.13880   0.15307   0.86716   0.00000  Uiso   1.00
N563   N     0.25000   0.12935   0.83333   0.00000  Uiso   1.00
N564   N     0.25000   0.37066   0.83333   0.00000  Uiso   1.00
O565   O     0.18573   0.29072   0.83334   0.00000  Uiso   1.00
O566   O     0.40346   0.17394   0.93184   0.00000  Uiso   1.00
O567   O     0.39506   0.34773   0.74141   0.00000  Uiso   1.00
O568   O     0.09531   0.12497   0.81968   0.00000  Uiso   1.00
O569   O     0.31427   0.20929   0.83333   0.00000  Uiso   1.00
O570   O     0.31427   0.29072   0.83333   0.00000  Uiso   1.00
O571   O     0.18573   0.20929   0.83334   0.00000  Uiso   1.00
O572   O     0.25000   0.29071   0.76280   0.00000  Uiso   1.00
O573   O     0.25000   0.20929   0.90387   0.00000  Uiso   1.00
O574   O     0.25000   0.29071   0.90387   0.00000  Uiso   1.00
O575   O     0.25000   0.20929   0.76280   0.00000  Uiso   1.00
O576   O     0.09848   0.37960   0.84222   0.00000  Uiso   1.00
C577   C     0.66489   0.25024   0.83597   0.00000  Uiso   1.00
C578   C     0.78393   0.44559   0.85744   0.00000  Uiso   1.00
C579   C     0.74994   0.25012   0.74026   0.00000  Uiso   1.00
C580   C     0.75013   0.24989   0.92641   0.00000  Uiso   1.00
C581   C     0.74640   0.02721   0.83396   0.00000  Uiso   1.00
C582   C     0.75207   0.47243   0.82890   0.00000  Uiso   1.00
C583   C     0.75003   0.25017   0.68853   0.00000  Uiso   1.00
C584   C     0.75009   0.24985   0.97814   0.00000  Uiso   1.00
C585   C     0.54663   0.29630   0.83564   0.00000  Uiso   1.00
C586   C     0.95509   0.22207   0.85985   0.00000  Uiso   1.00
C587   C     0.94989   0.28513   0.79852   0.00000  Uiso   1.00
C588   C     0.83491   0.24979   0.83195   0.00000  Uiso   1.00
C589   C     0.54596   0.21048   0.82725   0.00000  Uiso   1.00
C590   C     0.59250   0.29552   0.84206   0.00000  Uiso   1.00
C591   C     0.90965   0.21843   0.85909   0.00000  Uiso   1.00
C592   C     0.90380   0.28307   0.79757   0.00000  Uiso   1.00
C593   C     0.59154   0.20793   0.83435   0.00000  Uiso   1.00
C594   C     0.61604   0.25109   0.83873   0.00000  Uiso   1.00
C595   C     0.88320   0.24972   0.82877   0.00000  Uiso   1.00
C596   C     0.52348   0.25412   0.82850   0.00000  Uiso   1.00
C597   C     0.97536   0.25439   0.82912   0.00000  Uiso   1.00
C598   C     0.61375   0.34117   0.85678   0.00000  Uiso   1.00
C599   C     0.77011   0.10290   0.87123   0.00000  Uiso   1.00
C600   C     0.89155   0.17968   0.88870   0.00000  Uiso   1.00
C601   C     0.87812   0.31375   0.76148   0.00000  Uiso   1.00
C602   C     0.61113   0.15928   0.84136   0.00000  Uiso   1.00
C603   C     0.72503   0.39550   0.79818   0.00000  Uiso   1.00
C604   C     0.72201   0.10559   0.80088   0.00000  Uiso   1.00
C605   C     0.78021   0.39531   0.86197   0.00000  Uiso   1.00
C606   C     0.76548   0.05263   0.87407   0.00000  Uiso   1.00
C607   C     0.72944   0.44544   0.79217   0.00000  Uiso   1.00
C608   C     0.71691   0.05531   0.80380   0.00000  Uiso   1.00
Cl609  Cl    0.79991   0.12989   0.92023   0.00000  Uiso   1.00
Cl610  Cl    0.68757   0.36597   0.75794   0.00000  Uiso   1.00
Cl611  Cl    0.68825   0.13690   0.75689   0.00000  Uiso   1.00
Cl612  Cl    0.81618   0.36501   0.90448   0.00000  Uiso   1.00
Cl613  Cl    0.76878   0.02570   0.93351   0.00000  Uiso   1.00
Cl614  Cl    0.72342   0.46789   0.73109   0.00000  Uiso   1.00
Cl615  Cl    0.66404   0.03305   0.78722   0.00000  Uiso   1.00
Cl616  Cl    0.83565   0.47086   0.87390   0.00000  Uiso   1.00
Cu617  Cu    0.75000   0.29822   0.83333   0.00000  Uiso   1.00
Cu618  Cu    0.75000   0.20179   0.83333   0.00000  Uiso   1.00
H619   H     0.52850   0.32962   0.83925   0.00000  Uiso   1.00
H620   H     0.97503   0.19842   0.88374   0.00000  Uiso   1.00
H621   H     0.96617   0.30950   0.77421   0.00000  Uiso   1.00
H622   H     0.52733   0.17776   0.82321   0.00000  Uiso   1.00
H623   H     0.64250   0.34118   0.88177   0.00000  Uiso   1.00
H624   H     0.86921   0.15461   0.87125   0.00000  Uiso   1.00
H625   H     0.84401   0.30616   0.75178   0.00000  Uiso   1.00
H626   H     0.63880   0.15307   0.86716   0.00000  Uiso   1.00
N627   N     0.75000   0.12935   0.83333   0.00000  Uiso   1.00
N628   N     0.75000   0.37066   0.83333   0.00000  Uiso   1.00
O629   O     0.68573   0.29072   0.83334   0.00000  Uiso   1.00
O630   O     0.90346   0.17394   0.93184   0.00000  Uiso   1.00
O631   O     0.89506   0.34773   0.74141   0.00000  Uiso   1.00
O632   O     0.59531   0.12497   0.81968   0.00000  Uiso   1.00
O633   O     0.81427   0.20929   0.83333   0.00000  Uiso   1.00
O634   O     0.81427   0.29072   0.83333   0.00000  Uiso   1.00
O635   O     0.68573   0.20929   0.83334   0.00000  Uiso   1.00
O636   O     0.75000   0.29071   0.76280   0.00000  Uiso   1.00
O637   O     0.75000   0.20929   0.90387   0.00000  Uiso   1.00
O638   O     0.75000   0.29071   0.90387   0.00000  Uiso   1.00
O639   O     0.75000   0.20929   0.76280   0.00000  Uiso   1.00
O640   O     0.59848   0.37960   0.84222   0.00000  Uiso   1.00
C641   C     0.16489   0.75024   0.83597   0.00000  Uiso   1.00
C642   C     0.28393   0.94559   0.85744   0.00000  Uiso   1.00
C643   C     0.24994   0.75012   0.74026   0.00000  Uiso   1.00
C644   C     0.25013   0.74989   0.92641   0.00000  Uiso   1.00
C645   C     0.24640   0.52721   0.83396   0.00000  Uiso   1.00
C646   C     0.25207   0.97243   0.82890   0.00000  Uiso   1.00
C647   C     0.25003   0.75017   0.68853   0.00000  Uiso   1.00
C648   C     0.25009   0.74985   0.97814   0.00000  Uiso   1.00
C649   C     0.04663   0.79630   0.83564   0.00000  Uiso   1.00
C650   C     0.45509   0.72207   0.85985   0.00000  Uiso   1.00
C651   C     0.44989   0.78513   0.79852   0.00000  Uiso   1.00
C652   C     0.33491   0.74979   0.83195   0.00000  Uiso   1.00
C653   C     0.04596   0.71048   0.82725   0.00000  Uiso   1.00
C654   C     0.09250   0.79552   0.84206   0.00000  Uiso   1.00
C655   C     0.40965   0.71843   0.85909   0.00000  Uiso   1.00
C656   C     0.40380   0.78307   0.79757   0.00000  Uiso   1.00
C657   C     0.09154   0.70793   0.83435   0.00000  Uiso   1.00
C658   C     0.11604   0.75109   0.83873   0.00000  Uiso   1.00
C659   C     0.38320   0.74972   0.82877   0.00000  Uiso   1.00
C660   C     0.02348   0.75412   0.82850   0.00000  Uiso   1.00
C661   C     0.47536   0.75439   0.82912   0.00000  Uiso   1.00
C662   C     0.11375   0.84117   0.85678   0.00000  Uiso   1.00
C663   C     0.27011   0.60290   0.87123   0.00000  Uiso   1.00
C664   C     0.39155   0.67968   0.88870   0.00000  Uiso   1.00
C665   C     0.37812   0.81375   0.76148   0.00000  Uiso   1.00
C666   C     0.11113   0.65928   0.84136   0.00000  Uiso   1.00
C667   C     0.22503   0.89550   0.79818   0.00000  Uiso   1.00
C668   C     0.22201   0.60559   0.80088   0.00000  Uiso   1.00
C669   C     0.28021   0.89531   0.86197   0.00000  Uiso   1.00
C670   C     0.26548   0.55263   0.87407   0.00000  Uiso   1.00
C671   C     0.22944   0.94544   0.79217   0.00000  Uiso   1.00
C672   C     0.21691   0.55531   0.80380   0.00000  Uiso   1.00
Cl673  Cl    0.29991   0.62989   0.92023   0.00000  Uiso   1.00
Cl674  Cl    0.18757   0.86597   0.75794   0.00000  Uiso   1.00
Cl675  Cl    0.18825   0.63690   0.75689   0.00000  Uiso   1.00
Cl676  Cl    0.31618   0.86501   0.90448   0.00000  Uiso   1.00
Cl677  Cl    0.26878   0.52570   0.93351   0.00000  Uiso   1.00
Cl678  Cl    0.22342   0.96789   0.73109   0.00000  Uiso   1.00
Cl679  Cl    0.16404   0.53305   0.78722   0.00000  Uiso   1.00
Cl680  Cl    0.33565   0.97086   0.87390   0.00000  Uiso   1.00
Cu681  Cu    0.25000   0.79822   0.83333   0.00000  Uiso   1.00
Cu682  Cu    0.25000   0.70179   0.83333   0.00000  Uiso   1.00
H683   H     0.02850   0.82962   0.83925   0.00000  Uiso   1.00
H684   H     0.47503   0.69842   0.88374   0.00000  Uiso   1.00
H685   H     0.46617   0.80950   0.77421   0.00000  Uiso   1.00
H686   H     0.02733   0.67776   0.82321   0.00000  Uiso   1.00
H687   H     0.14250   0.84118   0.88177   0.00000  Uiso   1.00
H688   H     0.36921   0.65461   0.87125   0.00000  Uiso   1.00
H689   H     0.34401   0.80616   0.75178   0.00000  Uiso   1.00
H690   H     0.13880   0.65307   0.86716   0.00000  Uiso   1.00
N691   N     0.25000   0.62935   0.83333   0.00000  Uiso   1.00
N692   N     0.25000   0.87066   0.83333   0.00000  Uiso   1.00
O693   O     0.18573   0.79072   0.83334   0.00000  Uiso   1.00
O694   O     0.40346   0.67394   0.93184   0.00000  Uiso   1.00
O695   O     0.39506   0.84773   0.74141   0.00000  Uiso   1.00
O696   O     0.09531   0.62497   0.81968   0.00000  Uiso   1.00
O697   O     0.31427   0.70929   0.83333   0.00000  Uiso   1.00
O698   O     0.31427   0.79072   0.83333   0.00000  Uiso   1.00
O699   O     0.18573   0.70929   0.83334   0.00000  Uiso   1.00
O700   O     0.25000   0.79071   0.76280   0.00000  Uiso   1.00
O701   O     0.25000   0.70929   0.90387   0.00000  Uiso   1.00
O702   O     0.25000   0.79071   0.90387   0.00000  Uiso   1.00
O703   O     0.25000   0.70929   0.76280   0.00000  Uiso   1.00
O704   O     0.09848   0.87960   0.84222   0.00000  Uiso   1.00
C705   C     0.66489   0.75024   0.83597   0.00000  Uiso   1.00
C706   C     0.78393   0.94559   0.85744   0.00000  Uiso   1.00
C707   C     0.74994   0.75012   0.74026   0.00000  Uiso   1.00
C708   C     0.75013   0.74989   0.92641   0.00000  Uiso   1.00
C709   C     0.74640   0.52721   0.83396   0.00000  Uiso   1.00
C710   C     0.75207   0.97243   0.82890   0.00000  Uiso   1.00
C711   C     0.75003   0.75017   0.68853   0.00000  Uiso   1.00
C712   C     0.75009   0.74985   0.97814   0.00000  Uiso   1.00
C713   C     0.54663   0.79630   0.83564   0.00000  Uiso   1.00
C714   C     0.95509   0.72207   0.85985   0.00000  Uiso   1.00
C715   C     0.94989   0.78513   0.79852   0.00000  Uiso   1.00
C716   C     0.83491   0.74979   0.83195   0.00000  Uiso   1.00
C717   C     0.54596   0.71048   0.82725   0.00000  Uiso   1.00
C718   C     0.59250   0.79552   0.84206   0.00000  Uiso   1.00
C719   C     0.90965   0.71843   0.85909   0.00000  Uiso   1.00
C720   C     0.90380   0.78307   0.79757   0.00000  Uiso   1.00
C721   C     0.59154   0.70793   0.83435   0.00000  Uiso   1.00
C722   C     0.61604   0.75109   0.83873   0.00000  Uiso   1.00
C723   C     0.88320   0.74972   0.82877   0.00000  Uiso   1.00
C724   C     0.52348   0.75412   0.82850   0.00000  Uiso   1.00
C725   C     0.97536   0.75439   0.82912   0.00000  Uiso   1.00
C726   C     0.61375   0.84117   0.85678   0.00000  Uiso   1.00
C727   C     0.77011   0.60290   0.87123   0.00000  Uiso   1.00
C728   C     0.89155   0.67968   0.88870   0.00000  Uiso   1.00
C729   C     0.87812   0.81375   0.76148   0.00000  Uiso   1.00
C730   C     0.61113   0.65928   0.84136   0.00000  Uiso   1.00
C731   C     0.72503   0.89550   0.79818   0.00000  Uiso   1.00
C732   C     0.72201   0.60559   0.80088   0.00000  Uiso   1.00
C733   C     0.78021   0.89531   0.86197   0.00000  Uiso   1.00
C734   C     0.76548   0.55263   0.87407   0.00000  Uiso   1.00
C735   C     0.72944   0.94544   0.79217   0.00000  Uiso   1.00
C736   C     0.71691   0.55531   0.80380   0.00000  Uiso   1.00
Cl737  Cl    0.79991   0.62989   0.92023   0.00000  Uiso   1.00
Cl738  Cl    0.68757   0.86597   0.75794   0.00000  Uiso   1.00
Cl739  Cl    0.68825   0.63690   0.75689   0.00000  Uiso   1.00
Cl740  Cl    0.81618   0.86501   0.90448   0.00000  Uiso   1.00
Cl741  Cl    0.76878   0.52570   0.93351   0.00000  Uiso   1.00
Cl742  Cl    0.72342   0.96789   0.73109   0.00000  Uiso   1.00
Cl743  Cl    0.66404   0.53305   0.78722   0.00000  Uiso   1.00
Cl744  Cl    0.83565   0.97086   0.87390   0.00000  Uiso   1.00
Cu745  Cu    0.75000   0.79822   0.83333   0.00000  Uiso   1.00
Cu746  Cu    0.75000   0.70179   0.83333   0.00000  Uiso   1.00
H747   H     0.52850   0.82962   0.83925   0.00000  Uiso   1.00
H748   H     0.97503   0.69842   0.88374   0.00000  Uiso   1.00
H749   H     0.96617   0.80950   0.77421   0.00000  Uiso   1.00
H750   H     0.52733   0.67776   0.82321   0.00000  Uiso   1.00
H751   H     0.64250   0.84118   0.88177   0.00000  Uiso   1.00
H752   H     0.86921   0.65461   0.87125   0.00000  Uiso   1.00
H753   H     0.84401   0.80616   0.75178   0.00000  Uiso   1.00
H754   H     0.63880   0.65307   0.86716   0.00000  Uiso   1.00
N755   N     0.75000   0.62935   0.83333   0.00000  Uiso   1.00
N756   N     0.75000   0.87066   0.83333   0.00000  Uiso   1.00
O757   O     0.68573   0.79072   0.83334   0.00000  Uiso   1.00
O758   O     0.90346   0.67394   0.93184   0.00000  Uiso   1.00
O759   O     0.89506   0.84773   0.74141   0.00000  Uiso   1.00
O760   O     0.59531   0.62497   0.81968   0.00000  Uiso   1.00
O761   O     0.81427   0.70929   0.83333   0.00000  Uiso   1.00
O762   O     0.81427   0.79072   0.83333   0.00000  Uiso   1.00
O763   O     0.68573   0.70929   0.83334   0.00000  Uiso   1.00
O764   O     0.75000   0.79071   0.76280   0.00000  Uiso   1.00
O765   O     0.75000   0.70929   0.90387   0.00000  Uiso   1.00
O766   O     0.75000   0.79071   0.90387   0.00000  Uiso   1.00
O767   O     0.75000   0.70929   0.76280   0.00000  Uiso   1.00
O768   O     0.59848   0.87960   0.84222   0.00000  Uiso   1.00
loop_
_geom_bond_atom_site_label_1
_geom_bond_atom_site_label_2
_geom_bond_distance
_geom_bond_site_symmetry_2
_ccdc_geom_bond_type
C1     O59     1.307   .     A
C1     C18     1.492   .     S
C1     O53     1.305   .     A
C2     C6      1.419   .     A
C2     Cl40    1.773   .     S
C2     C29     1.415   .     A
C3     O63     1.291   .     A
C3     O60     1.293   .     A
C3     C7      1.407   .     S
C4     C8      1.407   .     S
C4     O62     1.290   .     A
C4     O61     1.294   .     A
C5     C32     1.416   .     A
C5     C30     1.413   .     A
C5     C134    1.546   1_545 S
C6     C31     1.415   .     A
C6     C133    1.546   .     S
C7     C520    1.189   1_554 S
C8     C263    1.189   .     S
C9     C14     1.399   .     A
C9     H43     1.085   .     S
C9     C20     1.390   .     A
C10    C15     1.387   .     A
C10    C21     1.392   .     A
C10    H44     1.085   .     S
C11    C21     1.396   .     A
C11    H45     1.084   .     S
C11    C16     1.404   .     A
C12    O58     1.301   .     A
C12    C19     1.476   .     S
C12    O57     1.301   .     A
C13    C17     1.394   .     A
C13    H46     1.085   .     S
C13    C20     1.393   .     A
C14    C18     1.432   .     A
C14    C22     1.486   .     S
C15    C19     1.417   .     A
C15    C24     1.470   .     S
C16    C19     1.424   .     A
C16    C25     1.488   .     S
C17    C26     1.486   .     S
C17    C18     1.428   .     A
C20    C85     1.466   1_455 S
C21    C84     1.466   .     S
C22    H47     1.084   .     S
C22    O64     1.221   .     D
C23    N51     1.380   .     A
C23    C30     1.415   .     A
C23    Cl33    1.758   .     S
C24    O54     1.221   .     D
C24    H48     1.080   .     S
C25    H49     1.084   .     S
C25    O55     1.221   .     D
C26    H50     1.084   .     S
C26    O56     1.221   .     D
C27    C31     1.412   .     A
C27    Cl34    1.761   .     S
C27    N52     1.374   .     A
C28    N51     1.379   .     A
C28    C32     1.417   .     A
C28    Cl35    1.763   .     S
C29    Cl36    1.762   .     S
C29    N52     1.373   .     A
C30    Cl37    1.776   .     S
C31    Cl38    1.772   .     S
C32    Cl39    1.773   .     S
Cu41   Cu42    2.694   .     S
Cu41   N52     2.024   .     S
Cu41   O53     1.970   .     S
Cu41   O62     1.928   .     S
Cu41   O58     1.965   .     S
Cu41   O60     1.931   .     S
Cu42   O59     1.965   .     S
Cu42   O63     1.928   .     S
Cu42   N51     2.024   .     S
Cu42   O61     1.931   .     S
Cu42   O57     1.970   .     S
C65    O123    1.307   .     A
C65    C82     1.492   .     S
C65    O117    1.305   .     A
C66    C70     1.419   .     A
C66    Cl104   1.773   .     S
C66    C93     1.415   .     A
C67    O127    1.291   .     A
C67    O124    1.293   .     A
C67    C71     1.407   .     S
C68    C72     1.407   .     S
C68    O126    1.290   .     A
C68    O125    1.294   .     A
C69    C96     1.416   .     A
C69    C94     1.413   .     A
C69    C198    1.546   1_545 S
C70    C95     1.415   .     A
C70    C197    1.546   .     S
C71    C584    1.189   1_554 S
C72    C327    1.189   .     S
C73    C78     1.399   .     A
C73    H107    1.085   .     S
C73    C84     1.390   .     A
C74    C79     1.387   .     A
C74    C85     1.392   .     A
C74    H108    1.085   .     S
C75    C85     1.396   .     A
C75    H109    1.084   .     S
C75    C80     1.404   .     A
C76    O122    1.301   .     A
C76    C83     1.476   .     S
C76    O121    1.301   .     A
C77    C81     1.394   .     A
C77    H110    1.085   .     S
C77    C84     1.393   .     A
C78    C82     1.432   .     A
C78    C86     1.486   .     S
C79    C83     1.417   .     A
C79    C88     1.470   .     S
C80    C83     1.424   .     A
C80    C89     1.488   .     S
C81    C90     1.486   .     S
C81    C82     1.428   .     A
C85    C20     1.466   1_655 S
C86    H111    1.084   .     S
C86    O128    1.221   .     D
C87    N115    1.380   .     A
C87    C94     1.415   .     A
C87    Cl97    1.758   .     S
C88    O118    1.221   .     D
C88    H112    1.080   .     S
C89    H113    1.084   .     S
C89    O119    1.221   .     D
C90    H114    1.084   .     S
C90    O120    1.221   .     D
C91    C95     1.412   .     A
C91    Cl98    1.761   .     S
C91    N116    1.374   .     A
C92    N115    1.379   .     A
C92    C96     1.417   .     A
C92    Cl99    1.763   .     S
C93    Cl100   1.762   .     S
C93    N116    1.373   .     A
C94    Cl101   1.776   .     S
C95    Cl102   1.772   .     S
C96    Cl103   1.773   .     S
Cu105  Cu106   2.694   .     S
Cu105  N116    2.024   .     S
Cu105  O117    1.970   .     S
Cu105  O126    1.928   .     S
Cu105  O122    1.965   .     S
Cu105  O124    1.931   .     S
Cu106  O123    1.965   .     S
Cu106  O127    1.928   .     S
Cu106  N115    2.024   .     S
Cu106  O125    1.931   .     S
Cu106  O121    1.970   .     S
C129   O187    1.307   .     A
C129   C146    1.492   .     S
C129   O181    1.305   .     A
C130   C134    1.419   .     A
C130   Cl168   1.773   .     S
C130   C157    1.415   .     A
C131   O191    1.291   .     A
C131   O188    1.293   .     A
C131   C135    1.407   .     S
C132   C136    1.407   .     S
C132   O190    1.290   .     A
C132   O189    1.294   .     A
C133   C160    1.416   .     A
C133   C158    1.413   .     A
C134   C159    1.415   .     A
C134   C5      1.546   1_565 S
C135   C648    1.189   1_554 S
C136   C391    1.189   .     S
C137   C142    1.399   .     A
C137   H171    1.085   .     S
C137   C148    1.390   .     A
C138   C143    1.387   .     A
C138   C149    1.392   .     A
C138   H172    1.085   .     S
C139   C149    1.396   .     A
C139   H173    1.084   .     S
C139   C144    1.404   .     A
C140   O186    1.301   .     A
C140   C147    1.476   .     S
C140   O185    1.301   .     A
C141   C145    1.394   .     A
C141   H174    1.085   .     S
C141   C148    1.393   .     A
C142   C146    1.432   .     A
C142   C150    1.486   .     S
C143   C147    1.417   .     A
C143   C152    1.470   .     S
C144   C147    1.424   .     A
C144   C153    1.488   .     S
C145   C154    1.486   .     S
C145   C146    1.428   .     A
C148   C213    1.466   1_455 S
C149   C212    1.466   .     S
C150   H175    1.084   .     S
C150   O192    1.221   .     D
C151   N179    1.380   .     A
C151   C158    1.415   .     A
C151   Cl161   1.758   .     S
C152   O182    1.221   .     D
C152   H176    1.080   .     S
C153   H177    1.084   .     S
C153   O183    1.221   .     D
C154   H178    1.084   .     S
C154   O184    1.221   .     D
C155   C159    1.412   .     A
C155   Cl162   1.761   .     S
C155   N180    1.374   .     A
C156   N179    1.379   .     A
C156   C160    1.417   .     A
C156   Cl163   1.763   .     S
C157   Cl164   1.762   .     S
C157   N180    1.373   .     A
C158   Cl165   1.776   .     S
C159   Cl166   1.772   .     S
C160   Cl167   1.773   .     S
Cu169  Cu170   2.694   .     S
Cu169  N180    2.024   .     S
Cu169  O181    1.970   .     S
Cu169  O190    1.928   .     S
Cu169  O186    1.965   .     S
Cu169  O188    1.931   .     S
Cu170  O187    1.965   .     S
Cu170  O191    1.928   .     S
Cu170  N179    2.024   .     S
Cu170  O189    1.931   .     S
Cu170  O185    1.970   .     S
C193   O251    1.307   .     A
C193   C210    1.492   .     S
C193   O245    1.305   .     A
C194   C198    1.419   .     A
C194   Cl232   1.773   .     S
C194   C221    1.415   .     A
C195   O255    1.291   .     A
C195   O252    1.293   .     A
C195   C199    1.407   .     S
C196   C200    1.407   .     S
C196   O254    1.290   .     A
C196   O253    1.294   .     A
C197   C224    1.416   .     A
C197   C222    1.413   .     A
C198   C223    1.415   .     A
C198   C69     1.546   1_565 S
C199   C712    1.189   1_554 S
C200   C455    1.189   .     S
C201   C206    1.399   .     A
C201   H235    1.085   .     S
C201   C212    1.390   .     A
C202   C207    1.387   .     A
C202   C213    1.392   .     A
C202   H236    1.085   .     S
C203   C213    1.396   .     A
C203   H237    1.084   .     S
C203   C208    1.404   .     A
C204   O250    1.301   .     A
C204   C211    1.476   .     S
C204   O249    1.301   .     A
C205   C209    1.394   .     A
C205   H238    1.085   .     S
C205   C212    1.393   .     A
C206   C210    1.432   .     A
C206   C214    1.486   .     S
C207   C211    1.417   .     A
C207   C216    1.470   .     S
C208   C211    1.424   .     A
C208   C217    1.488   .     S
C209   C218    1.486   .     S
C209   C210    1.428   .     A
C213   C148    1.466   1_655 S
C214   H239    1.084   .     S
C214   O256    1.221   .     D
C215   N243    1.380   .     A
C215   C222    1.415   .     A
C215   Cl225   1.758   .     S
C216   O246    1.221   .     D
C216   H240    1.080   .     S
C217   H241    1.084   .     S
C217   O247    1.221   .     D
C218   H242    1.084   .     S
C218   O248    1.221   .     D
C219   C223    1.412   .     A
C219   Cl226   1.761   .     S
C219   N244    1.374   .     A
C220   N243    1.379   .     A
C220   C224    1.417   .     A
C220   Cl227   1.763   .     S
C221   Cl228   1.762   .     S
C221   N244    1.373   .     A
C222   Cl229   1.776   .     S
C223   Cl230   1.772   .     S
C224   Cl231   1.773   .     S
Cu233  Cu234   2.694   .     S
Cu233  N244    2.024   .     S
Cu233  O245    1.970   .     S
Cu233  O254    1.928   .     S
Cu233  O250    1.965   .     S
Cu233  O252    1.931   .     S
Cu234  O251    1.965   .     S
Cu234  O255    1.928   .     S
Cu234  N243    2.024   .     S
Cu234  O253    1.931   .     S
Cu234  O249    1.970   .     S
C257   O315    1.307   .     A
C257   C274    1.492   .     S
C257   O309    1.305   .     A
C258   C262    1.419   .     A
C258   Cl296   1.773   .     S
C258   C285    1.415   .     A
C259   O319    1.291   .     A
C259   O316    1.293   .     A
C259   C263    1.407   .     S
C260   C264    1.407   .     S
C260   O318    1.290   .     A
C260   O317    1.294   .     A
C261   C288    1.416   .     A
C261   C286    1.413   .     A
C261   C390    1.546   1_545 S
C262   C287    1.415   .     A
C262   C389    1.546   .     S
C264   C519    1.189   .     S
C265   C270    1.399   .     A
C265   H299    1.085   .     S
C265   C276    1.390   .     A
C266   C271    1.387   .     A
C266   C277    1.392   .     A
C266   H300    1.085   .     S
C267   C277    1.396   .     A
C267   H301    1.084   .     S
C267   C272    1.404   .     A
C268   O314    1.301   .     A
C268   C275    1.476   .     S
C268   O313    1.301   .     A
C269   C273    1.394   .     A
C269   H302    1.085   .     S
C269   C276    1.393   .     A
C270   C274    1.432   .     A
C270   C278    1.486   .     S
C271   C275    1.417   .     A
C271   C280    1.470   .     S
C272   C275    1.424   .     A
C272   C281    1.488   .     S
C273   C282    1.486   .     S
C273   C274    1.428   .     A
C276   C341    1.466   1_455 S
C277   C340    1.466   .     S
C278   H303    1.084   .     S
C278   O320    1.221   .     D
C279   N307    1.380   .     A
C279   C286    1.415   .     A
C279   Cl289   1.758   .     S
C280   O310    1.221   .     D
C280   H304    1.080   .     S
C281   H305    1.084   .     S
C281   O311    1.221   .     D
C282   H306    1.084   .     S
C282   O312    1.221   .     D
C283   C287    1.412   .     A
C283   Cl290   1.761   .     S
C283   N308    1.374   .     A
C284   N307    1.379   .     A
C284   C288    1.417   .     A
C284   Cl291   1.763   .     S
C285   Cl292   1.762   .     S
C285   N308    1.373   .     A
C286   Cl293   1.776   .     S
C287   Cl294   1.772   .     S
C288   Cl295   1.773   .     S
Cu297  Cu298   2.694   .     S
Cu297  N308    2.024   .     S
Cu297  O309    1.970   .     S
Cu297  O318    1.928   .     S
Cu297  O314    1.965   .     S
Cu297  O316    1.931   .     S
Cu298  O315    1.965   .     S
Cu298  O319    1.928   .     S
Cu298  N307    2.024   .     S
Cu298  O317    1.931   .     S
Cu298  O313    1.970   .     S
C321   O379    1.307   .     A
C321   C338    1.492   .     S
C321   O373    1.305   .     A
C322   C326    1.419   .     A
C322   Cl360   1.773   .     S
C322   C349    1.415   .     A
C323   O383    1.291   .     A
C323   O380    1.293   .     A
C323   C327    1.407   .     S
C324   C328    1.407   .     S
C324   O382    1.290   .     A
C324   O381    1.294   .     A
C325   C352    1.416   .     A
C325   C350    1.413   .     A
C325   C454    1.546   1_545 S
C326   C351    1.415   .     A
C326   C453    1.546   .     S
C328   C583    1.189   .     S
C329   C334    1.399   .     A
C329   H363    1.085   .     S
C329   C340    1.390   .     A
C330   C335    1.387   .     A
C330   C341    1.392   .     A
C330   H364    1.085   .     S
C331   C341    1.396   .     A
C331   H365    1.084   .     S
C331   C336    1.404   .     A
C332   O378    1.301   .     A
C332   C339    1.476   .     S
C332   O377    1.301   .     A
C333   C337    1.394   .     A
C333   H366    1.085   .     S
C333   C340    1.393   .     A
C334   C338    1.432   .     A
C334   C342    1.486   .     S
C335   C339    1.417   .     A
C335   C344    1.470   .     S
C336   C339    1.424   .     A
C336   C345    1.488   .     S
C337   C346    1.486   .     S
C337   C338    1.428   .     A
C341   C276    1.466   1_655 S
C342   H367    1.084   .     S
C342   O384    1.221   .     D
C343   N371    1.380   .     A
C343   C350    1.415   .     A
C343   Cl353   1.758   .     S
C344   O374    1.221   .     D
C344   H368    1.080   .     S
C345   H369    1.084   .     S
C345   O375    1.221   .     D
C346   H370    1.084   .     S
C346   O376    1.221   .     D
C347   C351    1.412   .     A
C347   Cl354   1.761   .     S
C347   N372    1.374   .     A
C348   N371    1.379   .     A
C348   C352    1.417   .     A
C348   Cl355   1.763   .     S
C349   Cl356   1.762   .     S
C349   N372    1.373   .     A
C350   Cl357   1.776   .     S
C351   Cl358   1.772   .     S
C352   Cl359   1.773   .     S
Cu361  Cu362   2.694   .     S
Cu361  N372    2.024   .     S
Cu361  O373    1.970   .     S
Cu361  O382    1.928   .     S
Cu361  O378    1.965   .     S
Cu361  O380    1.931   .     S
Cu362  O379    1.965   .     S
Cu362  O383    1.928   .     S
Cu362  N371    2.024   .     S
Cu362  O381    1.931   .     S
Cu362  O377    1.970   .     S
C385   O443    1.307   .     A
C385   C402    1.492   .     S
C385   O437    1.305   .     A
C386   C390    1.419   .     A
C386   Cl424   1.773   .     S
C386   C413    1.415   .     A
C387   O447    1.291   .     A
C387   O444    1.293   .     A
C387   C391    1.407   .     S
C388   C392    1.407   .     S
C388   O446    1.290   .     A
C388   O445    1.294   .     A
C389   C416    1.416   .     A
C389   C414    1.413   .     A
C390   C415    1.415   .     A
C390   C261    1.546   1_565 S
C392   C647    1.189   .     S
C393   C398    1.399   .     A
C393   H427    1.085   .     S
C393   C404    1.390   .     A
C394   C399    1.387   .     A
C394   C405    1.392   .     A
C394   H428    1.085   .     S
C395   C405    1.396   .     A
C395   H429    1.084   .     S
C395   C400    1.404   .     A
C396   O442    1.301   .     A
C396   C403    1.476   .     S
C396   O441    1.301   .     A
C397   C401    1.394   .     A
C397   H430    1.085   .     S
C397   C404    1.393   .     A
C398   C402    1.432   .     A
C398   C406    1.486   .     S
C399   C403    1.417   .     A
C399   C408    1.470   .     S
C400   C403    1.424   .     A
C400   C409    1.488   .     S
C401   C410    1.486   .     S
C401   C402    1.428   .     A
C404   C469    1.466   1_455 S
C405   C468    1.466   .     S
C406   H431    1.084   .     S
C406   O448    1.221   .     D
C407   N435    1.380   .     A
C407   C414    1.415   .     A
C407   Cl417   1.758   .     S
C408   O438    1.221   .     D
C408   H432    1.080   .     S
C409   H433    1.084   .     S
C409   O439    1.221   .     D
C410   H434    1.084   .     S
C410   O440    1.221   .     D
C411   C415    1.412   .     A
C411   Cl418   1.761   .     S
C411   N436    1.374   .     A
C412   N435    1.379   .     A
C412   C416    1.417   .     A
C412   Cl419   1.763   .     S
C413   Cl420   1.762   .     S
C413   N436    1.373   .     A
C414   Cl421   1.776   .     S
C415   Cl422   1.772   .     S
C416   Cl423   1.773   .     S
Cu425  Cu426   2.694   .     S
Cu425  N436    2.024   .     S
Cu425  O437    1.970   .     S
Cu425  O446    1.928   .     S
Cu425  O442    1.965   .     S
Cu425  O444    1.931   .     S
Cu426  O443    1.965   .     S
Cu426  O447    1.928   .     S
Cu426  N435    2.024   .     S
Cu426  O445    1.931   .     S
Cu426  O441    1.970   .     S
C449   O507    1.307   .     A
C449   C466    1.492   .     S
C449   O501    1.305   .     A
C450   C454    1.419   .     A
C450   Cl488   1.773   .     S
C450   C477    1.415   .     A
C451   O511    1.291   .     A
C451   O508    1.293   .     A
C451   C455    1.407   .     S
C452   C456    1.407   .     S
C452   O510    1.290   .     A
C452   O509    1.294   .     A
C453   C480    1.416   .     A
C453   C478    1.413   .     A
C454   C479    1.415   .     A
C454   C325    1.546   1_565 S
C456   C711    1.189   .     S
C457   C462    1.399   .     A
C457   H491    1.085   .     S
C457   C468    1.390   .     A
C458   C463    1.387   .     A
C458   C469    1.392   .     A
C458   H492    1.085   .     S
C459   C469    1.396   .     A
C459   H493    1.084   .     S
C459   C464    1.404   .     A
C460   O506    1.301   .     A
C460   C467    1.476   .     S
C460   O505    1.301   .     A
C461   C465    1.394   .     A
C461   H494    1.085   .     S
C461   C468    1.393   .     A
C462   C466    1.432   .     A
C462   C470    1.486   .     S
C463   C467    1.417   .     A
C463   C472    1.470   .     S
C464   C467    1.424   .     A
C464   C473    1.488   .     S
C465   C474    1.486   .     S
C465   C466    1.428   .     A
C469   C404    1.466   1_655 S
C470   H495    1.084   .     S
C470   O512    1.221   .     D
C471   N499    1.380   .     A
C471   C478    1.415   .     A
C471   Cl481   1.758   .     S
C472   O502    1.221   .     D
C472   H496    1.080   .     S
C473   H497    1.084   .     S
C473   O503    1.221   .     D
C474   H498    1.084   .     S
C474   O504    1.221   .     D
C475   C479    1.412   .     A
C475   Cl482   1.761   .     S
C475   N500    1.374   .     A
C476   N499    1.379   .     A
C476   C480    1.417   .     A
C476   Cl483   1.763   .     S
C477   Cl484   1.762   .     S
C477   N500    1.373   .     A
C478   Cl485   1.776   .     S
C479   Cl486   1.772   .     S
C480   Cl487   1.773   .     S
Cu489  Cu490   2.694   .     S
Cu489  N500    2.024   .     S
Cu489  O501    1.970   .     S
Cu489  O510    1.928   .     S
Cu489  O506    1.965   .     S
Cu489  O508    1.931   .     S
Cu490  O507    1.965   .     S
Cu490  O511    1.928   .     S
Cu490  N499    2.024   .     S
Cu490  O509    1.931   .     S
Cu490  O505    1.970   .     S
C513   O571    1.307   .     A
C513   C530    1.492   .     S
C513   O565    1.305   .     A
C514   C518    1.419   .     A
C514   Cl552   1.773   .     S
C514   C541    1.415   .     A
C515   O575    1.291   .     A
C515   O572    1.293   .     A
C515   C519    1.407   .     S
C516   C520    1.407   .     S
C516   O574    1.290   .     A
C516   O573    1.294   .     A
C517   C544    1.416   .     A
C517   C542    1.413   .     A
C517   C646    1.546   1_545 S
C518   C543    1.415   .     A
C518   C645    1.546   .     S
C520   C7      1.189   1_556 S
C521   C526    1.399   .     A
C521   H555    1.085   .     S
C521   C532    1.390   .     A
C522   C527    1.387   .     A
C522   C533    1.392   .     A
C522   H556    1.085   .     S
C523   C533    1.396   .     A
C523   H557    1.084   .     S
C523   C528    1.404   .     A
C524   O570    1.301   .     A
C524   C531    1.476   .     S
C524   O569    1.301   .     A
C525   C529    1.394   .     A
C525   H558    1.085   .     S
C525   C532    1.393   .     A
C526   C530    1.432   .     A
C526   C534    1.486   .     S
C527   C531    1.417   .     A
C527   C536    1.470   .     S
C528   C531    1.424   .     A
C528   C537    1.488   .     S
C529   C538    1.486   .     S
C529   C530    1.428   .     A
C532   C597    1.466   1_455 S
C533   C596    1.466   .     S
C534   H559    1.084   .     S
C534   O576    1.221   .     D
C535   N563    1.380   .     A
C535   C542    1.415   .     A
C535   Cl545   1.758   .     S
C536   O566    1.221   .     D
C536   H560    1.080   .     S
C537   H561    1.084   .     S
C537   O567    1.221   .     D
C538   H562    1.084   .     S
C538   O568    1.221   .     D
C539   C543    1.412   .     A
C539   Cl546   1.761   .     S
C539   N564    1.374   .     A
C540   N563    1.379   .     A
C540   C544    1.417   .     A
C540   Cl547   1.763   .     S
C541   Cl548   1.762   .     S
C541   N564    1.373   .     A
C542   Cl549   1.776   .     S
C543   Cl550   1.772   .     S
C544   Cl551   1.773   .     S
Cu553  Cu554   2.694   .     S
Cu553  N564    2.024   .     S
Cu553  O565    1.970   .     S
Cu553  O574    1.928   .     S
Cu553  O570    1.965   .     S
Cu553  O572    1.931   .     S
Cu554  O571    1.965   .     S
Cu554  O575    1.928   .     S
Cu554  N563    2.024   .     S
Cu554  O573    1.931   .     S
Cu554  O569    1.970   .     S
C577   O635    1.307   .     A
C577   C594    1.492   .     S
C577   O629    1.305   .     A
C578   C582    1.419   .     A
C578   Cl616   1.773   .     S
C578   C605    1.415   .     A
C579   O639    1.291   .     A
C579   O636    1.293   .     A
C579   C583    1.407   .     S
C580   C584    1.407   .     S
C580   O638    1.290   .     A
C580   O637    1.294   .     A
C581   C608    1.416   .     A
C581   C606    1.413   .     A
C581   C710    1.546   1_545 S
C582   C607    1.415   .     A
C582   C709    1.546   .     S
C584   C71     1.189   1_556 S
C585   C590    1.399   .     A
C585   H619    1.085   .     S
C585   C596    1.390   .     A
C586   C591    1.387   .     A
C586   C597    1.392   .     A
C586   H620    1.085   .     S
C587   C597    1.396   .     A
C587   H621    1.084   .     S
C587   C592    1.404   .     A
C588   O634    1.301   .     A
C588   C595    1.476   .     S
C588   O633    1.301   .     A
C589   C593    1.394   .     A
C589   H622    1.085   .     S
C589   C596    1.393   .     A
C590   C594    1.432   .     A
C590   C598    1.486   .     S
C591   C595    1.417   .     A
C591   C600    1.470   .     S
C592   C595    1.424   .     A
C592   C601    1.488   .     S
C593   C602    1.486   .     S
C593   C594    1.428   .     A
C597   C532    1.466   1_655 S
C598   H623    1.084   .     S
C598   O640    1.221   .     D
C599   N627    1.380   .     A
C599   C606    1.415   .     A
C599   Cl609   1.758   .     S
C600   O630    1.221   .     D
C600   H624    1.080   .     S
C601   H625    1.084   .     S
C601   O631    1.221   .     D
C602   H626    1.084   .     S
C602   O632    1.221   .     D
C603   C607    1.412   .     A
C603   Cl610   1.761   .     S
C603   N628    1.374   .     A
C604   N627    1.379   .     A
C604   C608    1.417   .     A
C604   Cl611   1.763   .     S
C605   Cl612   1.762   .     S
C605   N628    1.373   .     A
C606   Cl613   1.776   .     S
C607   Cl614   1.772   .     S
C608   Cl615   1.773   .     S
Cu617  Cu618   2.694   .     S
Cu617  N628    2.024   .     S
Cu617  O629    1.970   .     S
Cu617  O638    1.928   .     S
Cu617  O634    1.965   .     S
Cu617  O636    1.931   .     S
Cu618  O635    1.965   .     S
Cu618  O639    1.928   .     S
Cu618  N627    2.024   .     S
Cu618  O637    1.931   .     S
Cu618  O633    1.970   .     S
C641   O699    1.307   .     A
C641   C658    1.492   .     S
C641   O693    1.305   .     A
C642   C646    1.419   .     A
C642   Cl680   1.773   .     S
C642   C669    1.415   .     A
C643   O703    1.291   .     A
C643   O700    1.293   .     A
C643   C647    1.407   .     S
C644   C648    1.407   .     S
C644   O702    1.290   .     A
C644   O701    1.294   .     A
C645   C672    1.416   .     A
C645   C670    1.413   .     A
C646   C671    1.415   .     A
C646   C517    1.546   1_565 S
C648   C135    1.189   1_556 S
C649   C654    1.399   .     A
C649   H683    1.085   .     S
C649   C660    1.390   .     A
C650   C655    1.387   .     A
C650   C661    1.392   .     A
C650   H684    1.085   .     S
C651   C661    1.396   .     A
C651   H685    1.084   .     S
C651   C656    1.404   .     A
C652   O698    1.301   .     A
C652   C659    1.476   .     S
C652   O697    1.301   .     A
C653   C657    1.394   .     A
C653   H686    1.085   .     S
C653   C660    1.393   .     A
C654   C658    1.432   .     A
C654   C662    1.486   .     S
C655   C659    1.417   .     A
C655   C664    1.470   .     S
C656   C659    1.424   .     A
C656   C665    1.488   .     S
C657   C666    1.486   .     S
C657   C658    1.428   .     A
C660   C725    1.466   1_455 S
C661   C724    1.466   .     S
C662   H687    1.084   .     S
C662   O704    1.221   .     D
C663   N691    1.380   .     A
C663   C670    1.415   .     A
C663   Cl673   1.758   .     S
C664   O694    1.221   .     D
C664   H688    1.080   .     S
C665   H689    1.084   .     S
C665   O695    1.221   .     D
C666   H690    1.084   .     S
C666   O696    1.221   .     D
C667   C671    1.412   .     A
C667   Cl674   1.761   .     S
C667   N692    1.374   .     A
C668   N691    1.379   .     A
C668   C672    1.417   .     A
C668   Cl675   1.763   .     S
C669   Cl676   1.762   .     S
C669   N692    1.373   .     A
C670   Cl677   1.776   .     S
C671   Cl678   1.772   .     S
C672   Cl679   1.773   .     S
Cu681  Cu682   2.694   .     S
Cu681  N692    2.024   .     S
Cu681  O693    1.970   .     S
Cu681  O702    1.928   .     S
Cu681  O698    1.965   .     S
Cu681  O700    1.931   .     S
Cu682  O699    1.965   .     S
Cu682  O703    1.928   .     S
Cu682  N691    2.024   .     S
Cu682  O701    1.931   .     S
Cu682  O697    1.970   .     S
C705   O763    1.307   .     A
C705   C722    1.492   .     S
C705   O757    1.305   .     A
C706   C710    1.419   .     A
C706   Cl744   1.773   .     S
C706   C733    1.415   .     A
C707   O767    1.291   .     A
C707   O764    1.293   .     A
C707   C711    1.407   .     S
C708   C712    1.407   .     S
C708   O766    1.290   .     A
C708   O765    1.294   .     A
C709   C736    1.416   .     A
C709   C734    1.413   .     A
C710   C735    1.415   .     A
C710   C581    1.546   1_565 S
C712   C199    1.189   1_556 S
C713   C718    1.399   .     A
C713   H747    1.085   .     S
C713   C724    1.390   .     A
C714   C719    1.387   .     A
C714   C725    1.392   .     A
C714   H748    1.085   .     S
C715   C725    1.396   .     A
C715   H749    1.084   .     S
C715   C720    1.404   .     A
C716   O762    1.301   .     A
C716   C723    1.476   .     S
C716   O761    1.301   .     A
C717   C721    1.394   .     A
C717   H750    1.085   .     S
C717   C724    1.393   .     A
C718   C722    1.432   .     A
C718   C726    1.486   .     S
C719   C723    1.417   .     A
C719   C728    1.470   .     S
C720   C723    1.424   .     A
C720   C729    1.488   .     S
C721   C730    1.486   .     S
C721   C722    1.428   .     A
C725   C660    1.466   1_655 S
C726   H751    1.084   .     S
C726   O768    1.221   .     D
C727   N755    1.380   .     A
C727   C734    1.415   .     A
C727   Cl737   1.758   .     S
C728   O758    1.221   .     D
C728   H752    1.080   .     S
C729   H753    1.084   .     S
C729   O759    1.221   .     D
C730   H754    1.084   .     S
C730   O760    1.221   .     D
C731   C735    1.412   .     A
C731   Cl738   1.761   .     S
C731   N756    1.374   .     A
C732   N755    1.379   .     A
C732   C736    1.417   .     A
C732   Cl739   1.763   .     S
C733   Cl740   1.762   .     S
C733   N756    1.373   .     A
C734   Cl741   1.776   .     S
C735   Cl742   1.772   .     S
C736   Cl743   1.773   .     S
Cu745  Cu746   2.694   .     S
Cu745  N756    2.024   .     S
Cu745  O757    1.970   .     S
Cu745  O766    1.928   .     S
Cu745  O762    1.965   .     S
Cu745  O764    1.931   .     S
Cu746  O763    1.965   .     S
Cu746  O767    1.928   .     S
Cu746  N755    2.024   .     S
Cu746  O765    1.931   .     S
Cu746  O761    1.970   .     S
