data_str_m2_o10_o16_pcu_sym.9
_audit_creation_date              2020-01-03
_audit_creation_method            'Materials Studio'
_symmetry_space_group_name_H-M    'P1'
_symmetry_Int_Tables_number       1
_symmetry_cell_setting            triclinic
loop_
_symmetry_equiv_pos_as_xyz
  x,y,z
_cell_length_a                    22.1867
_cell_length_b                    26.2326
_cell_length_c                    26.6783
_cell_angle_alpha                 93.9056
_cell_angle_beta                  76.7076
_cell_angle_gamma                 102.6838
loop_
_atom_site_label
_atom_site_type_symbol
_atom_site_fract_x
_atom_site_fract_y
_atom_site_fract_z
_atom_site_U_iso_or_equiv
_atom_site_adp_type
_atom_site_occupancy
C1     C     0.18056   0.26640   0.25305   0.00000  Uiso   1.00
C2     C     0.10990   0.16295   0.40481   0.00000  Uiso   1.00
C3     C     0.18302   0.32111   0.26219   0.00000  Uiso   1.00
C4     C     0.13225   0.16473   0.34771   0.00000  Uiso   1.00
C5     C     0.15048   0.01224   0.23755   0.00000  Uiso   1.00
C6     C     0.15283   0.06694   0.24682   0.00000  Uiso   1.00
C7     C     0.20127   0.17065   0.15262   0.00000  Uiso   1.00
C8     C     0.28914   0.23545   0.02688   0.00000  Uiso   1.00
C9     C     0.22389   0.17990   0.09684   0.00000  Uiso   1.00
C10    C     0.04753   0.13650   0.42855   0.00000  Uiso   1.00
C11    C     0.03210   0.12863   0.48171   0.00000  Uiso   1.00
C12    C     0.14031   0.16730   0.48817   0.00000  Uiso   1.00
C13    C     0.07778   0.14264   0.01084   0.00000  Uiso   1.00
C14    C     0.32460   0.24452   0.10995   0.00000  Uiso   1.00
C15    C     0.11688   0.32010   0.19557   0.00000  Uiso   1.00
C16    C     0.16763   0.06307   0.04033   0.00000  Uiso   1.00
C17    C     0.32974   0.11614   0.39900   0.00000  Uiso   1.00
C18    C     0.21683   0.01330   0.30404   0.00000  Uiso   1.00
C19    C     0.15355   0.18355   0.43653   0.00000  Uiso   1.00
C20    C     0.18890   0.17974   0.01656   0.00000  Uiso   1.00
C21    C     0.24408   0.21773   0.49720   0.00000  Uiso   1.00
C22    C     0.25325   0.23861   0.44868   0.00000  Uiso   1.00
C23    C     0.20914   0.22144   0.41856   0.00000  Uiso   1.00
C24    C     0.18464   0.15541   0.06342   0.00000  Uiso   1.00
C25    C     0.27833   0.21893   0.07751   0.00000  Uiso   1.00
Cu26   Cu    0.10710   0.16105   0.24435   0.00000  Uiso   1.00
Cu27   Cu    0.22623   0.17228   0.25564   0.00000  Uiso   1.00
H28    H     0.00356   0.20569   0.28957   0.00000  Uiso   1.00
H29    H     0.03038   0.27439   0.08825   0.00000  Uiso   1.00
H30    H     0.10555   0.01627   0.17325   0.00000  Uiso   1.00
H31    H     0.14763   0.29819   0.16752   0.00000  Uiso   1.00
H32    H     0.07137   0.29371   0.21277   0.00000  Uiso   1.00
H33    H     0.13413   0.09289   0.11202   0.00000  Uiso   1.00
H34    H     0.13263   0.02568   0.04920   0.00000  Uiso   1.00
H35    H     0.21398   0.05808   0.04617   0.00000  Uiso   1.00
H36    H     0.17229   0.07196   0.49934   0.00000  Uiso   1.00
H37    H     0.28464   0.09665   0.42449   0.00000  Uiso   1.00
H38    H     0.31942   0.14899   0.38059   0.00000  Uiso   1.00
H39    H     0.32977   0.12764   0.21043   0.00000  Uiso   1.00
H40    H     0.01143   0.08683   0.36944   0.00000  Uiso   1.00
H41    H     0.22819   0.31716   0.32637   0.00000  Uiso   1.00
H42    H     0.26235   0.03960   0.28669   0.00000  Uiso   1.00
H43    H     0.18623   0.03530   0.33211   0.00000  Uiso   1.00
H44    H     0.29486   0.26833   0.43379   0.00000  Uiso   1.00
H45    H     0.33116   0.26461   0.01148   0.00000  Uiso   1.00
H46    H     0.06246   0.13613   0.05179   0.00000  Uiso   1.00
H47    H     0.31781   0.11025   0.00089   0.00000  Uiso   1.00
H48    H     0.21778   0.24036   0.38211   0.00000  Uiso   1.00
H49    H     0.30001   0.26447   0.14408   0.00000  Uiso   1.00
H50    H     0.01303   0.21468   0.12246   0.00000  Uiso   1.00
N51    N     0.31574   0.18074   0.26416   0.00000  Uiso   1.00
N52    N     0.01759   0.15259   0.23584   0.00000  Uiso   1.00
N53    N     0.14624   0.10413   0.07422   0.00000  Uiso   1.00
O54    O     0.12797   0.23807   0.24633   0.00000  Uiso   1.00
O55    O     0.22858   0.24755   0.25586   0.00000  Uiso   1.00
O56    O     0.09181   0.15960   0.31839   0.00000  Uiso   1.00
O57    O     0.19242   0.16908   0.32793   0.00000  Uiso   1.00
O58    O     0.10476   0.08578   0.24413   0.00000  Uiso   1.00
O59    O     0.20536   0.09526   0.25367   0.00000  Uiso   1.00
O60    O     0.14092   0.16425   0.17207   0.00000  Uiso   1.00
O61    O     0.24152   0.17373   0.18160   0.00000  Uiso   1.00
C62    C     0.51389   0.26640   0.25305   0.00000  Uiso   1.00
C63    C     0.44323   0.16295   0.40481   0.00000  Uiso   1.00
C64    C     0.51635   0.32111   0.26219   0.00000  Uiso   1.00
C65    C     0.46558   0.16473   0.34771   0.00000  Uiso   1.00
C66    C     0.48381   0.01224   0.23755   0.00000  Uiso   1.00
C67    C     0.48617   0.06694   0.24682   0.00000  Uiso   1.00
C68    C     0.53460   0.17065   0.15262   0.00000  Uiso   1.00
C69    C     0.62247   0.23545   0.02688   0.00000  Uiso   1.00
C70    C     0.55722   0.17990   0.09684   0.00000  Uiso   1.00
C71    C     0.38086   0.13650   0.42855   0.00000  Uiso   1.00
C72    C     0.36544   0.12863   0.48171   0.00000  Uiso   1.00
C73    C     0.47365   0.16730   0.48817   0.00000  Uiso   1.00
C74    C     0.41111   0.14264   0.01084   0.00000  Uiso   1.00
C75    C     0.65793   0.24452   0.10995   0.00000  Uiso   1.00
C76    C     0.45021   0.32010   0.19557   0.00000  Uiso   1.00
C77    C     0.50097   0.06307   0.04033   0.00000  Uiso   1.00
C78    C     0.66307   0.11614   0.39900   0.00000  Uiso   1.00
C79    C     0.55017   0.01330   0.30404   0.00000  Uiso   1.00
C80    C     0.48689   0.18355   0.43653   0.00000  Uiso   1.00
C81    C     0.52223   0.17974   0.01656   0.00000  Uiso   1.00
C82    C     0.57742   0.21773   0.49720   0.00000  Uiso   1.00
C83    C     0.58658   0.23861   0.44868   0.00000  Uiso   1.00
C84    C     0.54247   0.22144   0.41856   0.00000  Uiso   1.00
C85    C     0.51798   0.15541   0.06342   0.00000  Uiso   1.00
C86    C     0.61166   0.21893   0.07751   0.00000  Uiso   1.00
Cu87   Cu    0.44043   0.16105   0.24435   0.00000  Uiso   1.00
Cu88   Cu    0.55957   0.17228   0.25564   0.00000  Uiso   1.00
H89    H     0.33689   0.20569   0.28957   0.00000  Uiso   1.00
H90    H     0.36372   0.27439   0.08825   0.00000  Uiso   1.00
H91    H     0.43888   0.01627   0.17325   0.00000  Uiso   1.00
H92    H     0.48096   0.29819   0.16752   0.00000  Uiso   1.00
H93    H     0.40470   0.29371   0.21277   0.00000  Uiso   1.00
H94    H     0.46746   0.09289   0.11202   0.00000  Uiso   1.00
H95    H     0.46596   0.02568   0.04920   0.00000  Uiso   1.00
H96    H     0.54731   0.05808   0.04617   0.00000  Uiso   1.00
H97    H     0.50562   0.07196   0.49934   0.00000  Uiso   1.00
H98    H     0.61797   0.09665   0.42449   0.00000  Uiso   1.00
H99    H     0.65276   0.14899   0.38059   0.00000  Uiso   1.00
H100   H     0.66310   0.12764   0.21043   0.00000  Uiso   1.00
H101   H     0.34476   0.08683   0.36944   0.00000  Uiso   1.00
H102   H     0.56152   0.31716   0.32637   0.00000  Uiso   1.00
H103   H     0.59568   0.03960   0.28669   0.00000  Uiso   1.00
H104   H     0.51956   0.03530   0.33211   0.00000  Uiso   1.00
H105   H     0.62820   0.26833   0.43379   0.00000  Uiso   1.00
H106   H     0.66450   0.26461   0.01148   0.00000  Uiso   1.00
H107   H     0.39579   0.13613   0.05179   0.00000  Uiso   1.00
H108   H     0.65114   0.11025   0.00089   0.00000  Uiso   1.00
H109   H     0.55112   0.24036   0.38211   0.00000  Uiso   1.00
H110   H     0.63334   0.26447   0.14408   0.00000  Uiso   1.00
H111   H     0.34637   0.21468   0.12246   0.00000  Uiso   1.00
N112   N     0.64908   0.18074   0.26416   0.00000  Uiso   1.00
N113   N     0.35092   0.15259   0.23584   0.00000  Uiso   1.00
N114   N     0.47957   0.10413   0.07422   0.00000  Uiso   1.00
O115   O     0.46131   0.23807   0.24633   0.00000  Uiso   1.00
O116   O     0.56191   0.24755   0.25586   0.00000  Uiso   1.00
O117   O     0.42515   0.15960   0.31839   0.00000  Uiso   1.00
O118   O     0.52575   0.16908   0.32793   0.00000  Uiso   1.00
O119   O     0.43809   0.08578   0.24413   0.00000  Uiso   1.00
O120   O     0.53869   0.09526   0.25367   0.00000  Uiso   1.00
O121   O     0.47425   0.16425   0.17207   0.00000  Uiso   1.00
O122   O     0.57485   0.17373   0.18160   0.00000  Uiso   1.00
C123   C     0.84723   0.26640   0.25305   0.00000  Uiso   1.00
C124   C     0.77657   0.16295   0.40481   0.00000  Uiso   1.00
C125   C     0.84969   0.32111   0.26219   0.00000  Uiso   1.00
C126   C     0.79891   0.16473   0.34771   0.00000  Uiso   1.00
C127   C     0.81715   0.01224   0.23755   0.00000  Uiso   1.00
C128   C     0.81950   0.06694   0.24682   0.00000  Uiso   1.00
C129   C     0.86793   0.17065   0.15262   0.00000  Uiso   1.00
C130   C     0.95581   0.23545   0.02688   0.00000  Uiso   1.00
C131   C     0.89055   0.17990   0.09684   0.00000  Uiso   1.00
C132   C     0.71420   0.13650   0.42855   0.00000  Uiso   1.00
C133   C     0.69877   0.12863   0.48171   0.00000  Uiso   1.00
C134   C     0.80698   0.16730   0.48817   0.00000  Uiso   1.00
C135   C     0.74444   0.14264   0.01084   0.00000  Uiso   1.00
C136   C     0.99127   0.24452   0.10995   0.00000  Uiso   1.00
C137   C     0.78354   0.32010   0.19557   0.00000  Uiso   1.00
C138   C     0.83430   0.06307   0.04033   0.00000  Uiso   1.00
C139   C     0.99641   0.11614   0.39900   0.00000  Uiso   1.00
C140   C     0.88350   0.01330   0.30404   0.00000  Uiso   1.00
C141   C     0.82022   0.18355   0.43653   0.00000  Uiso   1.00
C142   C     0.85556   0.17974   0.01656   0.00000  Uiso   1.00
C143   C     0.91075   0.21773   0.49720   0.00000  Uiso   1.00
C144   C     0.91991   0.23861   0.44868   0.00000  Uiso   1.00
C145   C     0.87581   0.22144   0.41856   0.00000  Uiso   1.00
C146   C     0.85131   0.15541   0.06342   0.00000  Uiso   1.00
C147   C     0.94499   0.21893   0.07751   0.00000  Uiso   1.00
Cu148  Cu    0.77377   0.16105   0.24435   0.00000  Uiso   1.00
Cu149  Cu    0.89290   0.17228   0.25564   0.00000  Uiso   1.00
H150   H     0.67023   0.20569   0.28957   0.00000  Uiso   1.00
H151   H     0.69705   0.27439   0.08825   0.00000  Uiso   1.00
H152   H     0.77222   0.01627   0.17325   0.00000  Uiso   1.00
H153   H     0.81429   0.29819   0.16752   0.00000  Uiso   1.00
H154   H     0.73804   0.29371   0.21277   0.00000  Uiso   1.00
H155   H     0.80080   0.09289   0.11202   0.00000  Uiso   1.00
H156   H     0.79929   0.02568   0.04920   0.00000  Uiso   1.00
H157   H     0.88064   0.05808   0.04617   0.00000  Uiso   1.00
H158   H     0.83895   0.07196   0.49934   0.00000  Uiso   1.00
H159   H     0.95130   0.09665   0.42449   0.00000  Uiso   1.00
H160   H     0.98609   0.14899   0.38059   0.00000  Uiso   1.00
H161   H     0.99643   0.12764   0.21043   0.00000  Uiso   1.00
H162   H     0.67809   0.08683   0.36944   0.00000  Uiso   1.00
H163   H     0.89485   0.31716   0.32637   0.00000  Uiso   1.00
H164   H     0.92901   0.03960   0.28669   0.00000  Uiso   1.00
H165   H     0.85290   0.03530   0.33211   0.00000  Uiso   1.00
H166   H     0.96153   0.26833   0.43379   0.00000  Uiso   1.00
H167   H     0.99783   0.26461   0.01148   0.00000  Uiso   1.00
H168   H     0.72913   0.13613   0.05179   0.00000  Uiso   1.00
H169   H     0.98447   0.11025   0.00089   0.00000  Uiso   1.00
H170   H     0.88445   0.24036   0.38211   0.00000  Uiso   1.00
H171   H     0.96667   0.26447   0.14408   0.00000  Uiso   1.00
H172   H     0.67970   0.21468   0.12246   0.00000  Uiso   1.00
N173   N     0.98241   0.18074   0.26416   0.00000  Uiso   1.00
N174   N     0.68426   0.15259   0.23584   0.00000  Uiso   1.00
N175   N     0.81290   0.10413   0.07422   0.00000  Uiso   1.00
O176   O     0.79464   0.23807   0.24633   0.00000  Uiso   1.00
O177   O     0.89524   0.24755   0.25586   0.00000  Uiso   1.00
O178   O     0.75848   0.15960   0.31839   0.00000  Uiso   1.00
O179   O     0.85908   0.16908   0.32793   0.00000  Uiso   1.00
O180   O     0.77142   0.08578   0.24413   0.00000  Uiso   1.00
O181   O     0.87203   0.09526   0.25367   0.00000  Uiso   1.00
O182   O     0.80758   0.16425   0.17207   0.00000  Uiso   1.00
O183   O     0.90819   0.17373   0.18160   0.00000  Uiso   1.00
C184   C     0.18056   0.59973   0.25305   0.00000  Uiso   1.00
C185   C     0.10990   0.49628   0.40481   0.00000  Uiso   1.00
C186   C     0.18302   0.65445   0.26219   0.00000  Uiso   1.00
C187   C     0.13225   0.49806   0.34771   0.00000  Uiso   1.00
C188   C     0.15048   0.34558   0.23755   0.00000  Uiso   1.00
C189   C     0.15283   0.40028   0.24682   0.00000  Uiso   1.00
C190   C     0.20127   0.50399   0.15262   0.00000  Uiso   1.00
C191   C     0.28914   0.56878   0.02688   0.00000  Uiso   1.00
C192   C     0.22389   0.51323   0.09684   0.00000  Uiso   1.00
C193   C     0.04753   0.46983   0.42855   0.00000  Uiso   1.00
C194   C     0.03210   0.46196   0.48171   0.00000  Uiso   1.00
C195   C     0.14031   0.50063   0.48817   0.00000  Uiso   1.00
C196   C     0.07778   0.47597   0.01084   0.00000  Uiso   1.00
C197   C     0.32460   0.57785   0.10995   0.00000  Uiso   1.00
C198   C     0.11688   0.65343   0.19557   0.00000  Uiso   1.00
C199   C     0.16763   0.39640   0.04033   0.00000  Uiso   1.00
C200   C     0.32974   0.44947   0.39900   0.00000  Uiso   1.00
C201   C     0.21683   0.34663   0.30404   0.00000  Uiso   1.00
C202   C     0.15355   0.51688   0.43653   0.00000  Uiso   1.00
C203   C     0.18890   0.51308   0.01656   0.00000  Uiso   1.00
C204   C     0.24408   0.55107   0.49720   0.00000  Uiso   1.00
C205   C     0.25325   0.57194   0.44868   0.00000  Uiso   1.00
C206   C     0.20914   0.55477   0.41856   0.00000  Uiso   1.00
C207   C     0.18464   0.48874   0.06342   0.00000  Uiso   1.00
C208   C     0.27833   0.55227   0.07751   0.00000  Uiso   1.00
Cu209  Cu    0.10710   0.49439   0.24435   0.00000  Uiso   1.00
Cu210  Cu    0.22623   0.50561   0.25564   0.00000  Uiso   1.00
H211   H     0.00356   0.53903   0.28957   0.00000  Uiso   1.00
H212   H     0.03038   0.60772   0.08825   0.00000  Uiso   1.00
H213   H     0.10555   0.34960   0.17325   0.00000  Uiso   1.00
H214   H     0.14763   0.63152   0.16752   0.00000  Uiso   1.00
H215   H     0.07137   0.62704   0.21277   0.00000  Uiso   1.00
H216   H     0.13413   0.42622   0.11202   0.00000  Uiso   1.00
H217   H     0.13263   0.35902   0.04920   0.00000  Uiso   1.00
H218   H     0.21398   0.39141   0.04617   0.00000  Uiso   1.00
H219   H     0.17229   0.40530   0.49934   0.00000  Uiso   1.00
H220   H     0.28464   0.42998   0.42449   0.00000  Uiso   1.00
H221   H     0.31942   0.48233   0.38059   0.00000  Uiso   1.00
H222   H     0.32977   0.46098   0.21043   0.00000  Uiso   1.00
H223   H     0.01143   0.42017   0.36944   0.00000  Uiso   1.00
H224   H     0.22819   0.65050   0.32637   0.00000  Uiso   1.00
H225   H     0.26235   0.37293   0.28669   0.00000  Uiso   1.00
H226   H     0.18623   0.36864   0.33211   0.00000  Uiso   1.00
H227   H     0.29486   0.60166   0.43379   0.00000  Uiso   1.00
H228   H     0.33116   0.59795   0.01148   0.00000  Uiso   1.00
H229   H     0.06246   0.46946   0.05179   0.00000  Uiso   1.00
H230   H     0.31781   0.44358   0.00089   0.00000  Uiso   1.00
H231   H     0.21778   0.57369   0.38211   0.00000  Uiso   1.00
H232   H     0.30001   0.59781   0.14408   0.00000  Uiso   1.00
H233   H     0.01303   0.54802   0.12246   0.00000  Uiso   1.00
N234   N     0.31574   0.51407   0.26416   0.00000  Uiso   1.00
N235   N     0.01759   0.48593   0.23584   0.00000  Uiso   1.00
N236   N     0.14624   0.43746   0.07422   0.00000  Uiso   1.00
O237   O     0.12797   0.57141   0.24633   0.00000  Uiso   1.00
O238   O     0.22858   0.58089   0.25586   0.00000  Uiso   1.00
O239   O     0.09181   0.49293   0.31839   0.00000  Uiso   1.00
O240   O     0.19242   0.50241   0.32793   0.00000  Uiso   1.00
O241   O     0.10476   0.41911   0.24413   0.00000  Uiso   1.00
O242   O     0.20536   0.42859   0.25367   0.00000  Uiso   1.00
O243   O     0.14092   0.49759   0.17207   0.00000  Uiso   1.00
O244   O     0.24152   0.50707   0.18160   0.00000  Uiso   1.00
C245   C     0.51389   0.59973   0.25305   0.00000  Uiso   1.00
C246   C     0.44323   0.49628   0.40481   0.00000  Uiso   1.00
C247   C     0.51635   0.65445   0.26219   0.00000  Uiso   1.00
C248   C     0.46558   0.49806   0.34771   0.00000  Uiso   1.00
C249   C     0.48381   0.34558   0.23755   0.00000  Uiso   1.00
C250   C     0.48617   0.40028   0.24682   0.00000  Uiso   1.00
C251   C     0.53460   0.50399   0.15262   0.00000  Uiso   1.00
C252   C     0.62247   0.56878   0.02688   0.00000  Uiso   1.00
C253   C     0.55722   0.51323   0.09684   0.00000  Uiso   1.00
C254   C     0.38086   0.46983   0.42855   0.00000  Uiso   1.00
C255   C     0.36544   0.46196   0.48171   0.00000  Uiso   1.00
C256   C     0.47365   0.50063   0.48817   0.00000  Uiso   1.00
C257   C     0.41111   0.47597   0.01084   0.00000  Uiso   1.00
C258   C     0.65793   0.57785   0.10995   0.00000  Uiso   1.00
C259   C     0.45021   0.65343   0.19557   0.00000  Uiso   1.00
C260   C     0.50097   0.39640   0.04033   0.00000  Uiso   1.00
C261   C     0.66307   0.44947   0.39900   0.00000  Uiso   1.00
C262   C     0.55017   0.34663   0.30404   0.00000  Uiso   1.00
C263   C     0.48689   0.51688   0.43653   0.00000  Uiso   1.00
C264   C     0.52223   0.51308   0.01656   0.00000  Uiso   1.00
C265   C     0.57742   0.55107   0.49720   0.00000  Uiso   1.00
C266   C     0.58658   0.57194   0.44868   0.00000  Uiso   1.00
C267   C     0.54247   0.55477   0.41856   0.00000  Uiso   1.00
C268   C     0.51798   0.48874   0.06342   0.00000  Uiso   1.00
C269   C     0.61166   0.55227   0.07751   0.00000  Uiso   1.00
Cu270  Cu    0.44043   0.49439   0.24435   0.00000  Uiso   1.00
Cu271  Cu    0.55957   0.50561   0.25564   0.00000  Uiso   1.00
H272   H     0.33689   0.53903   0.28957   0.00000  Uiso   1.00
H273   H     0.36372   0.60772   0.08825   0.00000  Uiso   1.00
H274   H     0.43888   0.34960   0.17325   0.00000  Uiso   1.00
H275   H     0.48096   0.63152   0.16752   0.00000  Uiso   1.00
H276   H     0.40470   0.62704   0.21277   0.00000  Uiso   1.00
H277   H     0.46746   0.42622   0.11202   0.00000  Uiso   1.00
H278   H     0.46596   0.35902   0.04920   0.00000  Uiso   1.00
H279   H     0.54731   0.39141   0.04617   0.00000  Uiso   1.00
H280   H     0.50562   0.40530   0.49934   0.00000  Uiso   1.00
H281   H     0.61797   0.42998   0.42449   0.00000  Uiso   1.00
H282   H     0.65276   0.48233   0.38059   0.00000  Uiso   1.00
H283   H     0.66310   0.46098   0.21043   0.00000  Uiso   1.00
H284   H     0.34476   0.42017   0.36944   0.00000  Uiso   1.00
H285   H     0.56152   0.65050   0.32637   0.00000  Uiso   1.00
H286   H     0.59568   0.37293   0.28669   0.00000  Uiso   1.00
H287   H     0.51956   0.36864   0.33211   0.00000  Uiso   1.00
H288   H     0.62820   0.60166   0.43379   0.00000  Uiso   1.00
H289   H     0.66450   0.59795   0.01148   0.00000  Uiso   1.00
H290   H     0.39579   0.46946   0.05179   0.00000  Uiso   1.00
H291   H     0.65114   0.44358   0.00089   0.00000  Uiso   1.00
H292   H     0.55112   0.57369   0.38211   0.00000  Uiso   1.00
H293   H     0.63334   0.59781   0.14408   0.00000  Uiso   1.00
H294   H     0.34637   0.54802   0.12246   0.00000  Uiso   1.00
N295   N     0.64908   0.51407   0.26416   0.00000  Uiso   1.00
N296   N     0.35092   0.48593   0.23584   0.00000  Uiso   1.00
N297   N     0.47957   0.43746   0.07422   0.00000  Uiso   1.00
O298   O     0.46131   0.57141   0.24633   0.00000  Uiso   1.00
O299   O     0.56191   0.58089   0.25586   0.00000  Uiso   1.00
O300   O     0.42515   0.49293   0.31839   0.00000  Uiso   1.00
O301   O     0.52575   0.50241   0.32793   0.00000  Uiso   1.00
O302   O     0.43809   0.41911   0.24413   0.00000  Uiso   1.00
O303   O     0.53869   0.42859   0.25367   0.00000  Uiso   1.00
O304   O     0.47425   0.49759   0.17207   0.00000  Uiso   1.00
O305   O     0.57485   0.50707   0.18160   0.00000  Uiso   1.00
C306   C     0.84723   0.59973   0.25305   0.00000  Uiso   1.00
C307   C     0.77657   0.49628   0.40481   0.00000  Uiso   1.00
C308   C     0.84969   0.65445   0.26219   0.00000  Uiso   1.00
C309   C     0.79891   0.49806   0.34771   0.00000  Uiso   1.00
C310   C     0.81715   0.34558   0.23755   0.00000  Uiso   1.00
C311   C     0.81950   0.40028   0.24682   0.00000  Uiso   1.00
C312   C     0.86793   0.50399   0.15262   0.00000  Uiso   1.00
C313   C     0.95581   0.56878   0.02688   0.00000  Uiso   1.00
C314   C     0.89055   0.51323   0.09684   0.00000  Uiso   1.00
C315   C     0.71420   0.46983   0.42855   0.00000  Uiso   1.00
C316   C     0.69877   0.46196   0.48171   0.00000  Uiso   1.00
C317   C     0.80698   0.50063   0.48817   0.00000  Uiso   1.00
C318   C     0.74444   0.47597   0.01084   0.00000  Uiso   1.00
C319   C     0.99127   0.57785   0.10995   0.00000  Uiso   1.00
C320   C     0.78354   0.65343   0.19557   0.00000  Uiso   1.00
C321   C     0.83430   0.39640   0.04033   0.00000  Uiso   1.00
C322   C     0.99641   0.44947   0.39900   0.00000  Uiso   1.00
C323   C     0.88350   0.34663   0.30404   0.00000  Uiso   1.00
C324   C     0.82022   0.51688   0.43653   0.00000  Uiso   1.00
C325   C     0.85556   0.51308   0.01656   0.00000  Uiso   1.00
C326   C     0.91075   0.55107   0.49720   0.00000  Uiso   1.00
C327   C     0.91991   0.57194   0.44868   0.00000  Uiso   1.00
C328   C     0.87581   0.55477   0.41856   0.00000  Uiso   1.00
C329   C     0.85131   0.48874   0.06342   0.00000  Uiso   1.00
C330   C     0.94499   0.55227   0.07751   0.00000  Uiso   1.00
Cu331  Cu    0.77377   0.49439   0.24435   0.00000  Uiso   1.00
Cu332  Cu    0.89290   0.50561   0.25564   0.00000  Uiso   1.00
H333   H     0.67023   0.53903   0.28957   0.00000  Uiso   1.00
H334   H     0.69705   0.60772   0.08825   0.00000  Uiso   1.00
H335   H     0.77222   0.34960   0.17325   0.00000  Uiso   1.00
H336   H     0.81429   0.63152   0.16752   0.00000  Uiso   1.00
H337   H     0.73804   0.62704   0.21277   0.00000  Uiso   1.00
H338   H     0.80080   0.42622   0.11202   0.00000  Uiso   1.00
H339   H     0.79929   0.35902   0.04920   0.00000  Uiso   1.00
H340   H     0.88064   0.39141   0.04617   0.00000  Uiso   1.00
H341   H     0.83895   0.40530   0.49934   0.00000  Uiso   1.00
H342   H     0.95130   0.42998   0.42449   0.00000  Uiso   1.00
H343   H     0.98609   0.48233   0.38059   0.00000  Uiso   1.00
H344   H     0.99643   0.46098   0.21043   0.00000  Uiso   1.00
H345   H     0.67809   0.42017   0.36944   0.00000  Uiso   1.00
H346   H     0.89485   0.65050   0.32637   0.00000  Uiso   1.00
H347   H     0.92901   0.37293   0.28669   0.00000  Uiso   1.00
H348   H     0.85290   0.36864   0.33211   0.00000  Uiso   1.00
H349   H     0.96153   0.60166   0.43379   0.00000  Uiso   1.00
H350   H     0.99783   0.59795   0.01148   0.00000  Uiso   1.00
H351   H     0.72913   0.46946   0.05179   0.00000  Uiso   1.00
H352   H     0.98447   0.44358   0.00089   0.00000  Uiso   1.00
H353   H     0.88445   0.57369   0.38211   0.00000  Uiso   1.00
H354   H     0.96667   0.59781   0.14408   0.00000  Uiso   1.00
H355   H     0.67970   0.54802   0.12246   0.00000  Uiso   1.00
N356   N     0.98241   0.51407   0.26416   0.00000  Uiso   1.00
N357   N     0.68426   0.48593   0.23584   0.00000  Uiso   1.00
N358   N     0.81290   0.43746   0.07422   0.00000  Uiso   1.00
O359   O     0.79464   0.57141   0.24633   0.00000  Uiso   1.00
O360   O     0.89524   0.58089   0.25586   0.00000  Uiso   1.00
O361   O     0.75848   0.49293   0.31839   0.00000  Uiso   1.00
O362   O     0.85908   0.50241   0.32793   0.00000  Uiso   1.00
O363   O     0.77142   0.41911   0.24413   0.00000  Uiso   1.00
O364   O     0.87203   0.42859   0.25367   0.00000  Uiso   1.00
O365   O     0.80758   0.49759   0.17207   0.00000  Uiso   1.00
O366   O     0.90819   0.50707   0.18160   0.00000  Uiso   1.00
C367   C     0.18056   0.93307   0.25305   0.00000  Uiso   1.00
C368   C     0.10990   0.82961   0.40481   0.00000  Uiso   1.00
C369   C     0.18302   0.98778   0.26219   0.00000  Uiso   1.00
C370   C     0.13225   0.83139   0.34771   0.00000  Uiso   1.00
C371   C     0.15048   0.67891   0.23755   0.00000  Uiso   1.00
C372   C     0.15283   0.73361   0.24682   0.00000  Uiso   1.00
C373   C     0.20127   0.83732   0.15262   0.00000  Uiso   1.00
C374   C     0.28914   0.90212   0.02688   0.00000  Uiso   1.00
C375   C     0.22389   0.84656   0.09684   0.00000  Uiso   1.00
C376   C     0.04753   0.80316   0.42855   0.00000  Uiso   1.00
C377   C     0.03210   0.79529   0.48171   0.00000  Uiso   1.00
C378   C     0.14031   0.83396   0.48817   0.00000  Uiso   1.00
C379   C     0.07778   0.80930   0.01084   0.00000  Uiso   1.00
C380   C     0.32460   0.91119   0.10995   0.00000  Uiso   1.00
C381   C     0.11688   0.98677   0.19557   0.00000  Uiso   1.00
C382   C     0.16763   0.72974   0.04033   0.00000  Uiso   1.00
C383   C     0.32974   0.78280   0.39900   0.00000  Uiso   1.00
C384   C     0.21683   0.67996   0.30404   0.00000  Uiso   1.00
C385   C     0.15355   0.85021   0.43653   0.00000  Uiso   1.00
C386   C     0.18890   0.84641   0.01656   0.00000  Uiso   1.00
C387   C     0.24408   0.88440   0.49720   0.00000  Uiso   1.00
C388   C     0.25325   0.90528   0.44868   0.00000  Uiso   1.00
C389   C     0.20914   0.88811   0.41856   0.00000  Uiso   1.00
C390   C     0.18464   0.82207   0.06342   0.00000  Uiso   1.00
C391   C     0.27833   0.88560   0.07751   0.00000  Uiso   1.00
Cu392  Cu    0.10710   0.82772   0.24435   0.00000  Uiso   1.00
Cu393  Cu    0.22623   0.83895   0.25564   0.00000  Uiso   1.00
H394   H     0.00356   0.87236   0.28957   0.00000  Uiso   1.00
H395   H     0.03038   0.94106   0.08825   0.00000  Uiso   1.00
H396   H     0.10555   0.68293   0.17325   0.00000  Uiso   1.00
H397   H     0.14763   0.96485   0.16752   0.00000  Uiso   1.00
H398   H     0.07137   0.96038   0.21277   0.00000  Uiso   1.00
H399   H     0.13413   0.75955   0.11202   0.00000  Uiso   1.00
H400   H     0.13263   0.69235   0.04920   0.00000  Uiso   1.00
H401   H     0.21398   0.72475   0.04617   0.00000  Uiso   1.00
H402   H     0.17229   0.73863   0.49934   0.00000  Uiso   1.00
H403   H     0.28464   0.76331   0.42449   0.00000  Uiso   1.00
H404   H     0.31942   0.81566   0.38059   0.00000  Uiso   1.00
H405   H     0.32977   0.79431   0.21043   0.00000  Uiso   1.00
H406   H     0.01143   0.75350   0.36944   0.00000  Uiso   1.00
H407   H     0.22819   0.98383   0.32637   0.00000  Uiso   1.00
H408   H     0.26235   0.70627   0.28669   0.00000  Uiso   1.00
H409   H     0.18623   0.70197   0.33211   0.00000  Uiso   1.00
H410   H     0.29486   0.93499   0.43379   0.00000  Uiso   1.00
H411   H     0.33116   0.93128   0.01148   0.00000  Uiso   1.00
H412   H     0.06246   0.80280   0.05179   0.00000  Uiso   1.00
H413   H     0.31781   0.77691   0.00089   0.00000  Uiso   1.00
H414   H     0.21778   0.90702   0.38211   0.00000  Uiso   1.00
H415   H     0.30001   0.93114   0.14408   0.00000  Uiso   1.00
H416   H     0.01303   0.88135   0.12246   0.00000  Uiso   1.00
N417   N     0.31574   0.84741   0.26416   0.00000  Uiso   1.00
N418   N     0.01759   0.81926   0.23584   0.00000  Uiso   1.00
N419   N     0.14624   0.77080   0.07422   0.00000  Uiso   1.00
O420   O     0.12797   0.90474   0.24633   0.00000  Uiso   1.00
O421   O     0.22858   0.91422   0.25586   0.00000  Uiso   1.00
O422   O     0.09181   0.82627   0.31839   0.00000  Uiso   1.00
O423   O     0.19242   0.83575   0.32793   0.00000  Uiso   1.00
O424   O     0.10476   0.75245   0.24413   0.00000  Uiso   1.00
O425   O     0.20536   0.76193   0.25367   0.00000  Uiso   1.00
O426   O     0.14092   0.83092   0.17207   0.00000  Uiso   1.00
O427   O     0.24152   0.84040   0.18160   0.00000  Uiso   1.00
C428   C     0.51389   0.93307   0.25305   0.00000  Uiso   1.00
C429   C     0.44323   0.82961   0.40481   0.00000  Uiso   1.00
C430   C     0.51635   0.98778   0.26219   0.00000  Uiso   1.00
C431   C     0.46558   0.83139   0.34771   0.00000  Uiso   1.00
C432   C     0.48381   0.67891   0.23755   0.00000  Uiso   1.00
C433   C     0.48617   0.73361   0.24682   0.00000  Uiso   1.00
C434   C     0.53460   0.83732   0.15262   0.00000  Uiso   1.00
C435   C     0.62247   0.90212   0.02688   0.00000  Uiso   1.00
C436   C     0.55722   0.84656   0.09684   0.00000  Uiso   1.00
C437   C     0.38086   0.80316   0.42855   0.00000  Uiso   1.00
C438   C     0.36544   0.79529   0.48171   0.00000  Uiso   1.00
C439   C     0.47365   0.83396   0.48817   0.00000  Uiso   1.00
C440   C     0.41111   0.80930   0.01084   0.00000  Uiso   1.00
C441   C     0.65793   0.91119   0.10995   0.00000  Uiso   1.00
C442   C     0.45021   0.98677   0.19557   0.00000  Uiso   1.00
C443   C     0.50097   0.72974   0.04033   0.00000  Uiso   1.00
C444   C     0.66307   0.78280   0.39900   0.00000  Uiso   1.00
C445   C     0.55017   0.67996   0.30404   0.00000  Uiso   1.00
C446   C     0.48689   0.85021   0.43653   0.00000  Uiso   1.00
C447   C     0.52223   0.84641   0.01656   0.00000  Uiso   1.00
C448   C     0.57742   0.88440   0.49720   0.00000  Uiso   1.00
C449   C     0.58658   0.90528   0.44868   0.00000  Uiso   1.00
C450   C     0.54247   0.88811   0.41856   0.00000  Uiso   1.00
C451   C     0.51798   0.82207   0.06342   0.00000  Uiso   1.00
C452   C     0.61166   0.88560   0.07751   0.00000  Uiso   1.00
Cu453  Cu    0.44043   0.82772   0.24435   0.00000  Uiso   1.00
Cu454  Cu    0.55957   0.83895   0.25564   0.00000  Uiso   1.00
H455   H     0.33689   0.87236   0.28957   0.00000  Uiso   1.00
H456   H     0.36372   0.94106   0.08825   0.00000  Uiso   1.00
H457   H     0.43888   0.68293   0.17325   0.00000  Uiso   1.00
H458   H     0.48096   0.96485   0.16752   0.00000  Uiso   1.00
H459   H     0.40470   0.96038   0.21277   0.00000  Uiso   1.00
H460   H     0.46746   0.75955   0.11202   0.00000  Uiso   1.00
H461   H     0.46596   0.69235   0.04920   0.00000  Uiso   1.00
H462   H     0.54731   0.72475   0.04617   0.00000  Uiso   1.00
H463   H     0.50562   0.73863   0.49934   0.00000  Uiso   1.00
H464   H     0.61797   0.76331   0.42449   0.00000  Uiso   1.00
H465   H     0.65276   0.81566   0.38059   0.00000  Uiso   1.00
H466   H     0.66310   0.79431   0.21043   0.00000  Uiso   1.00
H467   H     0.34476   0.75350   0.36944   0.00000  Uiso   1.00
H468   H     0.56152   0.98383   0.32637   0.00000  Uiso   1.00
H469   H     0.59568   0.70627   0.28669   0.00000  Uiso   1.00
H470   H     0.51956   0.70197   0.33211   0.00000  Uiso   1.00
H471   H     0.62820   0.93499   0.43379   0.00000  Uiso   1.00
H472   H     0.66450   0.93128   0.01148   0.00000  Uiso   1.00
H473   H     0.39579   0.80280   0.05179   0.00000  Uiso   1.00
H474   H     0.65114   0.77691   0.00089   0.00000  Uiso   1.00
H475   H     0.55112   0.90702   0.38211   0.00000  Uiso   1.00
H476   H     0.63334   0.93114   0.14408   0.00000  Uiso   1.00
H477   H     0.34637   0.88135   0.12246   0.00000  Uiso   1.00
N478   N     0.64908   0.84741   0.26416   0.00000  Uiso   1.00
N479   N     0.35092   0.81926   0.23584   0.00000  Uiso   1.00
N480   N     0.47957   0.77080   0.07422   0.00000  Uiso   1.00
O481   O     0.46131   0.90474   0.24633   0.00000  Uiso   1.00
O482   O     0.56191   0.91422   0.25586   0.00000  Uiso   1.00
O483   O     0.42515   0.82627   0.31839   0.00000  Uiso   1.00
O484   O     0.52575   0.83575   0.32793   0.00000  Uiso   1.00
O485   O     0.43809   0.75245   0.24413   0.00000  Uiso   1.00
O486   O     0.53869   0.76193   0.25367   0.00000  Uiso   1.00
O487   O     0.47425   0.83092   0.17207   0.00000  Uiso   1.00
O488   O     0.57485   0.84040   0.18160   0.00000  Uiso   1.00
C489   C     0.84723   0.93307   0.25305   0.00000  Uiso   1.00
C490   C     0.77657   0.82961   0.40481   0.00000  Uiso   1.00
C491   C     0.84969   0.98778   0.26219   0.00000  Uiso   1.00
C492   C     0.79891   0.83139   0.34771   0.00000  Uiso   1.00
C493   C     0.81715   0.67891   0.23755   0.00000  Uiso   1.00
C494   C     0.81950   0.73361   0.24682   0.00000  Uiso   1.00
C495   C     0.86793   0.83732   0.15262   0.00000  Uiso   1.00
C496   C     0.95581   0.90212   0.02688   0.00000  Uiso   1.00
C497   C     0.89055   0.84656   0.09684   0.00000  Uiso   1.00
C498   C     0.71420   0.80316   0.42855   0.00000  Uiso   1.00
C499   C     0.69877   0.79529   0.48171   0.00000  Uiso   1.00
C500   C     0.80698   0.83396   0.48817   0.00000  Uiso   1.00
C501   C     0.74444   0.80930   0.01084   0.00000  Uiso   1.00
C502   C     0.99127   0.91119   0.10995   0.00000  Uiso   1.00
C503   C     0.78354   0.98677   0.19557   0.00000  Uiso   1.00
C504   C     0.83430   0.72974   0.04033   0.00000  Uiso   1.00
C505   C     0.99641   0.78280   0.39900   0.00000  Uiso   1.00
C506   C     0.88350   0.67996   0.30404   0.00000  Uiso   1.00
C507   C     0.82022   0.85021   0.43653   0.00000  Uiso   1.00
C508   C     0.85556   0.84641   0.01656   0.00000  Uiso   1.00
C509   C     0.91075   0.88440   0.49720   0.00000  Uiso   1.00
C510   C     0.91991   0.90528   0.44868   0.00000  Uiso   1.00
C511   C     0.87581   0.88811   0.41856   0.00000  Uiso   1.00
C512   C     0.85131   0.82207   0.06342   0.00000  Uiso   1.00
C513   C     0.94499   0.88560   0.07751   0.00000  Uiso   1.00
Cu514  Cu    0.77377   0.82772   0.24435   0.00000  Uiso   1.00
Cu515  Cu    0.89290   0.83895   0.25564   0.00000  Uiso   1.00
H516   H     0.67023   0.87236   0.28957   0.00000  Uiso   1.00
H517   H     0.69705   0.94106   0.08825   0.00000  Uiso   1.00
H518   H     0.77222   0.68293   0.17325   0.00000  Uiso   1.00
H519   H     0.81429   0.96485   0.16752   0.00000  Uiso   1.00
H520   H     0.73804   0.96038   0.21277   0.00000  Uiso   1.00
H521   H     0.80080   0.75955   0.11202   0.00000  Uiso   1.00
H522   H     0.79929   0.69235   0.04920   0.00000  Uiso   1.00
H523   H     0.88064   0.72475   0.04617   0.00000  Uiso   1.00
H524   H     0.83895   0.73863   0.49934   0.00000  Uiso   1.00
H525   H     0.95130   0.76331   0.42449   0.00000  Uiso   1.00
H526   H     0.98609   0.81566   0.38059   0.00000  Uiso   1.00
H527   H     0.99643   0.79431   0.21043   0.00000  Uiso   1.00
H528   H     0.67809   0.75350   0.36944   0.00000  Uiso   1.00
H529   H     0.89485   0.98383   0.32637   0.00000  Uiso   1.00
H530   H     0.92901   0.70627   0.28669   0.00000  Uiso   1.00
H531   H     0.85290   0.70197   0.33211   0.00000  Uiso   1.00
H532   H     0.96153   0.93499   0.43379   0.00000  Uiso   1.00
H533   H     0.99783   0.93128   0.01148   0.00000  Uiso   1.00
H534   H     0.72913   0.80280   0.05179   0.00000  Uiso   1.00
H535   H     0.98447   0.77691   0.00089   0.00000  Uiso   1.00
H536   H     0.88445   0.90702   0.38211   0.00000  Uiso   1.00
H537   H     0.96667   0.93114   0.14408   0.00000  Uiso   1.00
H538   H     0.67970   0.88135   0.12246   0.00000  Uiso   1.00
N539   N     0.98241   0.84741   0.26416   0.00000  Uiso   1.00
N540   N     0.68426   0.81926   0.23584   0.00000  Uiso   1.00
N541   N     0.81290   0.77080   0.07422   0.00000  Uiso   1.00
O542   O     0.79464   0.90474   0.24633   0.00000  Uiso   1.00
O543   O     0.89524   0.91422   0.25586   0.00000  Uiso   1.00
O544   O     0.75848   0.82627   0.31839   0.00000  Uiso   1.00
O545   O     0.85908   0.83575   0.32793   0.00000  Uiso   1.00
O546   O     0.77142   0.75245   0.24413   0.00000  Uiso   1.00
O547   O     0.87203   0.76193   0.25367   0.00000  Uiso   1.00
O548   O     0.80758   0.83092   0.17207   0.00000  Uiso   1.00
O549   O     0.90819   0.84040   0.18160   0.00000  Uiso   1.00
C550   C     0.18056   0.26640   0.75305   0.00000  Uiso   1.00
C551   C     0.10990   0.16295   0.90481   0.00000  Uiso   1.00
C552   C     0.18302   0.32111   0.76219   0.00000  Uiso   1.00
C553   C     0.13225   0.16473   0.84771   0.00000  Uiso   1.00
C554   C     0.15048   0.01224   0.73755   0.00000  Uiso   1.00
C555   C     0.15283   0.06694   0.74682   0.00000  Uiso   1.00
C556   C     0.20127   0.17065   0.65262   0.00000  Uiso   1.00
C557   C     0.28914   0.23545   0.52688   0.00000  Uiso   1.00
C558   C     0.22389   0.17990   0.59684   0.00000  Uiso   1.00
C559   C     0.04753   0.13650   0.92855   0.00000  Uiso   1.00
C560   C     0.03210   0.12863   0.98171   0.00000  Uiso   1.00
C561   C     0.14031   0.16730   0.98817   0.00000  Uiso   1.00
C562   C     0.07778   0.14264   0.51084   0.00000  Uiso   1.00
C563   C     0.32460   0.24452   0.60995   0.00000  Uiso   1.00
C564   C     0.11688   0.32010   0.69557   0.00000  Uiso   1.00
C565   C     0.16763   0.06307   0.54033   0.00000  Uiso   1.00
C566   C     0.32974   0.11614   0.89900   0.00000  Uiso   1.00
C567   C     0.21683   0.01330   0.80404   0.00000  Uiso   1.00
C568   C     0.15355   0.18355   0.93653   0.00000  Uiso   1.00
C569   C     0.18890   0.17974   0.51656   0.00000  Uiso   1.00
C570   C     0.24408   0.21773   0.99720   0.00000  Uiso   1.00
C571   C     0.25325   0.23861   0.94868   0.00000  Uiso   1.00
C572   C     0.20914   0.22144   0.91856   0.00000  Uiso   1.00
C573   C     0.18464   0.15541   0.56342   0.00000  Uiso   1.00
C574   C     0.27833   0.21893   0.57751   0.00000  Uiso   1.00
Cu575  Cu    0.10710   0.16105   0.74435   0.00000  Uiso   1.00
Cu576  Cu    0.22623   0.17228   0.75564   0.00000  Uiso   1.00
H577   H     0.00356   0.20569   0.78957   0.00000  Uiso   1.00
H578   H     0.03038   0.27439   0.58825   0.00000  Uiso   1.00
H579   H     0.10555   0.01627   0.67325   0.00000  Uiso   1.00
H580   H     0.14763   0.29819   0.66752   0.00000  Uiso   1.00
H581   H     0.07137   0.29371   0.71277   0.00000  Uiso   1.00
H582   H     0.13413   0.09289   0.61202   0.00000  Uiso   1.00
H583   H     0.13263   0.02568   0.54920   0.00000  Uiso   1.00
H584   H     0.21398   0.05808   0.54617   0.00000  Uiso   1.00
H585   H     0.17229   0.07196   0.99934   0.00000  Uiso   1.00
H586   H     0.28464   0.09665   0.92449   0.00000  Uiso   1.00
H587   H     0.31942   0.14899   0.88059   0.00000  Uiso   1.00
H588   H     0.32977   0.12764   0.71043   0.00000  Uiso   1.00
H589   H     0.01143   0.08683   0.86944   0.00000  Uiso   1.00
H590   H     0.22819   0.31716   0.82637   0.00000  Uiso   1.00
H591   H     0.26235   0.03960   0.78669   0.00000  Uiso   1.00
H592   H     0.18623   0.03530   0.83211   0.00000  Uiso   1.00
H593   H     0.29486   0.26833   0.93379   0.00000  Uiso   1.00
H594   H     0.33116   0.26461   0.51148   0.00000  Uiso   1.00
H595   H     0.06246   0.13613   0.55179   0.00000  Uiso   1.00
H596   H     0.31781   0.11025   0.50089   0.00000  Uiso   1.00
H597   H     0.21778   0.24036   0.88211   0.00000  Uiso   1.00
H598   H     0.30001   0.26447   0.64408   0.00000  Uiso   1.00
H599   H     0.01303   0.21468   0.62246   0.00000  Uiso   1.00
N600   N     0.31574   0.18074   0.76416   0.00000  Uiso   1.00
N601   N     0.01759   0.15259   0.73584   0.00000  Uiso   1.00
N602   N     0.14624   0.10413   0.57422   0.00000  Uiso   1.00
O603   O     0.12797   0.23807   0.74633   0.00000  Uiso   1.00
O604   O     0.22858   0.24755   0.75586   0.00000  Uiso   1.00
O605   O     0.09181   0.15960   0.81839   0.00000  Uiso   1.00
O606   O     0.19242   0.16908   0.82793   0.00000  Uiso   1.00
O607   O     0.10476   0.08578   0.74413   0.00000  Uiso   1.00
O608   O     0.20536   0.09526   0.75367   0.00000  Uiso   1.00
O609   O     0.14092   0.16425   0.67207   0.00000  Uiso   1.00
O610   O     0.24152   0.17373   0.68160   0.00000  Uiso   1.00
C611   C     0.51389   0.26640   0.75305   0.00000  Uiso   1.00
C612   C     0.44323   0.16295   0.90481   0.00000  Uiso   1.00
C613   C     0.51635   0.32111   0.76219   0.00000  Uiso   1.00
C614   C     0.46558   0.16473   0.84771   0.00000  Uiso   1.00
C615   C     0.48381   0.01224   0.73755   0.00000  Uiso   1.00
C616   C     0.48617   0.06694   0.74682   0.00000  Uiso   1.00
C617   C     0.53460   0.17065   0.65262   0.00000  Uiso   1.00
C618   C     0.62247   0.23545   0.52688   0.00000  Uiso   1.00
C619   C     0.55722   0.17990   0.59684   0.00000  Uiso   1.00
C620   C     0.38086   0.13650   0.92855   0.00000  Uiso   1.00
C621   C     0.36544   0.12863   0.98171   0.00000  Uiso   1.00
C622   C     0.47365   0.16730   0.98817   0.00000  Uiso   1.00
C623   C     0.41111   0.14264   0.51084   0.00000  Uiso   1.00
C624   C     0.65793   0.24452   0.60995   0.00000  Uiso   1.00
C625   C     0.45021   0.32010   0.69557   0.00000  Uiso   1.00
C626   C     0.50097   0.06307   0.54033   0.00000  Uiso   1.00
C627   C     0.66307   0.11614   0.89900   0.00000  Uiso   1.00
C628   C     0.55017   0.01330   0.80404   0.00000  Uiso   1.00
C629   C     0.48689   0.18355   0.93653   0.00000  Uiso   1.00
C630   C     0.52223   0.17974   0.51656   0.00000  Uiso   1.00
C631   C     0.57742   0.21773   0.99720   0.00000  Uiso   1.00
C632   C     0.58658   0.23861   0.94868   0.00000  Uiso   1.00
C633   C     0.54247   0.22144   0.91856   0.00000  Uiso   1.00
C634   C     0.51798   0.15541   0.56342   0.00000  Uiso   1.00
C635   C     0.61166   0.21893   0.57751   0.00000  Uiso   1.00
Cu636  Cu    0.44043   0.16105   0.74435   0.00000  Uiso   1.00
Cu637  Cu    0.55957   0.17228   0.75564   0.00000  Uiso   1.00
H638   H     0.33689   0.20569   0.78957   0.00000  Uiso   1.00
H639   H     0.36372   0.27439   0.58825   0.00000  Uiso   1.00
H640   H     0.43888   0.01627   0.67325   0.00000  Uiso   1.00
H641   H     0.48096   0.29819   0.66752   0.00000  Uiso   1.00
H642   H     0.40470   0.29371   0.71277   0.00000  Uiso   1.00
H643   H     0.46746   0.09289   0.61202   0.00000  Uiso   1.00
H644   H     0.46596   0.02568   0.54920   0.00000  Uiso   1.00
H645   H     0.54731   0.05808   0.54617   0.00000  Uiso   1.00
H646   H     0.50562   0.07196   0.99934   0.00000  Uiso   1.00
H647   H     0.61797   0.09665   0.92449   0.00000  Uiso   1.00
H648   H     0.65276   0.14899   0.88059   0.00000  Uiso   1.00
H649   H     0.66310   0.12764   0.71043   0.00000  Uiso   1.00
H650   H     0.34476   0.08683   0.86944   0.00000  Uiso   1.00
H651   H     0.56152   0.31716   0.82637   0.00000  Uiso   1.00
H652   H     0.59568   0.03960   0.78669   0.00000  Uiso   1.00
H653   H     0.51956   0.03530   0.83211   0.00000  Uiso   1.00
H654   H     0.62820   0.26833   0.93379   0.00000  Uiso   1.00
H655   H     0.66450   0.26461   0.51148   0.00000  Uiso   1.00
H656   H     0.39579   0.13613   0.55179   0.00000  Uiso   1.00
H657   H     0.65114   0.11025   0.50089   0.00000  Uiso   1.00
H658   H     0.55112   0.24036   0.88211   0.00000  Uiso   1.00
H659   H     0.63334   0.26447   0.64408   0.00000  Uiso   1.00
H660   H     0.34637   0.21468   0.62246   0.00000  Uiso   1.00
N661   N     0.64908   0.18074   0.76416   0.00000  Uiso   1.00
N662   N     0.35092   0.15259   0.73584   0.00000  Uiso   1.00
N663   N     0.47957   0.10413   0.57422   0.00000  Uiso   1.00
O664   O     0.46131   0.23807   0.74633   0.00000  Uiso   1.00
O665   O     0.56191   0.24755   0.75586   0.00000  Uiso   1.00
O666   O     0.42515   0.15960   0.81839   0.00000  Uiso   1.00
O667   O     0.52575   0.16908   0.82793   0.00000  Uiso   1.00
O668   O     0.43809   0.08578   0.74413   0.00000  Uiso   1.00
O669   O     0.53869   0.09526   0.75367   0.00000  Uiso   1.00
O670   O     0.47425   0.16425   0.67207   0.00000  Uiso   1.00
O671   O     0.57485   0.17373   0.68160   0.00000  Uiso   1.00
C672   C     0.84723   0.26640   0.75305   0.00000  Uiso   1.00
C673   C     0.77657   0.16295   0.90481   0.00000  Uiso   1.00
C674   C     0.84969   0.32111   0.76219   0.00000  Uiso   1.00
C675   C     0.79891   0.16473   0.84771   0.00000  Uiso   1.00
C676   C     0.81715   0.01224   0.73755   0.00000  Uiso   1.00
C677   C     0.81950   0.06694   0.74682   0.00000  Uiso   1.00
C678   C     0.86793   0.17065   0.65262   0.00000  Uiso   1.00
C679   C     0.95581   0.23545   0.52688   0.00000  Uiso   1.00
C680   C     0.89055   0.17990   0.59684   0.00000  Uiso   1.00
C681   C     0.71420   0.13650   0.92855   0.00000  Uiso   1.00
C682   C     0.69877   0.12863   0.98171   0.00000  Uiso   1.00
C683   C     0.80698   0.16730   0.98817   0.00000  Uiso   1.00
C684   C     0.74444   0.14264   0.51084   0.00000  Uiso   1.00
C685   C     0.99127   0.24452   0.60995   0.00000  Uiso   1.00
C686   C     0.78354   0.32010   0.69557   0.00000  Uiso   1.00
C687   C     0.83430   0.06307   0.54033   0.00000  Uiso   1.00
C688   C     0.99641   0.11614   0.89900   0.00000  Uiso   1.00
C689   C     0.88350   0.01330   0.80404   0.00000  Uiso   1.00
C690   C     0.82022   0.18355   0.93653   0.00000  Uiso   1.00
C691   C     0.85556   0.17974   0.51656   0.00000  Uiso   1.00
C692   C     0.91075   0.21773   0.99720   0.00000  Uiso   1.00
C693   C     0.91991   0.23861   0.94868   0.00000  Uiso   1.00
C694   C     0.87581   0.22144   0.91856   0.00000  Uiso   1.00
C695   C     0.85131   0.15541   0.56342   0.00000  Uiso   1.00
C696   C     0.94499   0.21893   0.57751   0.00000  Uiso   1.00
Cu697  Cu    0.77377   0.16105   0.74435   0.00000  Uiso   1.00
Cu698  Cu    0.89290   0.17228   0.75564   0.00000  Uiso   1.00
H699   H     0.67023   0.20569   0.78957   0.00000  Uiso   1.00
H700   H     0.69705   0.27439   0.58825   0.00000  Uiso   1.00
H701   H     0.77222   0.01627   0.67325   0.00000  Uiso   1.00
H702   H     0.81429   0.29819   0.66752   0.00000  Uiso   1.00
H703   H     0.73804   0.29371   0.71277   0.00000  Uiso   1.00
H704   H     0.80080   0.09289   0.61202   0.00000  Uiso   1.00
H705   H     0.79929   0.02568   0.54920   0.00000  Uiso   1.00
H706   H     0.88064   0.05808   0.54617   0.00000  Uiso   1.00
H707   H     0.83895   0.07196   0.99934   0.00000  Uiso   1.00
H708   H     0.95130   0.09665   0.92449   0.00000  Uiso   1.00
H709   H     0.98609   0.14899   0.88059   0.00000  Uiso   1.00
H710   H     0.99643   0.12764   0.71043   0.00000  Uiso   1.00
H711   H     0.67809   0.08683   0.86944   0.00000  Uiso   1.00
H712   H     0.89485   0.31716   0.82637   0.00000  Uiso   1.00
H713   H     0.92901   0.03960   0.78669   0.00000  Uiso   1.00
H714   H     0.85290   0.03530   0.83211   0.00000  Uiso   1.00
H715   H     0.96153   0.26833   0.93379   0.00000  Uiso   1.00
H716   H     0.99783   0.26461   0.51148   0.00000  Uiso   1.00
H717   H     0.72913   0.13613   0.55179   0.00000  Uiso   1.00
H718   H     0.98447   0.11025   0.50089   0.00000  Uiso   1.00
H719   H     0.88445   0.24036   0.88211   0.00000  Uiso   1.00
H720   H     0.96667   0.26447   0.64408   0.00000  Uiso   1.00
H721   H     0.67970   0.21468   0.62246   0.00000  Uiso   1.00
N722   N     0.98241   0.18074   0.76416   0.00000  Uiso   1.00
N723   N     0.68426   0.15259   0.73584   0.00000  Uiso   1.00
N724   N     0.81290   0.10413   0.57422   0.00000  Uiso   1.00
O725   O     0.79464   0.23807   0.74633   0.00000  Uiso   1.00
O726   O     0.89524   0.24755   0.75586   0.00000  Uiso   1.00
O727   O     0.75848   0.15960   0.81839   0.00000  Uiso   1.00
O728   O     0.85908   0.16908   0.82793   0.00000  Uiso   1.00
O729   O     0.77142   0.08578   0.74413   0.00000  Uiso   1.00
O730   O     0.87203   0.09526   0.75367   0.00000  Uiso   1.00
O731   O     0.80758   0.16425   0.67207   0.00000  Uiso   1.00
O732   O     0.90819   0.17373   0.68160   0.00000  Uiso   1.00
C733   C     0.18056   0.59973   0.75305   0.00000  Uiso   1.00
C734   C     0.10990   0.49628   0.90481   0.00000  Uiso   1.00
C735   C     0.18302   0.65445   0.76219   0.00000  Uiso   1.00
C736   C     0.13225   0.49806   0.84771   0.00000  Uiso   1.00
C737   C     0.15048   0.34558   0.73755   0.00000  Uiso   1.00
C738   C     0.15283   0.40028   0.74682   0.00000  Uiso   1.00
C739   C     0.20127   0.50399   0.65262   0.00000  Uiso   1.00
C740   C     0.28914   0.56878   0.52688   0.00000  Uiso   1.00
C741   C     0.22389   0.51323   0.59684   0.00000  Uiso   1.00
C742   C     0.04753   0.46983   0.92855   0.00000  Uiso   1.00
C743   C     0.03210   0.46196   0.98171   0.00000  Uiso   1.00
C744   C     0.14031   0.50063   0.98817   0.00000  Uiso   1.00
C745   C     0.07778   0.47597   0.51084   0.00000  Uiso   1.00
C746   C     0.32460   0.57785   0.60995   0.00000  Uiso   1.00
C747   C     0.11688   0.65343   0.69557   0.00000  Uiso   1.00
C748   C     0.16763   0.39640   0.54033   0.00000  Uiso   1.00
C749   C     0.32974   0.44947   0.89900   0.00000  Uiso   1.00
C750   C     0.21683   0.34663   0.80404   0.00000  Uiso   1.00
C751   C     0.15355   0.51688   0.93653   0.00000  Uiso   1.00
C752   C     0.18890   0.51308   0.51656   0.00000  Uiso   1.00
C753   C     0.24408   0.55107   0.99720   0.00000  Uiso   1.00
C754   C     0.25325   0.57194   0.94868   0.00000  Uiso   1.00
C755   C     0.20914   0.55477   0.91856   0.00000  Uiso   1.00
C756   C     0.18464   0.48874   0.56342   0.00000  Uiso   1.00
C757   C     0.27833   0.55227   0.57751   0.00000  Uiso   1.00
Cu758  Cu    0.10710   0.49439   0.74435   0.00000  Uiso   1.00
Cu759  Cu    0.22623   0.50561   0.75564   0.00000  Uiso   1.00
H760   H     0.00356   0.53903   0.78957   0.00000  Uiso   1.00
H761   H     0.03038   0.60772   0.58825   0.00000  Uiso   1.00
H762   H     0.10555   0.34960   0.67325   0.00000  Uiso   1.00
H763   H     0.14763   0.63152   0.66752   0.00000  Uiso   1.00
H764   H     0.07137   0.62704   0.71277   0.00000  Uiso   1.00
H765   H     0.13413   0.42622   0.61202   0.00000  Uiso   1.00
H766   H     0.13263   0.35902   0.54920   0.00000  Uiso   1.00
H767   H     0.21398   0.39141   0.54617   0.00000  Uiso   1.00
H768   H     0.17229   0.40530   0.99934   0.00000  Uiso   1.00
H769   H     0.28464   0.42998   0.92449   0.00000  Uiso   1.00
H770   H     0.31942   0.48233   0.88059   0.00000  Uiso   1.00
H771   H     0.32977   0.46098   0.71043   0.00000  Uiso   1.00
H772   H     0.01143   0.42017   0.86944   0.00000  Uiso   1.00
H773   H     0.22819   0.65050   0.82637   0.00000  Uiso   1.00
H774   H     0.26235   0.37293   0.78669   0.00000  Uiso   1.00
H775   H     0.18623   0.36864   0.83211   0.00000  Uiso   1.00
H776   H     0.29486   0.60166   0.93379   0.00000  Uiso   1.00
H777   H     0.33116   0.59795   0.51148   0.00000  Uiso   1.00
H778   H     0.06246   0.46946   0.55179   0.00000  Uiso   1.00
H779   H     0.31781   0.44358   0.50089   0.00000  Uiso   1.00
H780   H     0.21778   0.57369   0.88211   0.00000  Uiso   1.00
H781   H     0.30001   0.59781   0.64408   0.00000  Uiso   1.00
H782   H     0.01303   0.54802   0.62246   0.00000  Uiso   1.00
N783   N     0.31574   0.51407   0.76416   0.00000  Uiso   1.00
N784   N     0.01759   0.48593   0.73584   0.00000  Uiso   1.00
N785   N     0.14624   0.43746   0.57422   0.00000  Uiso   1.00
O786   O     0.12797   0.57141   0.74633   0.00000  Uiso   1.00
O787   O     0.22858   0.58089   0.75586   0.00000  Uiso   1.00
O788   O     0.09181   0.49293   0.81839   0.00000  Uiso   1.00
O789   O     0.19242   0.50241   0.82793   0.00000  Uiso   1.00
O790   O     0.10476   0.41911   0.74413   0.00000  Uiso   1.00
O791   O     0.20536   0.42859   0.75367   0.00000  Uiso   1.00
O792   O     0.14092   0.49759   0.67207   0.00000  Uiso   1.00
O793   O     0.24152   0.50707   0.68160   0.00000  Uiso   1.00
C794   C     0.51389   0.59973   0.75305   0.00000  Uiso   1.00
C795   C     0.44323   0.49628   0.90481   0.00000  Uiso   1.00
C796   C     0.51635   0.65445   0.76219   0.00000  Uiso   1.00
C797   C     0.46558   0.49806   0.84771   0.00000  Uiso   1.00
C798   C     0.48381   0.34558   0.73755   0.00000  Uiso   1.00
C799   C     0.48617   0.40028   0.74682   0.00000  Uiso   1.00
C800   C     0.53460   0.50399   0.65262   0.00000  Uiso   1.00
C801   C     0.62247   0.56878   0.52688   0.00000  Uiso   1.00
C802   C     0.55722   0.51323   0.59684   0.00000  Uiso   1.00
C803   C     0.38086   0.46983   0.92855   0.00000  Uiso   1.00
C804   C     0.36544   0.46196   0.98171   0.00000  Uiso   1.00
C805   C     0.47365   0.50063   0.98817   0.00000  Uiso   1.00
C806   C     0.41111   0.47597   0.51084   0.00000  Uiso   1.00
C807   C     0.65793   0.57785   0.60995   0.00000  Uiso   1.00
C808   C     0.45021   0.65343   0.69557   0.00000  Uiso   1.00
C809   C     0.50097   0.39640   0.54033   0.00000  Uiso   1.00
C810   C     0.66307   0.44947   0.89900   0.00000  Uiso   1.00
C811   C     0.55017   0.34663   0.80404   0.00000  Uiso   1.00
C812   C     0.48689   0.51688   0.93653   0.00000  Uiso   1.00
C813   C     0.52223   0.51308   0.51656   0.00000  Uiso   1.00
C814   C     0.57742   0.55107   0.99720   0.00000  Uiso   1.00
C815   C     0.58658   0.57194   0.94868   0.00000  Uiso   1.00
C816   C     0.54247   0.55477   0.91856   0.00000  Uiso   1.00
C817   C     0.51798   0.48874   0.56342   0.00000  Uiso   1.00
C818   C     0.61166   0.55227   0.57751   0.00000  Uiso   1.00
Cu819  Cu    0.44043   0.49439   0.74435   0.00000  Uiso   1.00
Cu820  Cu    0.55957   0.50561   0.75564   0.00000  Uiso   1.00
H821   H     0.33689   0.53903   0.78957   0.00000  Uiso   1.00
H822   H     0.36372   0.60772   0.58825   0.00000  Uiso   1.00
H823   H     0.43888   0.34960   0.67325   0.00000  Uiso   1.00
H824   H     0.48096   0.63152   0.66752   0.00000  Uiso   1.00
H825   H     0.40470   0.62704   0.71277   0.00000  Uiso   1.00
H826   H     0.46746   0.42622   0.61202   0.00000  Uiso   1.00
H827   H     0.46596   0.35902   0.54920   0.00000  Uiso   1.00
H828   H     0.54731   0.39141   0.54617   0.00000  Uiso   1.00
H829   H     0.50562   0.40530   0.99934   0.00000  Uiso   1.00
H830   H     0.61797   0.42998   0.92449   0.00000  Uiso   1.00
H831   H     0.65276   0.48233   0.88059   0.00000  Uiso   1.00
H832   H     0.66310   0.46098   0.71043   0.00000  Uiso   1.00
H833   H     0.34476   0.42017   0.86944   0.00000  Uiso   1.00
H834   H     0.56152   0.65050   0.82637   0.00000  Uiso   1.00
H835   H     0.59568   0.37293   0.78669   0.00000  Uiso   1.00
H836   H     0.51956   0.36864   0.83211   0.00000  Uiso   1.00
H837   H     0.62820   0.60166   0.93379   0.00000  Uiso   1.00
H838   H     0.66450   0.59795   0.51148   0.00000  Uiso   1.00
H839   H     0.39579   0.46946   0.55179   0.00000  Uiso   1.00
H840   H     0.65114   0.44358   0.50089   0.00000  Uiso   1.00
H841   H     0.55112   0.57369   0.88211   0.00000  Uiso   1.00
H842   H     0.63334   0.59781   0.64408   0.00000  Uiso   1.00
H843   H     0.34637   0.54802   0.62246   0.00000  Uiso   1.00
N844   N     0.64908   0.51407   0.76416   0.00000  Uiso   1.00
N845   N     0.35092   0.48593   0.73584   0.00000  Uiso   1.00
N846   N     0.47957   0.43746   0.57422   0.00000  Uiso   1.00
O847   O     0.46131   0.57141   0.74633   0.00000  Uiso   1.00
O848   O     0.56191   0.58089   0.75586   0.00000  Uiso   1.00
O849   O     0.42515   0.49293   0.81839   0.00000  Uiso   1.00
O850   O     0.52575   0.50241   0.82793   0.00000  Uiso   1.00
O851   O     0.43809   0.41911   0.74413   0.00000  Uiso   1.00
O852   O     0.53869   0.42859   0.75367   0.00000  Uiso   1.00
O853   O     0.47425   0.49759   0.67207   0.00000  Uiso   1.00
O854   O     0.57485   0.50707   0.68160   0.00000  Uiso   1.00
C855   C     0.84723   0.59973   0.75305   0.00000  Uiso   1.00
C856   C     0.77657   0.49628   0.90481   0.00000  Uiso   1.00
C857   C     0.84969   0.65445   0.76219   0.00000  Uiso   1.00
C858   C     0.79891   0.49806   0.84771   0.00000  Uiso   1.00
C859   C     0.81715   0.34558   0.73755   0.00000  Uiso   1.00
C860   C     0.81950   0.40028   0.74682   0.00000  Uiso   1.00
C861   C     0.86793   0.50399   0.65262   0.00000  Uiso   1.00
C862   C     0.95581   0.56878   0.52688   0.00000  Uiso   1.00
C863   C     0.89055   0.51323   0.59684   0.00000  Uiso   1.00
C864   C     0.71420   0.46983   0.92855   0.00000  Uiso   1.00
C865   C     0.69877   0.46196   0.98171   0.00000  Uiso   1.00
C866   C     0.80698   0.50063   0.98817   0.00000  Uiso   1.00
C867   C     0.74444   0.47597   0.51084   0.00000  Uiso   1.00
C868   C     0.99127   0.57785   0.60995   0.00000  Uiso   1.00
C869   C     0.78354   0.65343   0.69557   0.00000  Uiso   1.00
C870   C     0.83430   0.39640   0.54033   0.00000  Uiso   1.00
C871   C     0.99641   0.44947   0.89900   0.00000  Uiso   1.00
C872   C     0.88350   0.34663   0.80404   0.00000  Uiso   1.00
C873   C     0.82022   0.51688   0.93653   0.00000  Uiso   1.00
C874   C     0.85556   0.51308   0.51656   0.00000  Uiso   1.00
C875   C     0.91075   0.55107   0.99720   0.00000  Uiso   1.00
C876   C     0.91991   0.57194   0.94868   0.00000  Uiso   1.00
C877   C     0.87581   0.55477   0.91856   0.00000  Uiso   1.00
C878   C     0.85131   0.48874   0.56342   0.00000  Uiso   1.00
C879   C     0.94499   0.55227   0.57751   0.00000  Uiso   1.00
Cu880  Cu    0.77377   0.49439   0.74435   0.00000  Uiso   1.00
Cu881  Cu    0.89290   0.50561   0.75564   0.00000  Uiso   1.00
H882   H     0.67023   0.53903   0.78957   0.00000  Uiso   1.00
H883   H     0.69705   0.60772   0.58825   0.00000  Uiso   1.00
H884   H     0.77222   0.34960   0.67325   0.00000  Uiso   1.00
H885   H     0.81429   0.63152   0.66752   0.00000  Uiso   1.00
H886   H     0.73804   0.62704   0.71277   0.00000  Uiso   1.00
H887   H     0.80080   0.42622   0.61202   0.00000  Uiso   1.00
H888   H     0.79929   0.35902   0.54920   0.00000  Uiso   1.00
H889   H     0.88064   0.39141   0.54617   0.00000  Uiso   1.00
H890   H     0.83895   0.40530   0.99934   0.00000  Uiso   1.00
H891   H     0.95130   0.42998   0.92449   0.00000  Uiso   1.00
H892   H     0.98609   0.48233   0.88059   0.00000  Uiso   1.00
H893   H     0.99643   0.46098   0.71043   0.00000  Uiso   1.00
H894   H     0.67809   0.42017   0.86944   0.00000  Uiso   1.00
H895   H     0.89485   0.65050   0.82637   0.00000  Uiso   1.00
H896   H     0.92901   0.37293   0.78669   0.00000  Uiso   1.00
H897   H     0.85290   0.36864   0.83211   0.00000  Uiso   1.00
H898   H     0.96153   0.60166   0.93379   0.00000  Uiso   1.00
H899   H     0.99783   0.59795   0.51148   0.00000  Uiso   1.00
H900   H     0.72913   0.46946   0.55179   0.00000  Uiso   1.00
H901   H     0.98447   0.44358   0.50089   0.00000  Uiso   1.00
H902   H     0.88445   0.57369   0.88211   0.00000  Uiso   1.00
H903   H     0.96667   0.59781   0.64408   0.00000  Uiso   1.00
H904   H     0.67970   0.54802   0.62246   0.00000  Uiso   1.00
N905   N     0.98241   0.51407   0.76416   0.00000  Uiso   1.00
N906   N     0.68426   0.48593   0.73584   0.00000  Uiso   1.00
N907   N     0.81290   0.43746   0.57422   0.00000  Uiso   1.00
O908   O     0.79464   0.57141   0.74633   0.00000  Uiso   1.00
O909   O     0.89524   0.58089   0.75586   0.00000  Uiso   1.00
O910   O     0.75848   0.49293   0.81839   0.00000  Uiso   1.00
O911   O     0.85908   0.50241   0.82793   0.00000  Uiso   1.00
O912   O     0.77142   0.41911   0.74413   0.00000  Uiso   1.00
O913   O     0.87203   0.42859   0.75367   0.00000  Uiso   1.00
O914   O     0.80758   0.49759   0.67207   0.00000  Uiso   1.00
O915   O     0.90819   0.50707   0.68160   0.00000  Uiso   1.00
C916   C     0.18056   0.93307   0.75305   0.00000  Uiso   1.00
C917   C     0.10990   0.82961   0.90481   0.00000  Uiso   1.00
C918   C     0.18302   0.98778   0.76219   0.00000  Uiso   1.00
C919   C     0.13225   0.83139   0.84771   0.00000  Uiso   1.00
C920   C     0.15048   0.67891   0.73755   0.00000  Uiso   1.00
C921   C     0.15283   0.73361   0.74682   0.00000  Uiso   1.00
C922   C     0.20127   0.83732   0.65262   0.00000  Uiso   1.00
C923   C     0.28914   0.90212   0.52688   0.00000  Uiso   1.00
C924   C     0.22389   0.84656   0.59684   0.00000  Uiso   1.00
C925   C     0.04753   0.80316   0.92855   0.00000  Uiso   1.00
C926   C     0.03210   0.79529   0.98171   0.00000  Uiso   1.00
C927   C     0.14031   0.83396   0.98817   0.00000  Uiso   1.00
C928   C     0.07778   0.80930   0.51084   0.00000  Uiso   1.00
C929   C     0.32460   0.91119   0.60995   0.00000  Uiso   1.00
C930   C     0.11688   0.98677   0.69557   0.00000  Uiso   1.00
C931   C     0.16763   0.72974   0.54033   0.00000  Uiso   1.00
C932   C     0.32974   0.78280   0.89900   0.00000  Uiso   1.00
C933   C     0.21683   0.67996   0.80404   0.00000  Uiso   1.00
C934   C     0.15355   0.85021   0.93653   0.00000  Uiso   1.00
C935   C     0.18890   0.84641   0.51656   0.00000  Uiso   1.00
C936   C     0.24408   0.88440   0.99720   0.00000  Uiso   1.00
C937   C     0.25325   0.90528   0.94868   0.00000  Uiso   1.00
C938   C     0.20914   0.88811   0.91856   0.00000  Uiso   1.00
C939   C     0.18464   0.82207   0.56342   0.00000  Uiso   1.00
C940   C     0.27833   0.88560   0.57751   0.00000  Uiso   1.00
Cu941  Cu    0.10710   0.82772   0.74435   0.00000  Uiso   1.00
Cu942  Cu    0.22623   0.83895   0.75564   0.00000  Uiso   1.00
H943   H     0.00356   0.87236   0.78957   0.00000  Uiso   1.00
H944   H     0.03038   0.94106   0.58825   0.00000  Uiso   1.00
H945   H     0.10555   0.68293   0.67325   0.00000  Uiso   1.00
H946   H     0.14763   0.96485   0.66752   0.00000  Uiso   1.00
H947   H     0.07137   0.96038   0.71277   0.00000  Uiso   1.00
H948   H     0.13413   0.75955   0.61202   0.00000  Uiso   1.00
H949   H     0.13263   0.69235   0.54920   0.00000  Uiso   1.00
H950   H     0.21398   0.72475   0.54617   0.00000  Uiso   1.00
H951   H     0.17229   0.73863   0.99934   0.00000  Uiso   1.00
H952   H     0.28464   0.76331   0.92449   0.00000  Uiso   1.00
H953   H     0.31942   0.81566   0.88059   0.00000  Uiso   1.00
H954   H     0.32977   0.79431   0.71043   0.00000  Uiso   1.00
H955   H     0.01143   0.75350   0.86944   0.00000  Uiso   1.00
H956   H     0.22819   0.98383   0.82637   0.00000  Uiso   1.00
H957   H     0.26235   0.70627   0.78669   0.00000  Uiso   1.00
H958   H     0.18623   0.70197   0.83211   0.00000  Uiso   1.00
H959   H     0.29486   0.93499   0.93379   0.00000  Uiso   1.00
H960   H     0.33116   0.93128   0.51148   0.00000  Uiso   1.00
H961   H     0.06246   0.80280   0.55179   0.00000  Uiso   1.00
H962   H     0.31781   0.77691   0.50089   0.00000  Uiso   1.00
H963   H     0.21778   0.90702   0.88211   0.00000  Uiso   1.00
H964   H     0.30001   0.93114   0.64408   0.00000  Uiso   1.00
H965   H     0.01303   0.88135   0.62246   0.00000  Uiso   1.00
N966   N     0.31574   0.84741   0.76416   0.00000  Uiso   1.00
N967   N     0.01759   0.81926   0.73584   0.00000  Uiso   1.00
N968   N     0.14624   0.77080   0.57422   0.00000  Uiso   1.00
O969   O     0.12797   0.90474   0.74633   0.00000  Uiso   1.00
O970   O     0.22858   0.91422   0.75586   0.00000  Uiso   1.00
O971   O     0.09181   0.82627   0.81839   0.00000  Uiso   1.00
O972   O     0.19242   0.83575   0.82793   0.00000  Uiso   1.00
O973   O     0.10476   0.75245   0.74413   0.00000  Uiso   1.00
O974   O     0.20536   0.76193   0.75367   0.00000  Uiso   1.00
O975   O     0.14092   0.83092   0.67207   0.00000  Uiso   1.00
O976   O     0.24152   0.84040   0.68160   0.00000  Uiso   1.00
C977   C     0.51389   0.93307   0.75305   0.00000  Uiso   1.00
C978   C     0.44323   0.82961   0.90481   0.00000  Uiso   1.00
C979   C     0.51635   0.98778   0.76219   0.00000  Uiso   1.00
C980   C     0.46558   0.83139   0.84771   0.00000  Uiso   1.00
C981   C     0.48381   0.67891   0.73755   0.00000  Uiso   1.00
C982   C     0.48617   0.73361   0.74682   0.00000  Uiso   1.00
C983   C     0.53460   0.83732   0.65262   0.00000  Uiso   1.00
C984   C     0.62247   0.90212   0.52688   0.00000  Uiso   1.00
C985   C     0.55722   0.84656   0.59684   0.00000  Uiso   1.00
C986   C     0.38086   0.80316   0.92855   0.00000  Uiso   1.00
C987   C     0.36544   0.79529   0.98171   0.00000  Uiso   1.00
C988   C     0.47365   0.83396   0.98817   0.00000  Uiso   1.00
C989   C     0.41111   0.80930   0.51084   0.00000  Uiso   1.00
C990   C     0.65793   0.91119   0.60995   0.00000  Uiso   1.00
C991   C     0.45021   0.98677   0.69557   0.00000  Uiso   1.00
C992   C     0.50097   0.72974   0.54033   0.00000  Uiso   1.00
C993   C     0.66307   0.78280   0.89900   0.00000  Uiso   1.00
C994   C     0.55017   0.67996   0.80404   0.00000  Uiso   1.00
C995   C     0.48689   0.85021   0.93653   0.00000  Uiso   1.00
C996   C     0.52223   0.84641   0.51656   0.00000  Uiso   1.00
C997   C     0.57742   0.88440   0.99720   0.00000  Uiso   1.00
C998   C     0.58658   0.90528   0.94868   0.00000  Uiso   1.00
C999   C     0.54247   0.88811   0.91856   0.00000  Uiso   1.00
C1000  C     0.51798   0.82207   0.56342   0.00000  Uiso   1.00
C1001  C     0.61166   0.88560   0.57751   0.00000  Uiso   1.00
Cu1002 Cu    0.44043   0.82772   0.74435   0.00000  Uiso   1.00
Cu1003 Cu    0.55957   0.83895   0.75564   0.00000  Uiso   1.00
H1004  H     0.33689   0.87236   0.78957   0.00000  Uiso   1.00
H1005  H     0.36372   0.94106   0.58825   0.00000  Uiso   1.00
H1006  H     0.43888   0.68293   0.67325   0.00000  Uiso   1.00
H1007  H     0.48096   0.96485   0.66752   0.00000  Uiso   1.00
H1008  H     0.40470   0.96038   0.71277   0.00000  Uiso   1.00
H1009  H     0.46746   0.75955   0.61202   0.00000  Uiso   1.00
H1010  H     0.46596   0.69235   0.54920   0.00000  Uiso   1.00
H1011  H     0.54731   0.72475   0.54617   0.00000  Uiso   1.00
H1012  H     0.50562   0.73863   0.99934   0.00000  Uiso   1.00
H1013  H     0.61797   0.76331   0.92449   0.00000  Uiso   1.00
H1014  H     0.65276   0.81566   0.88059   0.00000  Uiso   1.00
H1015  H     0.66310   0.79431   0.71043   0.00000  Uiso   1.00
H1016  H     0.34476   0.75350   0.86944   0.00000  Uiso   1.00
H1017  H     0.56152   0.98383   0.82637   0.00000  Uiso   1.00
H1018  H     0.59568   0.70627   0.78669   0.00000  Uiso   1.00
H1019  H     0.51956   0.70197   0.83211   0.00000  Uiso   1.00
H1020  H     0.62820   0.93499   0.93379   0.00000  Uiso   1.00
H1021  H     0.66450   0.93128   0.51148   0.00000  Uiso   1.00
H1022  H     0.39579   0.80280   0.55179   0.00000  Uiso   1.00
H1023  H     0.65114   0.77691   0.50089   0.00000  Uiso   1.00
H1024  H     0.55112   0.90702   0.88211   0.00000  Uiso   1.00
H1025  H     0.63334   0.93114   0.64408   0.00000  Uiso   1.00
H1026  H     0.34637   0.88135   0.62246   0.00000  Uiso   1.00
N1027  N     0.64908   0.84741   0.76416   0.00000  Uiso   1.00
N1028  N     0.35092   0.81926   0.73584   0.00000  Uiso   1.00
N1029  N     0.47957   0.77080   0.57422   0.00000  Uiso   1.00
O1030  O     0.46131   0.90474   0.74633   0.00000  Uiso   1.00
O1031  O     0.56191   0.91422   0.75586   0.00000  Uiso   1.00
O1032  O     0.42515   0.82627   0.81839   0.00000  Uiso   1.00
O1033  O     0.52575   0.83575   0.82793   0.00000  Uiso   1.00
O1034  O     0.43809   0.75245   0.74413   0.00000  Uiso   1.00
O1035  O     0.53869   0.76193   0.75367   0.00000  Uiso   1.00
O1036  O     0.47425   0.83092   0.67207   0.00000  Uiso   1.00
O1037  O     0.57485   0.84040   0.68160   0.00000  Uiso   1.00
C1038  C     0.84723   0.93307   0.75305   0.00000  Uiso   1.00
C1039  C     0.77657   0.82961   0.90481   0.00000  Uiso   1.00
C1040  C     0.84969   0.98778   0.76219   0.00000  Uiso   1.00
C1041  C     0.79891   0.83139   0.84771   0.00000  Uiso   1.00
C1042  C     0.81715   0.67891   0.73755   0.00000  Uiso   1.00
C1043  C     0.81950   0.73361   0.74682   0.00000  Uiso   1.00
C1044  C     0.86793   0.83732   0.65262   0.00000  Uiso   1.00
C1045  C     0.95581   0.90212   0.52688   0.00000  Uiso   1.00
C1046  C     0.89055   0.84656   0.59684   0.00000  Uiso   1.00
C1047  C     0.71420   0.80316   0.92855   0.00000  Uiso   1.00
C1048  C     0.69877   0.79529   0.98171   0.00000  Uiso   1.00
C1049  C     0.80698   0.83396   0.98817   0.00000  Uiso   1.00
C1050  C     0.74444   0.80930   0.51084   0.00000  Uiso   1.00
C1051  C     0.99127   0.91119   0.60995   0.00000  Uiso   1.00
C1052  C     0.78354   0.98677   0.69557   0.00000  Uiso   1.00
C1053  C     0.83430   0.72974   0.54033   0.00000  Uiso   1.00
C1054  C     0.99641   0.78280   0.89900   0.00000  Uiso   1.00
C1055  C     0.88350   0.67996   0.80404   0.00000  Uiso   1.00
C1056  C     0.82022   0.85021   0.93653   0.00000  Uiso   1.00
C1057  C     0.85556   0.84641   0.51656   0.00000  Uiso   1.00
C1058  C     0.91075   0.88440   0.99720   0.00000  Uiso   1.00
C1059  C     0.91991   0.90528   0.94868   0.00000  Uiso   1.00
C1060  C     0.87581   0.88811   0.91856   0.00000  Uiso   1.00
C1061  C     0.85131   0.82207   0.56342   0.00000  Uiso   1.00
C1062  C     0.94499   0.88560   0.57751   0.00000  Uiso   1.00
Cu1063 Cu    0.77377   0.82772   0.74435   0.00000  Uiso   1.00
Cu1064 Cu    0.89290   0.83895   0.75564   0.00000  Uiso   1.00
H1065  H     0.67023   0.87236   0.78957   0.00000  Uiso   1.00
H1066  H     0.69705   0.94106   0.58825   0.00000  Uiso   1.00
H1067  H     0.77222   0.68293   0.67325   0.00000  Uiso   1.00
H1068  H     0.81429   0.96485   0.66752   0.00000  Uiso   1.00
H1069  H     0.73804   0.96038   0.71277   0.00000  Uiso   1.00
H1070  H     0.80080   0.75955   0.61202   0.00000  Uiso   1.00
H1071  H     0.79929   0.69235   0.54920   0.00000  Uiso   1.00
H1072  H     0.88064   0.72475   0.54617   0.00000  Uiso   1.00
H1073  H     0.83895   0.73863   0.99934   0.00000  Uiso   1.00
H1074  H     0.95130   0.76331   0.92449   0.00000  Uiso   1.00
H1075  H     0.98609   0.81566   0.88059   0.00000  Uiso   1.00
H1076  H     0.99643   0.79431   0.71043   0.00000  Uiso   1.00
H1077  H     0.67809   0.75350   0.86944   0.00000  Uiso   1.00
H1078  H     0.89485   0.98383   0.82637   0.00000  Uiso   1.00
H1079  H     0.92901   0.70627   0.78669   0.00000  Uiso   1.00
H1080  H     0.85290   0.70197   0.83211   0.00000  Uiso   1.00
H1081  H     0.96153   0.93499   0.93379   0.00000  Uiso   1.00
H1082  H     0.99783   0.93128   0.51148   0.00000  Uiso   1.00
H1083  H     0.72913   0.80280   0.55179   0.00000  Uiso   1.00
H1084  H     0.98447   0.77691   0.50089   0.00000  Uiso   1.00
H1085  H     0.88445   0.90702   0.88211   0.00000  Uiso   1.00
H1086  H     0.96667   0.93114   0.64408   0.00000  Uiso   1.00
H1087  H     0.67970   0.88135   0.62246   0.00000  Uiso   1.00
N1088  N     0.98241   0.84741   0.76416   0.00000  Uiso   1.00
N1089  N     0.68426   0.81926   0.73584   0.00000  Uiso   1.00
N1090  N     0.81290   0.77080   0.57422   0.00000  Uiso   1.00
O1091  O     0.79464   0.90474   0.74633   0.00000  Uiso   1.00
O1092  O     0.89524   0.91422   0.75586   0.00000  Uiso   1.00
O1093  O     0.75848   0.82627   0.81839   0.00000  Uiso   1.00
O1094  O     0.85908   0.83575   0.82793   0.00000  Uiso   1.00
O1095  O     0.77142   0.75245   0.74413   0.00000  Uiso   1.00
O1096  O     0.87203   0.76193   0.75367   0.00000  Uiso   1.00
O1097  O     0.80758   0.83092   0.67207   0.00000  Uiso   1.00
O1098  O     0.90819   0.84040   0.68160   0.00000  Uiso   1.00
loop_
_geom_bond_atom_site_label_1
_geom_bond_atom_site_label_2
_geom_bond_distance
_geom_bond_site_symmetry_2
_ccdc_geom_bond_type
C1     O54     1.282   .     A
C1     O55     1.288   .     A
C1     C3      1.431   .     S
C2     C4      1.490   .     S
C2     C10     1.426   .     A
C2     C19     1.425   .     A
C3     C188    1.358   .     S
C3     C201    1.523   .     S
C4     O57     1.300   .     A
C4     O56     1.300   .     A
C5     C6      1.431   .     S
C5     C369    1.358   1_545 S
C5     C381    1.523   1_545 S
C6     O58     1.288   .     A
C6     O59     1.282   .     A
C7     O60     1.298   .     A
C7     C9      1.475   .     S
C7     O61     1.296   .     A
C8     C25     1.398   .     A
C8     H45     1.085   .     S
C8     C570    1.397   1_554 S
C9     C24     1.414   .     A
C9     C25     1.420   .     A
C10    C11     1.399   .     A
C10    C139    1.510   1_455 S
C11    C562    1.388   .     S
C11    H718    1.083   1_455 S
C12    C19     1.416   .     A
C12    C562    1.408   .     S
C12    C569    1.425   .     S
C13    H46     1.080   .     S
C13    C561    1.408   1_554 S
C13    C560    1.388   1_554 S
C14    C25     1.510   .     S
C14    H49     1.110   .     S
C14    H90     1.111   .     S
C14    H111    1.110   .     S
C15    H31     1.111   .     S
C15    H32     1.110   .     S
C15    C188    1.523   .     S
C15    H213    1.111   .     S
C16    N53     1.448   .     S
C16    H35     1.111   .     S
C16    H34     1.111   .     S
C16    H585    1.110   1_554 S
C17    H37     1.111   .     S
C17    H38     1.110   .     S
C17    C71     1.510   .     S
C17    H101    1.110   .     S
C18    H43     1.111   .     S
C18    H42     1.110   .     S
C18    C369    1.523   1_545 S
C18    H407    1.110   1_545 S
C19    C23     1.412   .     A
C20    C24     1.417   .     A
C20    C561    1.425   1_554 S
C20    C570    1.415   1_554 S
C21    C22     1.394   .     A
C21    C569    1.415   .     S
C21    C557    1.397   .     S
C22    H44     1.084   .     S
C22    C23     1.387   .     A
C23    H48     1.080   .     S
C24    N53     1.434   .     S
Cu26   N52     2.013   .     S
Cu26   O58     1.963   .     S
Cu26   Cu27    2.679   .     S
Cu26   O54     1.971   .     S
Cu26   O60     1.902   .     S
Cu26   O56     1.927   .     S
Cu27   N51     2.013   .     S
Cu27   O55     1.963   .     S
Cu27   O57     1.902   .     S
Cu27   O59     1.971   .     S
Cu27   O61     1.927   .     S
H28    N173    1.029   1_455 S
H29    C136    1.111   1_455 S
H30    C381    1.111   1_545 S
H33    N53     1.028   .     S
H36    C565    1.110   .     S
H39    N113    1.029   .     S
H40    C139    1.110   1_455 S
H41    C201    1.110   .     S
H47    C621    1.083   1_554 S
H50    C136    1.110   1_455 S
N51    H89     1.029   .     S
N51    N113    1.277   .     S
N52    N173    1.277   1_455 S
N52    H161    1.029   1_455 S
C62    O115    1.282   .     A
C62    O116    1.288   .     A
C62    C64     1.431   .     S
C63    C65     1.490   .     S
C63    C71     1.426   .     A
C63    C80     1.425   .     A
C64    C249    1.358   .     S
C64    C262    1.523   .     S
C65    O118    1.300   .     A
C65    O117    1.300   .     A
C66    C67     1.431   .     S
C66    C430    1.358   1_545 S
C66    C442    1.523   1_545 S
C67    O119    1.288   .     A
C67    O120    1.282   .     A
C68    O121    1.298   .     A
C68    C70     1.475   .     S
C68    O122    1.296   .     A
C69    C86     1.398   .     A
C69    H106    1.085   .     S
C69    C631    1.397   1_554 S
C70    C85     1.414   .     A
C70    C86     1.420   .     A
C71    C72     1.399   .     A
C72    C623    1.388   .     S
C72    H596    1.083   .     S
C73    C80     1.416   .     A
C73    C623    1.408   .     S
C73    C630    1.425   .     S
C74    H107    1.080   .     S
C74    C622    1.408   1_554 S
C74    C621    1.388   1_554 S
C75    C86     1.510   .     S
C75    H110    1.110   .     S
C75    H151    1.111   .     S
C75    H172    1.110   .     S
C76    H92     1.111   .     S
C76    H93     1.110   .     S
C76    C249    1.523   .     S
C76    H274    1.111   .     S
C77    N114    1.448   .     S
C77    H96     1.111   .     S
C77    H95     1.111   .     S
C77    H646    1.110   1_554 S
C78    H98     1.111   .     S
C78    H99     1.110   .     S
C78    C132    1.510   .     S
C78    H162    1.110   .     S
C79    H104    1.111   .     S
C79    H103    1.110   .     S
C79    C430    1.523   1_545 S
C79    H468    1.110   1_545 S
C80    C84     1.412   .     A
C81    C85     1.417   .     A
C81    C622    1.425   1_554 S
C81    C631    1.415   1_554 S
C82    C83     1.394   .     A
C82    C630    1.415   .     S
C82    C618    1.397   .     S
C83    H105    1.084   .     S
C83    C84     1.387   .     A
C84    H109    1.080   .     S
C85    N114    1.434   .     S
Cu87   N113    2.013   .     S
Cu87   O119    1.963   .     S
Cu87   Cu88    2.679   .     S
Cu87   O115    1.971   .     S
Cu87   O121    1.902   .     S
Cu87   O117    1.927   .     S
Cu88   N112    2.013   .     S
Cu88   O116    1.963   .     S
Cu88   O118    1.902   .     S
Cu88   O120    1.971   .     S
Cu88   O122    1.927   .     S
H91    C442    1.111   1_545 S
H94    N114    1.028   .     S
H97    C626    1.110   .     S
H100   N174    1.029   .     S
H102   C262    1.110   .     S
H108   C682    1.083   1_554 S
N112   H150    1.029   .     S
N112   N174    1.277   .     S
C123   O176    1.282   .     A
C123   O177    1.288   .     A
C123   C125    1.431   .     S
C124   C126    1.490   .     S
C124   C132    1.426   .     A
C124   C141    1.425   .     A
C125   C310    1.358   .     S
C125   C323    1.523   .     S
C126   O179    1.300   .     A
C126   O178    1.300   .     A
C127   C128    1.431   .     S
C127   C491    1.358   1_545 S
C127   C503    1.523   1_545 S
C128   O180    1.288   .     A
C128   O181    1.282   .     A
C129   O182    1.298   .     A
C129   C131    1.475   .     S
C129   O183    1.296   .     A
C130   C147    1.398   .     A
C130   H167    1.085   .     S
C130   C692    1.397   1_554 S
C131   C146    1.414   .     A
C131   C147    1.420   .     A
C132   C133    1.399   .     A
C133   C684    1.388   .     S
C133   H657    1.083   .     S
C134   C141    1.416   .     A
C134   C684    1.408   .     S
C134   C691    1.425   .     S
C135   H168    1.080   .     S
C135   C683    1.408   1_554 S
C135   C682    1.388   1_554 S
C136   C147    1.510   .     S
C136   H171    1.110   .     S
C136   H29     1.111   1_655 S
C136   H50     1.110   1_655 S
C137   H153    1.111   .     S
C137   H154    1.110   .     S
C137   C310    1.523   .     S
C137   H335    1.111   .     S
C138   N175    1.448   .     S
C138   H157    1.111   .     S
C138   H156    1.111   .     S
C138   H707    1.110   1_554 S
C139   H159    1.111   .     S
C139   H160    1.110   .     S
C139   C10     1.510   1_655 S
C139   H40     1.110   1_655 S
C140   H165    1.111   .     S
C140   H164    1.110   .     S
C140   C491    1.523   1_545 S
C140   H529    1.110   1_545 S
C141   C145    1.412   .     A
C142   C146    1.417   .     A
C142   C683    1.425   1_554 S
C142   C692    1.415   1_554 S
C143   C144    1.394   .     A
C143   C691    1.415   .     S
C143   C679    1.397   .     S
C144   H166    1.084   .     S
C144   C145    1.387   .     A
C145   H170    1.080   .     S
C146   N175    1.434   .     S
Cu148  N174    2.013   .     S
Cu148  O180    1.963   .     S
Cu148  Cu149   2.679   .     S
Cu148  O176    1.971   .     S
Cu148  O182    1.902   .     S
Cu148  O178    1.927   .     S
Cu149  N173    2.013   .     S
Cu149  O177    1.963   .     S
Cu149  O179    1.902   .     S
Cu149  O181    1.971   .     S
Cu149  O183    1.927   .     S
H152   C503    1.111   1_545 S
H155   N175    1.028   .     S
H158   C687    1.110   .     S
H161   N52     1.029   1_655 S
H163   C323    1.110   .     S
H169   C560    1.083   1_654 S
N173   H28     1.029   1_655 S
N173   N52     1.277   1_655 S
C184   O237    1.282   .     A
C184   O238    1.288   .     A
C184   C186    1.431   .     S
C185   C187    1.490   .     S
C185   C193    1.426   .     A
C185   C202    1.425   .     A
C186   C371    1.358   .     S
C186   C384    1.523   .     S
C187   O240    1.300   .     A
C187   O239    1.300   .     A
C188   C189    1.431   .     S
C189   O241    1.288   .     A
C189   O242    1.282   .     A
C190   O243    1.298   .     A
C190   C192    1.475   .     S
C190   O244    1.296   .     A
C191   C208    1.398   .     A
C191   H228    1.085   .     S
C191   C753    1.397   1_554 S
C192   C207    1.414   .     A
C192   C208    1.420   .     A
C193   C194    1.399   .     A
C193   C322    1.510   1_455 S
C194   C745    1.388   .     S
C194   H901    1.083   1_455 S
C195   C202    1.416   .     A
C195   C745    1.408   .     S
C195   C752    1.425   .     S
C196   H229    1.080   .     S
C196   C744    1.408   1_554 S
C196   C743    1.388   1_554 S
C197   C208    1.510   .     S
C197   H232    1.110   .     S
C197   H273    1.111   .     S
C197   H294    1.110   .     S
C198   H214    1.111   .     S
C198   H215    1.110   .     S
C198   C371    1.523   .     S
C198   H396    1.111   .     S
C199   N236    1.448   .     S
C199   H218    1.111   .     S
C199   H217    1.111   .     S
C199   H768    1.110   1_554 S
C200   H220    1.111   .     S
C200   H221    1.110   .     S
C200   C254    1.510   .     S
C200   H284    1.110   .     S
C201   H226    1.111   .     S
C201   H225    1.110   .     S
C202   C206    1.412   .     A
C203   C207    1.417   .     A
C203   C744    1.425   1_554 S
C203   C753    1.415   1_554 S
C204   C205    1.394   .     A
C204   C752    1.415   .     S
C204   C740    1.397   .     S
C205   H227    1.084   .     S
C205   C206    1.387   .     A
C206   H231    1.080   .     S
C207   N236    1.434   .     S
Cu209  N235    2.013   .     S
Cu209  O241    1.963   .     S
Cu209  Cu210   2.679   .     S
Cu209  O237    1.971   .     S
Cu209  O243    1.902   .     S
Cu209  O239    1.927   .     S
Cu210  N234    2.013   .     S
Cu210  O238    1.963   .     S
Cu210  O240    1.902   .     S
Cu210  O242    1.971   .     S
Cu210  O244    1.927   .     S
H211   N356    1.029   1_455 S
H212   C319    1.111   1_455 S
H216   N236    1.028   .     S
H219   C748    1.110   .     S
H222   N296    1.029   .     S
H223   C322    1.110   1_455 S
H224   C384    1.110   .     S
H230   C804    1.083   1_554 S
H233   C319    1.110   1_455 S
N234   H272    1.029   .     S
N234   N296    1.277   .     S
N235   N356    1.277   1_455 S
N235   H344    1.029   1_455 S
C245   O298    1.282   .     A
C245   O299    1.288   .     A
C245   C247    1.431   .     S
C246   C248    1.490   .     S
C246   C254    1.426   .     A
C246   C263    1.425   .     A
C247   C432    1.358   .     S
C247   C445    1.523   .     S
C248   O301    1.300   .     A
C248   O300    1.300   .     A
C249   C250    1.431   .     S
C250   O302    1.288   .     A
C250   O303    1.282   .     A
C251   O304    1.298   .     A
C251   C253    1.475   .     S
C251   O305    1.296   .     A
C252   C269    1.398   .     A
C252   H289    1.085   .     S
C252   C814    1.397   1_554 S
C253   C268    1.414   .     A
C253   C269    1.420   .     A
C254   C255    1.399   .     A
C255   C806    1.388   .     S
C255   H779    1.083   .     S
C256   C263    1.416   .     A
C256   C806    1.408   .     S
C256   C813    1.425   .     S
C257   H290    1.080   .     S
C257   C805    1.408   1_554 S
C257   C804    1.388   1_554 S
C258   C269    1.510   .     S
C258   H293    1.110   .     S
C258   H334    1.111   .     S
C258   H355    1.110   .     S
C259   H275    1.111   .     S
C259   H276    1.110   .     S
C259   C432    1.523   .     S
C259   H457    1.111   .     S
C260   N297    1.448   .     S
C260   H279    1.111   .     S
C260   H278    1.111   .     S
C260   H829    1.110   1_554 S
C261   H281    1.111   .     S
C261   H282    1.110   .     S
C261   C315    1.510   .     S
C261   H345    1.110   .     S
C262   H287    1.111   .     S
C262   H286    1.110   .     S
C263   C267    1.412   .     A
C264   C268    1.417   .     A
C264   C805    1.425   1_554 S
C264   C814    1.415   1_554 S
C265   C266    1.394   .     A
C265   C813    1.415   .     S
C265   C801    1.397   .     S
C266   H288    1.084   .     S
C266   C267    1.387   .     A
C267   H292    1.080   .     S
C268   N297    1.434   .     S
Cu270  N296    2.013   .     S
Cu270  O302    1.963   .     S
Cu270  Cu271   2.679   .     S
Cu270  O298    1.971   .     S
Cu270  O304    1.902   .     S
Cu270  O300    1.927   .     S
Cu271  N295    2.013   .     S
Cu271  O299    1.963   .     S
Cu271  O301    1.902   .     S
Cu271  O303    1.971   .     S
Cu271  O305    1.927   .     S
H277   N297    1.028   .     S
H280   C809    1.110   .     S
H283   N357    1.029   .     S
H285   C445    1.110   .     S
H291   C865    1.083   1_554 S
N295   H333    1.029   .     S
N295   N357    1.277   .     S
C306   O359    1.282   .     A
C306   O360    1.288   .     A
C306   C308    1.431   .     S
C307   C309    1.490   .     S
C307   C315    1.426   .     A
C307   C324    1.425   .     A
C308   C493    1.358   .     S
C308   C506    1.523   .     S
C309   O362    1.300   .     A
C309   O361    1.300   .     A
C310   C311    1.431   .     S
C311   O363    1.288   .     A
C311   O364    1.282   .     A
C312   O365    1.298   .     A
C312   C314    1.475   .     S
C312   O366    1.296   .     A
C313   C330    1.398   .     A
C313   H350    1.085   .     S
C313   C875    1.397   1_554 S
C314   C329    1.414   .     A
C314   C330    1.420   .     A
C315   C316    1.399   .     A
C316   C867    1.388   .     S
C316   H840    1.083   .     S
C317   C324    1.416   .     A
C317   C867    1.408   .     S
C317   C874    1.425   .     S
C318   H351    1.080   .     S
C318   C866    1.408   1_554 S
C318   C865    1.388   1_554 S
C319   C330    1.510   .     S
C319   H354    1.110   .     S
C319   H212    1.111   1_655 S
C319   H233    1.110   1_655 S
C320   H336    1.111   .     S
C320   H337    1.110   .     S
C320   C493    1.523   .     S
C320   H518    1.111   .     S
C321   N358    1.448   .     S
C321   H340    1.111   .     S
C321   H339    1.111   .     S
C321   H890    1.110   1_554 S
C322   H342    1.111   .     S
C322   H343    1.110   .     S
C322   C193    1.510   1_655 S
C322   H223    1.110   1_655 S
C323   H348    1.111   .     S
C323   H347    1.110   .     S
C324   C328    1.412   .     A
C325   C329    1.417   .     A
C325   C866    1.425   1_554 S
C325   C875    1.415   1_554 S
C326   C327    1.394   .     A
C326   C874    1.415   .     S
C326   C862    1.397   .     S
C327   H349    1.084   .     S
C327   C328    1.387   .     A
C328   H353    1.080   .     S
C329   N358    1.434   .     S
Cu331  N357    2.013   .     S
Cu331  O363    1.963   .     S
Cu331  Cu332   2.679   .     S
Cu331  O359    1.971   .     S
Cu331  O365    1.902   .     S
Cu331  O361    1.927   .     S
Cu332  N356    2.013   .     S
Cu332  O360    1.963   .     S
Cu332  O362    1.902   .     S
Cu332  O364    1.971   .     S
Cu332  O366    1.927   .     S
H338   N358    1.028   .     S
H341   C870    1.110   .     S
H344   N235    1.029   1_655 S
H346   C506    1.110   .     S
H352   C743    1.083   1_654 S
N356   H211    1.029   1_655 S
N356   N235    1.277   1_655 S
C367   O420    1.282   .     A
C367   O421    1.288   .     A
C367   C369    1.431   .     S
C368   C370    1.490   .     S
C368   C376    1.426   .     A
C368   C385    1.425   .     A
C369   C5      1.358   1_565 S
C369   C18     1.523   1_565 S
C370   O423    1.300   .     A
C370   O422    1.300   .     A
C371   C372    1.431   .     S
C372   O424    1.288   .     A
C372   O425    1.282   .     A
C373   O426    1.298   .     A
C373   C375    1.475   .     S
C373   O427    1.296   .     A
C374   C391    1.398   .     A
C374   H411    1.085   .     S
C374   C936    1.397   1_554 S
C375   C390    1.414   .     A
C375   C391    1.420   .     A
C376   C377    1.399   .     A
C376   C505    1.510   1_455 S
C377   C928    1.388   .     S
C377   H1084   1.083   1_455 S
C378   C385    1.416   .     A
C378   C928    1.408   .     S
C378   C935    1.425   .     S
C379   H412    1.080   .     S
C379   C927    1.408   1_554 S
C379   C926    1.388   1_554 S
C380   C391    1.510   .     S
C380   H415    1.110   .     S
C380   H456    1.111   .     S
C380   H477    1.110   .     S
C381   H397    1.111   .     S
C381   H398    1.110   .     S
C381   C5      1.523   1_565 S
C381   H30     1.111   1_565 S
C382   N419    1.448   .     S
C382   H401    1.111   .     S
C382   H400    1.111   .     S
C382   H951    1.110   1_554 S
C383   H403    1.111   .     S
C383   H404    1.110   .     S
C383   C437    1.510   .     S
C383   H467    1.110   .     S
C384   H409    1.111   .     S
C384   H408    1.110   .     S
C385   C389    1.412   .     A
C386   C390    1.417   .     A
C386   C927    1.425   1_554 S
C386   C936    1.415   1_554 S
C387   C388    1.394   .     A
C387   C935    1.415   .     S
C387   C923    1.397   .     S
C388   H410    1.084   .     S
C388   C389    1.387   .     A
C389   H414    1.080   .     S
C390   N419    1.434   .     S
Cu392  N418    2.013   .     S
Cu392  O424    1.963   .     S
Cu392  Cu393   2.679   .     S
Cu392  O420    1.971   .     S
Cu392  O426    1.902   .     S
Cu392  O422    1.927   .     S
Cu393  N417    2.013   .     S
Cu393  O421    1.963   .     S
Cu393  O423    1.902   .     S
Cu393  O425    1.971   .     S
Cu393  O427    1.927   .     S
H394   N539    1.029   1_455 S
H395   C502    1.111   1_455 S
H399   N419    1.028   .     S
H402   C931    1.110   .     S
H405   N479    1.029   .     S
H406   C505    1.110   1_455 S
H407   C18     1.110   1_565 S
H413   C987    1.083   1_554 S
H416   C502    1.110   1_455 S
N417   H455    1.029   .     S
N417   N479    1.277   .     S
N418   N539    1.277   1_455 S
N418   H527    1.029   1_455 S
C428   O481    1.282   .     A
C428   O482    1.288   .     A
C428   C430    1.431   .     S
C429   C431    1.490   .     S
C429   C437    1.426   .     A
C429   C446    1.425   .     A
C430   C66     1.358   1_565 S
C430   C79     1.523   1_565 S
C431   O484    1.300   .     A
C431   O483    1.300   .     A
C432   C433    1.431   .     S
C433   O485    1.288   .     A
C433   O486    1.282   .     A
C434   O487    1.298   .     A
C434   C436    1.475   .     S
C434   O488    1.296   .     A
C435   C452    1.398   .     A
C435   H472    1.085   .     S
C435   C997    1.397   1_554 S
C436   C451    1.414   .     A
C436   C452    1.420   .     A
C437   C438    1.399   .     A
C438   C989    1.388   .     S
C438   H962    1.083   .     S
C439   C446    1.416   .     A
C439   C989    1.408   .     S
C439   C996    1.425   .     S
C440   H473    1.080   .     S
C440   C988    1.408   1_554 S
C440   C987    1.388   1_554 S
C441   C452    1.510   .     S
C441   H476    1.110   .     S
C441   H517    1.111   .     S
C441   H538    1.110   .     S
C442   H458    1.111   .     S
C442   H459    1.110   .     S
C442   C66     1.523   1_565 S
C442   H91     1.111   1_565 S
C443   N480    1.448   .     S
C443   H462    1.111   .     S
C443   H461    1.111   .     S
C443   H1012   1.110   1_554 S
C444   H464    1.111   .     S
C444   H465    1.110   .     S
C444   C498    1.510   .     S
C444   H528    1.110   .     S
C445   H470    1.111   .     S
C445   H469    1.110   .     S
C446   C450    1.412   .     A
C447   C451    1.417   .     A
C447   C988    1.425   1_554 S
C447   C997    1.415   1_554 S
C448   C449    1.394   .     A
C448   C996    1.415   .     S
C448   C984    1.397   .     S
C449   H471    1.084   .     S
C449   C450    1.387   .     A
C450   H475    1.080   .     S
C451   N480    1.434   .     S
Cu453  N479    2.013   .     S
Cu453  O485    1.963   .     S
Cu453  Cu454   2.679   .     S
Cu453  O481    1.971   .     S
Cu453  O487    1.902   .     S
Cu453  O483    1.927   .     S
Cu454  N478    2.013   .     S
Cu454  O482    1.963   .     S
Cu454  O484    1.902   .     S
Cu454  O486    1.971   .     S
Cu454  O488    1.927   .     S
H460   N480    1.028   .     S
H463   C992    1.110   .     S
H466   N540    1.029   .     S
H468   C79     1.110   1_565 S
H474   C1048   1.083   1_554 S
N478   H516    1.029   .     S
N478   N540    1.277   .     S
C489   O542    1.282   .     A
C489   O543    1.288   .     A
C489   C491    1.431   .     S
C490   C492    1.490   .     S
C490   C498    1.426   .     A
C490   C507    1.425   .     A
C491   C127    1.358   1_565 S
C491   C140    1.523   1_565 S
C492   O545    1.300   .     A
C492   O544    1.300   .     A
C493   C494    1.431   .     S
C494   O546    1.288   .     A
C494   O547    1.282   .     A
C495   O548    1.298   .     A
C495   C497    1.475   .     S
C495   O549    1.296   .     A
C496   C513    1.398   .     A
C496   H533    1.085   .     S
C496   C1058   1.397   1_554 S
C497   C512    1.414   .     A
C497   C513    1.420   .     A
C498   C499    1.399   .     A
C499   C1050   1.388   .     S
C499   H1023   1.083   .     S
C500   C507    1.416   .     A
C500   C1050   1.408   .     S
C500   C1057   1.425   .     S
C501   H534    1.080   .     S
C501   C1049   1.408   1_554 S
C501   C1048   1.388   1_554 S
C502   C513    1.510   .     S
C502   H537    1.110   .     S
C502   H395    1.111   1_655 S
C502   H416    1.110   1_655 S
C503   H519    1.111   .     S
C503   H520    1.110   .     S
C503   C127    1.523   1_565 S
C503   H152    1.111   1_565 S
C504   N541    1.448   .     S
C504   H523    1.111   .     S
C504   H522    1.111   .     S
C504   H1073   1.110   1_554 S
C505   H525    1.111   .     S
C505   H526    1.110   .     S
C505   C376    1.510   1_655 S
C505   H406    1.110   1_655 S
C506   H531    1.111   .     S
C506   H530    1.110   .     S
C507   C511    1.412   .     A
C508   C512    1.417   .     A
C508   C1049   1.425   1_554 S
C508   C1058   1.415   1_554 S
C509   C510    1.394   .     A
C509   C1057   1.415   .     S
C509   C1045   1.397   .     S
C510   H532    1.084   .     S
C510   C511    1.387   .     A
C511   H536    1.080   .     S
C512   N541    1.434   .     S
Cu514  N540    2.013   .     S
Cu514  O546    1.963   .     S
Cu514  Cu515   2.679   .     S
Cu514  O542    1.971   .     S
Cu514  O548    1.902   .     S
Cu514  O544    1.927   .     S
Cu515  N539    2.013   .     S
Cu515  O543    1.963   .     S
Cu515  O545    1.902   .     S
Cu515  O547    1.971   .     S
Cu515  O549    1.927   .     S
H521   N541    1.028   .     S
H524   C1053   1.110   .     S
H527   N418    1.029   1_655 S
H529   C140    1.110   1_565 S
H535   C926    1.083   1_654 S
N539   H394    1.029   1_655 S
N539   N418    1.277   1_655 S
C550   O603    1.282   .     A
C550   O604    1.288   .     A
C550   C552    1.431   .     S
C551   C553    1.490   .     S
C551   C559    1.426   .     A
C551   C568    1.425   .     A
C552   C737    1.358   .     S
C552   C750    1.523   .     S
C553   O606    1.300   .     A
C553   O605    1.300   .     A
C554   C555    1.431   .     S
C554   C918    1.358   1_545 S
C554   C930    1.523   1_545 S
C555   O607    1.288   .     A
C555   O608    1.282   .     A
C556   O609    1.298   .     A
C556   C558    1.475   .     S
C556   O610    1.296   .     A
C557   C574    1.398   .     A
C557   H594    1.085   .     S
C558   C573    1.414   .     A
C558   C574    1.420   .     A
C559   C560    1.399   .     A
C559   C688    1.510   1_455 S
C560   C13     1.388   1_556 S
C560   H169    1.083   1_456 S
C561   C568    1.416   .     A
C561   C13     1.408   1_556 S
C561   C20     1.425   1_556 S
C562   H595    1.080   .     S
C563   C574    1.510   .     S
C563   H598    1.110   .     S
C563   H639    1.111   .     S
C563   H660    1.110   .     S
C564   H580    1.111   .     S
C564   H581    1.110   .     S
C564   C737    1.523   .     S
C564   H762    1.111   .     S
C565   N602    1.448   .     S
C565   H584    1.111   .     S
C565   H583    1.111   .     S
C566   H586    1.111   .     S
C566   H587    1.110   .     S
C566   C620    1.510   .     S
C566   H650    1.110   .     S
C567   H592    1.111   .     S
C567   H591    1.110   .     S
C567   C918    1.523   1_545 S
C567   H956    1.110   1_545 S
C568   C572    1.412   .     A
C569   C573    1.417   .     A
C570   C571    1.394   .     A
C570   C20     1.415   1_556 S
C570   C8      1.397   1_556 S
C571   H593    1.084   .     S
C571   C572    1.387   .     A
C572   H597    1.080   .     S
C573   N602    1.434   .     S
Cu575  N601    2.013   .     S
Cu575  O607    1.963   .     S
Cu575  Cu576   2.679   .     S
Cu575  O603    1.971   .     S
Cu575  O609    1.902   .     S
Cu575  O605    1.927   .     S
Cu576  N600    2.013   .     S
Cu576  O604    1.963   .     S
Cu576  O606    1.902   .     S
Cu576  O608    1.971   .     S
Cu576  O610    1.927   .     S
H577   N722    1.029   1_455 S
H578   C685    1.111   1_455 S
H579   C930    1.111   1_545 S
H582   N602    1.028   .     S
H585   C16     1.110   1_556 S
H588   N662    1.029   .     S
H589   C688    1.110   1_455 S
H590   C750    1.110   .     S
H599   C685    1.110   1_455 S
N600   H638    1.029   .     S
N600   N662    1.277   .     S
N601   N722    1.277   1_455 S
N601   H710    1.029   1_455 S
C611   O664    1.282   .     A
C611   O665    1.288   .     A
C611   C613    1.431   .     S
C612   C614    1.490   .     S
C612   C620    1.426   .     A
C612   C629    1.425   .     A
C613   C798    1.358   .     S
C613   C811    1.523   .     S
C614   O667    1.300   .     A
C614   O666    1.300   .     A
C615   C616    1.431   .     S
C615   C979    1.358   1_545 S
C615   C991    1.523   1_545 S
C616   O668    1.288   .     A
C616   O669    1.282   .     A
C617   O670    1.298   .     A
C617   C619    1.475   .     S
C617   O671    1.296   .     A
C618   C635    1.398   .     A
C618   H655    1.085   .     S
C619   C634    1.414   .     A
C619   C635    1.420   .     A
C620   C621    1.399   .     A
C621   C74     1.388   1_556 S
C621   H47     1.083   1_556 S
C622   C629    1.416   .     A
C622   C74     1.408   1_556 S
C622   C81     1.425   1_556 S
C623   H656    1.080   .     S
C624   C635    1.510   .     S
C624   H659    1.110   .     S
C624   H700    1.111   .     S
C624   H721    1.110   .     S
C625   H641    1.111   .     S
C625   H642    1.110   .     S
C625   C798    1.523   .     S
C625   H823    1.111   .     S
C626   N663    1.448   .     S
C626   H645    1.111   .     S
C626   H644    1.111   .     S
C627   H647    1.111   .     S
C627   H648    1.110   .     S
C627   C681    1.510   .     S
C627   H711    1.110   .     S
C628   H653    1.111   .     S
C628   H652    1.110   .     S
C628   C979    1.523   1_545 S
C628   H1017   1.110   1_545 S
C629   C633    1.412   .     A
C630   C634    1.417   .     A
C631   C632    1.394   .     A
C631   C81     1.415   1_556 S
C631   C69     1.397   1_556 S
C632   H654    1.084   .     S
C632   C633    1.387   .     A
C633   H658    1.080   .     S
C634   N663    1.434   .     S
Cu636  N662    2.013   .     S
Cu636  O668    1.963   .     S
Cu636  Cu637   2.679   .     S
Cu636  O664    1.971   .     S
Cu636  O670    1.902   .     S
Cu636  O666    1.927   .     S
Cu637  N661    2.013   .     S
Cu637  O665    1.963   .     S
Cu637  O667    1.902   .     S
Cu637  O669    1.971   .     S
Cu637  O671    1.927   .     S
H640   C991    1.111   1_545 S
H643   N663    1.028   .     S
H646   C77     1.110   1_556 S
H649   N723    1.029   .     S
H651   C811    1.110   .     S
N661   H699    1.029   .     S
N661   N723    1.277   .     S
C672   O725    1.282   .     A
C672   O726    1.288   .     A
C672   C674    1.431   .     S
C673   C675    1.490   .     S
C673   C681    1.426   .     A
C673   C690    1.425   .     A
C674   C859    1.358   .     S
C674   C872    1.523   .     S
C675   O728    1.300   .     A
C675   O727    1.300   .     A
C676   C677    1.431   .     S
C676   C1040   1.358   1_545 S
C676   C1052   1.523   1_545 S
C677   O729    1.288   .     A
C677   O730    1.282   .     A
C678   O731    1.298   .     A
C678   C680    1.475   .     S
C678   O732    1.296   .     A
C679   C696    1.398   .     A
C679   H716    1.085   .     S
C680   C695    1.414   .     A
C680   C696    1.420   .     A
C681   C682    1.399   .     A
C682   C135    1.388   1_556 S
C682   H108    1.083   1_556 S
C683   C690    1.416   .     A
C683   C135    1.408   1_556 S
C683   C142    1.425   1_556 S
C684   H717    1.080   .     S
C685   C696    1.510   .     S
C685   H720    1.110   .     S
C685   H578    1.111   1_655 S
C685   H599    1.110   1_655 S
C686   H702    1.111   .     S
C686   H703    1.110   .     S
C686   C859    1.523   .     S
C686   H884    1.111   .     S
C687   N724    1.448   .     S
C687   H706    1.111   .     S
C687   H705    1.111   .     S
C688   H708    1.111   .     S
C688   H709    1.110   .     S
C688   C559    1.510   1_655 S
C688   H589    1.110   1_655 S
C689   H714    1.111   .     S
C689   H713    1.110   .     S
C689   C1040   1.523   1_545 S
C689   H1078   1.110   1_545 S
C690   C694    1.412   .     A
C691   C695    1.417   .     A
C692   C693    1.394   .     A
C692   C142    1.415   1_556 S
C692   C130    1.397   1_556 S
C693   H715    1.084   .     S
C693   C694    1.387   .     A
C694   H719    1.080   .     S
C695   N724    1.434   .     S
Cu697  N723    2.013   .     S
Cu697  O729    1.963   .     S
Cu697  Cu698   2.679   .     S
Cu697  O725    1.971   .     S
Cu697  O731    1.902   .     S
Cu697  O727    1.927   .     S
Cu698  N722    2.013   .     S
Cu698  O726    1.963   .     S
Cu698  O728    1.902   .     S
Cu698  O730    1.971   .     S
Cu698  O732    1.927   .     S
H701   C1052   1.111   1_545 S
H704   N724    1.028   .     S
H707   C138    1.110   1_556 S
H710   N601    1.029   1_655 S
H712   C872    1.110   .     S
H718   C11     1.083   1_655 S
N722   H577    1.029   1_655 S
N722   N601    1.277   1_655 S
C733   O786    1.282   .     A
C733   O787    1.288   .     A
C733   C735    1.431   .     S
C734   C736    1.490   .     S
C734   C742    1.426   .     A
C734   C751    1.425   .     A
C735   C920    1.358   .     S
C735   C933    1.523   .     S
C736   O789    1.300   .     A
C736   O788    1.300   .     A
C737   C738    1.431   .     S
C738   O790    1.288   .     A
C738   O791    1.282   .     A
C739   O792    1.298   .     A
C739   C741    1.475   .     S
C739   O793    1.296   .     A
C740   C757    1.398   .     A
C740   H777    1.085   .     S
C741   C756    1.414   .     A
C741   C757    1.420   .     A
C742   C743    1.399   .     A
C742   C871    1.510   1_455 S
C743   C196    1.388   1_556 S
C743   H352    1.083   1_456 S
C744   C751    1.416   .     A
C744   C196    1.408   1_556 S
C744   C203    1.425   1_556 S
C745   H778    1.080   .     S
C746   C757    1.510   .     S
C746   H781    1.110   .     S
C746   H822    1.111   .     S
C746   H843    1.110   .     S
C747   H763    1.111   .     S
C747   H764    1.110   .     S
C747   C920    1.523   .     S
C747   H945    1.111   .     S
C748   N785    1.448   .     S
C748   H767    1.111   .     S
C748   H766    1.111   .     S
C749   H769    1.111   .     S
C749   H770    1.110   .     S
C749   C803    1.510   .     S
C749   H833    1.110   .     S
C750   H775    1.111   .     S
C750   H774    1.110   .     S
C751   C755    1.412   .     A
C752   C756    1.417   .     A
C753   C754    1.394   .     A
C753   C203    1.415   1_556 S
C753   C191    1.397   1_556 S
C754   H776    1.084   .     S
C754   C755    1.387   .     A
C755   H780    1.080   .     S
C756   N785    1.434   .     S
Cu758  N784    2.013   .     S
Cu758  O790    1.963   .     S
Cu758  Cu759   2.679   .     S
Cu758  O786    1.971   .     S
Cu758  O792    1.902   .     S
Cu758  O788    1.927   .     S
Cu759  N783    2.013   .     S
Cu759  O787    1.963   .     S
Cu759  O789    1.902   .     S
Cu759  O791    1.971   .     S
Cu759  O793    1.927   .     S
H760   N905    1.029   1_455 S
H761   C868    1.111   1_455 S
H765   N785    1.028   .     S
H768   C199    1.110   1_556 S
H771   N845    1.029   .     S
H772   C871    1.110   1_455 S
H773   C933    1.110   .     S
H782   C868    1.110   1_455 S
N783   H821    1.029   .     S
N783   N845    1.277   .     S
N784   N905    1.277   1_455 S
N784   H893    1.029   1_455 S
C794   O847    1.282   .     A
C794   O848    1.288   .     A
C794   C796    1.431   .     S
C795   C797    1.490   .     S
C795   C803    1.426   .     A
C795   C812    1.425   .     A
C796   C981    1.358   .     S
C796   C994    1.523   .     S
C797   O850    1.300   .     A
C797   O849    1.300   .     A
C798   C799    1.431   .     S
C799   O851    1.288   .     A
C799   O852    1.282   .     A
C800   O853    1.298   .     A
C800   C802    1.475   .     S
C800   O854    1.296   .     A
C801   C818    1.398   .     A
C801   H838    1.085   .     S
C802   C817    1.414   .     A
C802   C818    1.420   .     A
C803   C804    1.399   .     A
C804   C257    1.388   1_556 S
C804   H230    1.083   1_556 S
C805   C812    1.416   .     A
C805   C257    1.408   1_556 S
C805   C264    1.425   1_556 S
C806   H839    1.080   .     S
C807   C818    1.510   .     S
C807   H842    1.110   .     S
C807   H883    1.111   .     S
C807   H904    1.110   .     S
C808   H824    1.111   .     S
C808   H825    1.110   .     S
C808   C981    1.523   .     S
C808   H1006   1.111   .     S
C809   N846    1.448   .     S
C809   H828    1.111   .     S
C809   H827    1.111   .     S
C810   H830    1.111   .     S
C810   H831    1.110   .     S
C810   C864    1.510   .     S
C810   H894    1.110   .     S
C811   H836    1.111   .     S
C811   H835    1.110   .     S
C812   C816    1.412   .     A
C813   C817    1.417   .     A
C814   C815    1.394   .     A
C814   C264    1.415   1_556 S
C814   C252    1.397   1_556 S
C815   H837    1.084   .     S
C815   C816    1.387   .     A
C816   H841    1.080   .     S
C817   N846    1.434   .     S
Cu819  N845    2.013   .     S
Cu819  O851    1.963   .     S
Cu819  Cu820   2.679   .     S
Cu819  O847    1.971   .     S
Cu819  O853    1.902   .     S
Cu819  O849    1.927   .     S
Cu820  N844    2.013   .     S
Cu820  O848    1.963   .     S
Cu820  O850    1.902   .     S
Cu820  O852    1.971   .     S
Cu820  O854    1.927   .     S
H826   N846    1.028   .     S
H829   C260    1.110   1_556 S
H832   N906    1.029   .     S
H834   C994    1.110   .     S
N844   H882    1.029   .     S
N844   N906    1.277   .     S
C855   O908    1.282   .     A
C855   O909    1.288   .     A
C855   C857    1.431   .     S
C856   C858    1.490   .     S
C856   C864    1.426   .     A
C856   C873    1.425   .     A
C857   C1042   1.358   .     S
C857   C1055   1.523   .     S
C858   O911    1.300   .     A
C858   O910    1.300   .     A
C859   C860    1.431   .     S
C860   O912    1.288   .     A
C860   O913    1.282   .     A
C861   O914    1.298   .     A
C861   C863    1.475   .     S
C861   O915    1.296   .     A
C862   C879    1.398   .     A
C862   H899    1.085   .     S
C863   C878    1.414   .     A
C863   C879    1.420   .     A
C864   C865    1.399   .     A
C865   C318    1.388   1_556 S
C865   H291    1.083   1_556 S
C866   C873    1.416   .     A
C866   C318    1.408   1_556 S
C866   C325    1.425   1_556 S
C867   H900    1.080   .     S
C868   C879    1.510   .     S
C868   H903    1.110   .     S
C868   H761    1.111   1_655 S
C868   H782    1.110   1_655 S
C869   H885    1.111   .     S
C869   H886    1.110   .     S
C869   C1042   1.523   .     S
C869   H1067   1.111   .     S
C870   N907    1.448   .     S
C870   H889    1.111   .     S
C870   H888    1.111   .     S
C871   H891    1.111   .     S
C871   H892    1.110   .     S
C871   C742    1.510   1_655 S
C871   H772    1.110   1_655 S
C872   H897    1.111   .     S
C872   H896    1.110   .     S
C873   C877    1.412   .     A
C874   C878    1.417   .     A
C875   C876    1.394   .     A
C875   C325    1.415   1_556 S
C875   C313    1.397   1_556 S
C876   H898    1.084   .     S
C876   C877    1.387   .     A
C877   H902    1.080   .     S
C878   N907    1.434   .     S
Cu880  N906    2.013   .     S
Cu880  O912    1.963   .     S
Cu880  Cu881   2.679   .     S
Cu880  O908    1.971   .     S
Cu880  O914    1.902   .     S
Cu880  O910    1.927   .     S
Cu881  N905    2.013   .     S
Cu881  O909    1.963   .     S
Cu881  O911    1.902   .     S
Cu881  O913    1.971   .     S
Cu881  O915    1.927   .     S
H887   N907    1.028   .     S
H890   C321    1.110   1_556 S
H893   N784    1.029   1_655 S
H895   C1055   1.110   .     S
H901   C194    1.083   1_655 S
N905   H760    1.029   1_655 S
N905   N784    1.277   1_655 S
C916   O969    1.282   .     A
C916   O970    1.288   .     A
C916   C918    1.431   .     S
C917   C919    1.490   .     S
C917   C925    1.426   .     A
C917   C934    1.425   .     A
C918   C554    1.358   1_565 S
C918   C567    1.523   1_565 S
C919   O972    1.300   .     A
C919   O971    1.300   .     A
C920   C921    1.431   .     S
C921   O973    1.288   .     A
C921   O974    1.282   .     A
C922   O975    1.298   .     A
C922   C924    1.475   .     S
C922   O976    1.296   .     A
C923   C940    1.398   .     A
C923   H960    1.085   .     S
C924   C939    1.414   .     A
C924   C940    1.420   .     A
C925   C926    1.399   .     A
C925   C1054   1.510   1_455 S
C926   C379    1.388   1_556 S
C926   H535    1.083   1_456 S
C927   C934    1.416   .     A
C927   C379    1.408   1_556 S
C927   C386    1.425   1_556 S
C928   H961    1.080   .     S
C929   C940    1.510   .     S
C929   H964    1.110   .     S
C929   H1005   1.111   .     S
C929   H1026   1.110   .     S
C930   H946    1.111   .     S
C930   H947    1.110   .     S
C930   C554    1.523   1_565 S
C930   H579    1.111   1_565 S
C931   N968    1.448   .     S
C931   H950    1.111   .     S
C931   H949    1.111   .     S
C932   H952    1.111   .     S
C932   H953    1.110   .     S
C932   C986    1.510   .     S
C932   H1016   1.110   .     S
C933   H958    1.111   .     S
C933   H957    1.110   .     S
C934   C938    1.412   .     A
C935   C939    1.417   .     A
C936   C937    1.394   .     A
C936   C386    1.415   1_556 S
C936   C374    1.397   1_556 S
C937   H959    1.084   .     S
C937   C938    1.387   .     A
C938   H963    1.080   .     S
C939   N968    1.434   .     S
Cu941  N967    2.013   .     S
Cu941  O973    1.963   .     S
Cu941  Cu942   2.679   .     S
Cu941  O969    1.971   .     S
Cu941  O975    1.902   .     S
Cu941  O971    1.927   .     S
Cu942  N966    2.013   .     S
Cu942  O970    1.963   .     S
Cu942  O972    1.902   .     S
Cu942  O974    1.971   .     S
Cu942  O976    1.927   .     S
H943   N1088   1.029   1_455 S
H944   C1051   1.111   1_455 S
H948   N968    1.028   .     S
H951   C382    1.110   1_556 S
H954   N1028   1.029   .     S
H955   C1054   1.110   1_455 S
H956   C567    1.110   1_565 S
H965   C1051   1.110   1_455 S
N966   H1004   1.029   .     S
N966   N1028   1.277   .     S
N967   N1088   1.277   1_455 S
N967   H1076   1.029   1_455 S
C977   O1030   1.282   .     A
C977   O1031   1.288   .     A
C977   C979    1.431   .     S
C978   C980    1.490   .     S
C978   C986    1.426   .     A
C978   C995    1.425   .     A
C979   C615    1.358   1_565 S
C979   C628    1.523   1_565 S
C980   O1033   1.300   .     A
C980   O1032   1.300   .     A
C981   C982    1.431   .     S
C982   O1034   1.288   .     A
C982   O1035   1.282   .     A
C983   O1036   1.298   .     A
C983   C985    1.475   .     S
C983   O1037   1.296   .     A
C984   C1001   1.398   .     A
C984   H1021   1.085   .     S
C985   C1000   1.414   .     A
C985   C1001   1.420   .     A
C986   C987    1.399   .     A
C987   C440    1.388   1_556 S
C987   H413    1.083   1_556 S
C988   C995    1.416   .     A
C988   C440    1.408   1_556 S
C988   C447    1.425   1_556 S
C989   H1022   1.080   .     S
C990   C1001   1.510   .     S
C990   H1025   1.110   .     S
C990   H1066   1.111   .     S
C990   H1087   1.110   .     S
C991   H1007   1.111   .     S
C991   H1008   1.110   .     S
C991   C615    1.523   1_565 S
C991   H640    1.111   1_565 S
C992   N1029   1.448   .     S
C992   H1011   1.111   .     S
C992   H1010   1.111   .     S
C993   H1013   1.111   .     S
C993   H1014   1.110   .     S
C993   C1047   1.510   .     S
C993   H1077   1.110   .     S
C994   H1019   1.111   .     S
C994   H1018   1.110   .     S
C995   C999    1.412   .     A
C996   C1000   1.417   .     A
C997   C998    1.394   .     A
C997   C447    1.415   1_556 S
C997   C435    1.397   1_556 S
C998   H1020   1.084   .     S
C998   C999    1.387   .     A
C999   H1024   1.080   .     S
C1000  N1029   1.434   .     S
Cu1002 N1028   2.013   .     S
Cu1002 O1034   1.963   .     S
Cu1002 Cu1003  2.679   .     S
Cu1002 O1030   1.971   .     S
Cu1002 O1036   1.902   .     S
Cu1002 O1032   1.927   .     S
Cu1003 N1027   2.013   .     S
Cu1003 O1031   1.963   .     S
Cu1003 O1033   1.902   .     S
Cu1003 O1035   1.971   .     S
Cu1003 O1037   1.927   .     S
H1009  N1029   1.028   .     S
H1012  C443    1.110   1_556 S
H1015  N1089   1.029   .     S
H1017  C628    1.110   1_565 S
N1027  H1065   1.029   .     S
N1027  N1089   1.277   .     S
C1038  O1091   1.282   .     A
C1038  O1092   1.288   .     A
C1038  C1040   1.431   .     S
C1039  C1041   1.490   .     S
C1039  C1047   1.426   .     A
C1039  C1056   1.425   .     A
C1040  C676    1.358   1_565 S
C1040  C689    1.523   1_565 S
C1041  O1094   1.300   .     A
C1041  O1093   1.300   .     A
C1042  C1043   1.431   .     S
C1043  O1095   1.288   .     A
C1043  O1096   1.282   .     A
C1044  O1097   1.298   .     A
C1044  C1046   1.475   .     S
C1044  O1098   1.296   .     A
C1045  C1062   1.398   .     A
C1045  H1082   1.085   .     S
C1046  C1061   1.414   .     A
C1046  C1062   1.420   .     A
C1047  C1048   1.399   .     A
C1048  C501    1.388   1_556 S
C1048  H474    1.083   1_556 S
C1049  C1056   1.416   .     A
C1049  C501    1.408   1_556 S
C1049  C508    1.425   1_556 S
C1050  H1083   1.080   .     S
C1051  C1062   1.510   .     S
C1051  H1086   1.110   .     S
C1051  H944    1.111   1_655 S
C1051  H965    1.110   1_655 S
C1052  H1068   1.111   .     S
C1052  H1069   1.110   .     S
C1052  C676    1.523   1_565 S
C1052  H701    1.111   1_565 S
C1053  N1090   1.448   .     S
C1053  H1072   1.111   .     S
C1053  H1071   1.111   .     S
C1054  H1074   1.111   .     S
C1054  H1075   1.110   .     S
C1054  C925    1.510   1_655 S
C1054  H955    1.110   1_655 S
C1055  H1080   1.111   .     S
C1055  H1079   1.110   .     S
C1056  C1060   1.412   .     A
C1057  C1061   1.417   .     A
C1058  C1059   1.394   .     A
C1058  C508    1.415   1_556 S
C1058  C496    1.397   1_556 S
C1059  H1081   1.084   .     S
C1059  C1060   1.387   .     A
C1060  H1085   1.080   .     S
C1061  N1090   1.434   .     S
Cu1063 N1089   2.013   .     S
Cu1063 O1095   1.963   .     S
Cu1063 Cu1064  2.679   .     S
Cu1063 O1091   1.971   .     S
Cu1063 O1097   1.902   .     S
Cu1063 O1093   1.927   .     S
Cu1064 N1088   2.013   .     S
Cu1064 O1092   1.963   .     S
Cu1064 O1094   1.902   .     S
Cu1064 O1096   1.971   .     S
Cu1064 O1098   1.927   .     S
H1070  N1090   1.028   .     S
H1073  C504    1.110   1_556 S
H1076  N967    1.029   1_655 S
H1078  C689    1.110   1_565 S
H1084  C377    1.083   1_655 S
N1088  H943    1.029   1_655 S
N1088  N967    1.277   1_655 S
