data_str_m3_o1_o17_pcu_sym.208
_audit_creation_date              2020-01-03
_audit_creation_method            'Materials Studio'
_symmetry_space_group_name_H-M    'P1'
_symmetry_Int_Tables_number       1
_symmetry_cell_setting            triclinic
loop_
_symmetry_equiv_pos_as_xyz
  x,y,z
_cell_length_a                    31.9266
_cell_length_b                    29.5035
_cell_length_c                    29.9544
_cell_angle_alpha                 90.0760
_cell_angle_beta                  89.8448
_cell_angle_gamma                 90.3962
loop_
_atom_site_label
_atom_site_type_symbol
_atom_site_fract_x
_atom_site_fract_y
_atom_site_fract_z
_atom_site_U_iso_or_equiv
_atom_site_adp_type
_atom_site_occupancy
C1     C     0.08675   0.16645   0.25027   0.00000  Uiso   1.00
C2     C     0.24659   0.16688   0.24970   0.00000  Uiso   1.00
C3     C     0.13395   0.09093   0.02297   0.00000  Uiso   1.00
C4     C     0.19439   0.24446   0.47703   0.00000  Uiso   1.00
C5     C     0.02118   0.13857   0.28057   0.00000  Uiso   1.00
C6     C     0.31216   0.19469   0.21935   0.00000  Uiso   1.00
C7     C     0.31126   0.14090   0.28205   0.00000  Uiso   1.00
C8     C     0.02208   0.19230   0.21783   0.00000  Uiso   1.00
C9     C     0.29070   0.16747   0.25028   0.00000  Uiso   1.00
C10    C     0.04263   0.16582   0.24966   0.00000  Uiso   1.00
C11    C     0.19325   0.02422   0.27707   0.00000  Uiso   1.00
C12    C     0.14007   0.30911   0.22295   0.00000  Uiso   1.00
C13    C     0.14007   0.02376   0.22295   0.00000  Uiso   1.00
C14    C     0.19326   0.30957   0.27706   0.00000  Uiso   1.00
C15    C     0.16657   0.16666   0.16333   0.00000  Uiso   1.00
C16    C     0.16667   0.16669   0.33667   0.00000  Uiso   1.00
C17    C     0.18059   0.20519   0.40730   0.00000  Uiso   1.00
C18    C     0.15070   0.12883   0.09275   0.00000  Uiso   1.00
C19    C     0.16631   0.16683   0.38453   0.00000  Uiso   1.00
C20    C     0.16595   0.16678   0.11549   0.00000  Uiso   1.00
C21    C     0.15125   0.12885   0.40730   0.00000  Uiso   1.00
C22    C     0.18023   0.20509   0.09269   0.00000  Uiso   1.00
C23    C     0.15016   0.12901   0.45345   0.00000  Uiso   1.00
C24    C     0.17977   0.20563   0.04656   0.00000  Uiso   1.00
C25    C     0.16476   0.16755   0.47678   0.00000  Uiso   1.00
C26    C     0.16453   0.16738   0.02324   0.00000  Uiso   1.00
C27    C     0.18007   0.20602   0.45359   0.00000  Uiso   1.00
C28    C     0.14964   0.12873   0.04645   0.00000  Uiso   1.00
C29    C     0.13481   0.09116   0.47643   0.00000  Uiso   1.00
C30    C     0.19473   0.24367   0.02359   0.00000  Uiso   1.00
H31    H     0.19237   0.23418   0.38880   0.00000  Uiso   1.00
H32    H     0.13927   0.09972   0.11129   0.00000  Uiso   1.00
H33    H     0.13990   0.09943   0.38909   0.00000  Uiso   1.00
H34    H     0.19221   0.23424   0.11086   0.00000  Uiso   1.00
H35    H     0.12363   0.06165   0.45835   0.00000  Uiso   1.00
H36    H     0.20700   0.27268   0.04171   0.00000  Uiso   1.00
H37    H     0.21449   0.04261   0.29870   0.00000  Uiso   1.00
H38    H     0.11882   0.29072   0.20132   0.00000  Uiso   1.00
H39    H     0.11881   0.04178   0.20134   0.00000  Uiso   1.00
H40    H     0.21450   0.29156   0.29868   0.00000  Uiso   1.00
N41    N     0.16667   0.28573   0.25000   0.00000  Uiso   1.00
N42    N     0.16667   0.04760   0.25000   0.00000  Uiso   1.00
O43    O     0.10559   0.20487   0.25000   0.00000  Uiso   1.00
O44    O     0.22774   0.12846   0.25001   0.00000  Uiso   1.00
O45    O     0.22774   0.20487   0.25001   0.00000  Uiso   1.00
O46    O     0.10559   0.12846   0.25000   0.00000  Uiso   1.00
O47    O     0.16666   0.20489   0.18393   0.00000  Uiso   1.00
O48    O     0.16667   0.12844   0.31608   0.00000  Uiso   1.00
O49    O     0.16667   0.20489   0.31608   0.00000  Uiso   1.00
O50    O     0.16666   0.12844   0.18393   0.00000  Uiso   1.00
Zn51   Zn    0.16667   0.21771   0.25000   0.00000  Uiso   1.00
Zn52   Zn    0.16667   0.11563   0.25000   0.00000  Uiso   1.00
O53    O     0.12057   0.05250   0.04538   0.00000  Uiso   1.00
C54    C     0.07644   0.05257   0.04693   0.00000  Uiso   1.00
H55    H     0.06573   0.02269   0.06640   0.00000  Uiso   1.00
H56    H     0.06275   0.04963   0.01290   0.00000  Uiso   1.00
H57    H     0.06446   0.08340   0.06412   0.00000  Uiso   1.00
O58    O     0.21109   0.28130   0.45444   0.00000  Uiso   1.00
C59    C     0.18193   0.31694   0.45577   0.00000  Uiso   1.00
H60    H     0.17758   0.32983   0.49037   0.00000  Uiso   1.00
H61    H     0.15126   0.30642   0.44128   0.00000  Uiso   1.00
H62    H     0.19423   0.01207   0.43529   0.00000  Uiso   1.00
O63    O     0.04284   0.11372   0.31211   0.00000  Uiso   1.00
C64    C     0.04102   0.06739   0.30037   0.00000  Uiso   1.00
H65    H     0.06318   0.04862   0.32187   0.00000  Uiso   1.00
H66    H     0.05062   0.06149   0.26506   0.00000  Uiso   1.00
H67    H     0.00924   0.05302   0.30632   0.00000  Uiso   1.00
O68    O     0.29050   0.21955   0.18782   0.00000  Uiso   1.00
C69    C     0.29242   0.26589   0.19951   0.00000  Uiso   1.00
H70    H     0.28279   0.27184   0.23480   0.00000  Uiso   1.00
H71    H     0.27033   0.28470   0.17797   0.00000  Uiso   1.00
H72    H     0.32424   0.28017   0.19358   0.00000  Uiso   1.00
O73    O     0.28899   0.11634   0.31366   0.00000  Uiso   1.00
C74    C     0.28328   0.14386   0.35169   0.00000  Uiso   1.00
H75    H     0.26462   0.12457   0.37663   0.00000  Uiso   1.00
H76    H     0.26554   0.17513   0.34360   0.00000  Uiso   1.00
H77    H     0.31382   0.15283   0.36733   0.00000  Uiso   1.00
O78    O     0.04435   0.21667   0.18607   0.00000  Uiso   1.00
C79    C     0.04995   0.18896   0.14815   0.00000  Uiso   1.00
H80    H     0.06766   0.15769   0.15634   0.00000  Uiso   1.00
H81    H     0.06858   0.20810   0.12308   0.00000  Uiso   1.00
H82    H     0.01937   0.17996   0.13262   0.00000  Uiso   1.00
C83    C     0.42008   0.16645   0.25027   0.00000  Uiso   1.00
C84    C     0.57992   0.16688   0.24970   0.00000  Uiso   1.00
C85    C     0.46729   0.09093   0.02297   0.00000  Uiso   1.00
C86    C     0.52772   0.24446   0.47703   0.00000  Uiso   1.00
C87    C     0.35451   0.13857   0.28057   0.00000  Uiso   1.00
C88    C     0.64550   0.19469   0.21935   0.00000  Uiso   1.00
C89    C     0.64459   0.14090   0.28205   0.00000  Uiso   1.00
C90    C     0.35542   0.19230   0.21783   0.00000  Uiso   1.00
C91    C     0.62404   0.16747   0.25028   0.00000  Uiso   1.00
C92    C     0.37597   0.16582   0.24966   0.00000  Uiso   1.00
C93    C     0.52658   0.02422   0.27707   0.00000  Uiso   1.00
C94    C     0.47340   0.30911   0.22295   0.00000  Uiso   1.00
C95    C     0.47340   0.02376   0.22295   0.00000  Uiso   1.00
C96    C     0.52659   0.30957   0.27706   0.00000  Uiso   1.00
C97    C     0.49990   0.16666   0.16333   0.00000  Uiso   1.00
C98    C     0.50000   0.16669   0.33667   0.00000  Uiso   1.00
C99    C     0.51392   0.20519   0.40730   0.00000  Uiso   1.00
C100   C     0.48404   0.12883   0.09275   0.00000  Uiso   1.00
C101   C     0.49964   0.16683   0.38453   0.00000  Uiso   1.00
C102   C     0.49929   0.16678   0.11549   0.00000  Uiso   1.00
C103   C     0.48458   0.12885   0.40730   0.00000  Uiso   1.00
C104   C     0.51357   0.20509   0.09269   0.00000  Uiso   1.00
C105   C     0.48350   0.12901   0.45345   0.00000  Uiso   1.00
C106   C     0.51310   0.20563   0.04656   0.00000  Uiso   1.00
C107   C     0.49810   0.16755   0.47678   0.00000  Uiso   1.00
C108   C     0.49786   0.16738   0.02324   0.00000  Uiso   1.00
C109   C     0.51340   0.20602   0.45359   0.00000  Uiso   1.00
C110   C     0.48297   0.12873   0.04645   0.00000  Uiso   1.00
C111   C     0.46815   0.09116   0.47643   0.00000  Uiso   1.00
C112   C     0.52806   0.24367   0.02359   0.00000  Uiso   1.00
H113   H     0.52571   0.23418   0.38880   0.00000  Uiso   1.00
H114   H     0.47260   0.09972   0.11129   0.00000  Uiso   1.00
H115   H     0.47324   0.09943   0.38909   0.00000  Uiso   1.00
H116   H     0.52554   0.23424   0.11086   0.00000  Uiso   1.00
H117   H     0.45696   0.06165   0.45835   0.00000  Uiso   1.00
H118   H     0.54034   0.27268   0.04171   0.00000  Uiso   1.00
H119   H     0.54783   0.04261   0.29870   0.00000  Uiso   1.00
H120   H     0.45215   0.29072   0.20132   0.00000  Uiso   1.00
H121   H     0.45214   0.04178   0.20134   0.00000  Uiso   1.00
H122   H     0.54784   0.29156   0.29868   0.00000  Uiso   1.00
N123   N     0.50000   0.28573   0.25000   0.00000  Uiso   1.00
N124   N     0.50000   0.04760   0.25000   0.00000  Uiso   1.00
O125   O     0.43892   0.20487   0.25000   0.00000  Uiso   1.00
O126   O     0.56108   0.12846   0.25001   0.00000  Uiso   1.00
O127   O     0.56108   0.20487   0.25001   0.00000  Uiso   1.00
O128   O     0.43892   0.12846   0.25000   0.00000  Uiso   1.00
O129   O     0.49999   0.20489   0.18393   0.00000  Uiso   1.00
O130   O     0.50001   0.12844   0.31608   0.00000  Uiso   1.00
O131   O     0.50001   0.20489   0.31608   0.00000  Uiso   1.00
O132   O     0.49999   0.12844   0.18393   0.00000  Uiso   1.00
Zn133  Zn    0.50000   0.21771   0.25000   0.00000  Uiso   1.00
Zn134  Zn    0.50000   0.11563   0.25000   0.00000  Uiso   1.00
O135   O     0.45390   0.05250   0.04538   0.00000  Uiso   1.00
C136   C     0.40977   0.05257   0.04693   0.00000  Uiso   1.00
H137   H     0.39906   0.02269   0.06640   0.00000  Uiso   1.00
H138   H     0.39609   0.04963   0.01290   0.00000  Uiso   1.00
H139   H     0.39779   0.08340   0.06412   0.00000  Uiso   1.00
O140   O     0.54442   0.28130   0.45444   0.00000  Uiso   1.00
C141   C     0.51526   0.31694   0.45577   0.00000  Uiso   1.00
H142   H     0.51092   0.32983   0.49037   0.00000  Uiso   1.00
H143   H     0.48460   0.30642   0.44128   0.00000  Uiso   1.00
H144   H     0.52756   0.01207   0.43529   0.00000  Uiso   1.00
O145   O     0.37618   0.11372   0.31211   0.00000  Uiso   1.00
C146   C     0.37435   0.06739   0.30037   0.00000  Uiso   1.00
H147   H     0.39651   0.04862   0.32187   0.00000  Uiso   1.00
H148   H     0.38396   0.06149   0.26506   0.00000  Uiso   1.00
H149   H     0.34257   0.05302   0.30632   0.00000  Uiso   1.00
O150   O     0.62383   0.21955   0.18782   0.00000  Uiso   1.00
C151   C     0.62576   0.26589   0.19951   0.00000  Uiso   1.00
H152   H     0.61613   0.27184   0.23480   0.00000  Uiso   1.00
H153   H     0.60366   0.28470   0.17797   0.00000  Uiso   1.00
H154   H     0.65757   0.28017   0.19358   0.00000  Uiso   1.00
O155   O     0.62233   0.11634   0.31366   0.00000  Uiso   1.00
C156   C     0.61662   0.14386   0.35169   0.00000  Uiso   1.00
H157   H     0.59795   0.12457   0.37663   0.00000  Uiso   1.00
H158   H     0.59887   0.17513   0.34360   0.00000  Uiso   1.00
H159   H     0.64716   0.15283   0.36733   0.00000  Uiso   1.00
O160   O     0.37768   0.21667   0.18607   0.00000  Uiso   1.00
C161   C     0.38328   0.18896   0.14815   0.00000  Uiso   1.00
H162   H     0.40100   0.15769   0.15634   0.00000  Uiso   1.00
H163   H     0.40192   0.20810   0.12308   0.00000  Uiso   1.00
H164   H     0.35270   0.17996   0.13262   0.00000  Uiso   1.00
C165   C     0.75341   0.16645   0.25027   0.00000  Uiso   1.00
C166   C     0.91325   0.16688   0.24970   0.00000  Uiso   1.00
C167   C     0.80062   0.09093   0.02297   0.00000  Uiso   1.00
C168   C     0.86106   0.24446   0.47703   0.00000  Uiso   1.00
C169   C     0.68785   0.13857   0.28057   0.00000  Uiso   1.00
C170   C     0.97883   0.19469   0.21935   0.00000  Uiso   1.00
C171   C     0.97792   0.14090   0.28205   0.00000  Uiso   1.00
C172   C     0.68875   0.19230   0.21783   0.00000  Uiso   1.00
C173   C     0.95737   0.16747   0.25028   0.00000  Uiso   1.00
C174   C     0.70930   0.16582   0.24966   0.00000  Uiso   1.00
C175   C     0.85992   0.02422   0.27707   0.00000  Uiso   1.00
C176   C     0.80674   0.30911   0.22295   0.00000  Uiso   1.00
C177   C     0.80673   0.02376   0.22295   0.00000  Uiso   1.00
C178   C     0.85992   0.30957   0.27706   0.00000  Uiso   1.00
C179   C     0.83324   0.16666   0.16333   0.00000  Uiso   1.00
C180   C     0.83333   0.16669   0.33667   0.00000  Uiso   1.00
C181   C     0.84726   0.20519   0.40730   0.00000  Uiso   1.00
C182   C     0.81737   0.12883   0.09275   0.00000  Uiso   1.00
C183   C     0.83297   0.16683   0.38453   0.00000  Uiso   1.00
C184   C     0.83262   0.16678   0.11549   0.00000  Uiso   1.00
C185   C     0.81791   0.12885   0.40730   0.00000  Uiso   1.00
C186   C     0.84690   0.20509   0.09269   0.00000  Uiso   1.00
C187   C     0.81683   0.12901   0.45345   0.00000  Uiso   1.00
C188   C     0.84644   0.20563   0.04656   0.00000  Uiso   1.00
C189   C     0.83143   0.16755   0.47678   0.00000  Uiso   1.00
C190   C     0.83120   0.16738   0.02324   0.00000  Uiso   1.00
C191   C     0.84673   0.20602   0.45359   0.00000  Uiso   1.00
C192   C     0.81631   0.12873   0.04645   0.00000  Uiso   1.00
C193   C     0.80148   0.09116   0.47643   0.00000  Uiso   1.00
C194   C     0.86140   0.24367   0.02359   0.00000  Uiso   1.00
H195   H     0.85904   0.23418   0.38880   0.00000  Uiso   1.00
H196   H     0.80594   0.09972   0.11129   0.00000  Uiso   1.00
H197   H     0.80657   0.09943   0.38909   0.00000  Uiso   1.00
H198   H     0.85887   0.23424   0.11086   0.00000  Uiso   1.00
H199   H     0.79029   0.06165   0.45835   0.00000  Uiso   1.00
H200   H     0.87367   0.27268   0.04171   0.00000  Uiso   1.00
H201   H     0.88116   0.04261   0.29870   0.00000  Uiso   1.00
H202   H     0.78548   0.29072   0.20132   0.00000  Uiso   1.00
H203   H     0.78548   0.04178   0.20134   0.00000  Uiso   1.00
H204   H     0.88117   0.29156   0.29868   0.00000  Uiso   1.00
N205   N     0.83333   0.28573   0.25000   0.00000  Uiso   1.00
N206   N     0.83333   0.04760   0.25000   0.00000  Uiso   1.00
O207   O     0.77226   0.20487   0.25000   0.00000  Uiso   1.00
O208   O     0.89441   0.12846   0.25001   0.00000  Uiso   1.00
O209   O     0.89441   0.20487   0.25001   0.00000  Uiso   1.00
O210   O     0.77226   0.12846   0.25000   0.00000  Uiso   1.00
O211   O     0.83333   0.20489   0.18393   0.00000  Uiso   1.00
O212   O     0.83334   0.12844   0.31608   0.00000  Uiso   1.00
O213   O     0.83334   0.20489   0.31608   0.00000  Uiso   1.00
O214   O     0.83333   0.12844   0.18393   0.00000  Uiso   1.00
Zn215  Zn    0.83333   0.21771   0.25000   0.00000  Uiso   1.00
Zn216  Zn    0.83333   0.11563   0.25000   0.00000  Uiso   1.00
O217   O     0.78723   0.05250   0.04538   0.00000  Uiso   1.00
C218   C     0.74311   0.05257   0.04693   0.00000  Uiso   1.00
H219   H     0.73239   0.02269   0.06640   0.00000  Uiso   1.00
H220   H     0.72942   0.04963   0.01290   0.00000  Uiso   1.00
H221   H     0.73113   0.08340   0.06412   0.00000  Uiso   1.00
O222   O     0.87775   0.28130   0.45444   0.00000  Uiso   1.00
C223   C     0.84859   0.31694   0.45577   0.00000  Uiso   1.00
H224   H     0.84425   0.32983   0.49037   0.00000  Uiso   1.00
H225   H     0.81793   0.30642   0.44128   0.00000  Uiso   1.00
H226   H     0.86089   0.01207   0.43529   0.00000  Uiso   1.00
O227   O     0.70951   0.11372   0.31211   0.00000  Uiso   1.00
C228   C     0.70768   0.06739   0.30037   0.00000  Uiso   1.00
H229   H     0.72984   0.04862   0.32187   0.00000  Uiso   1.00
H230   H     0.71729   0.06149   0.26506   0.00000  Uiso   1.00
H231   H     0.67591   0.05302   0.30632   0.00000  Uiso   1.00
O232   O     0.95717   0.21955   0.18782   0.00000  Uiso   1.00
C233   C     0.95909   0.26589   0.19951   0.00000  Uiso   1.00
H234   H     0.94946   0.27184   0.23480   0.00000  Uiso   1.00
H235   H     0.93699   0.28470   0.17797   0.00000  Uiso   1.00
H236   H     0.99090   0.28017   0.19358   0.00000  Uiso   1.00
O237   O     0.95566   0.11634   0.31366   0.00000  Uiso   1.00
C238   C     0.94995   0.14386   0.35169   0.00000  Uiso   1.00
H239   H     0.93129   0.12457   0.37663   0.00000  Uiso   1.00
H240   H     0.93220   0.17513   0.34360   0.00000  Uiso   1.00
H241   H     0.98049   0.15283   0.36733   0.00000  Uiso   1.00
O242   O     0.71101   0.21667   0.18607   0.00000  Uiso   1.00
C243   C     0.71661   0.18896   0.14815   0.00000  Uiso   1.00
H244   H     0.73433   0.15769   0.15634   0.00000  Uiso   1.00
H245   H     0.73525   0.20810   0.12308   0.00000  Uiso   1.00
H246   H     0.68604   0.17996   0.13262   0.00000  Uiso   1.00
C247   C     0.08675   0.49978   0.25027   0.00000  Uiso   1.00
C248   C     0.24659   0.50021   0.24970   0.00000  Uiso   1.00
C249   C     0.13395   0.42426   0.02297   0.00000  Uiso   1.00
C250   C     0.19439   0.57780   0.47703   0.00000  Uiso   1.00
C251   C     0.02118   0.47190   0.28057   0.00000  Uiso   1.00
C252   C     0.31216   0.52803   0.21935   0.00000  Uiso   1.00
C253   C     0.31126   0.47424   0.28205   0.00000  Uiso   1.00
C254   C     0.02208   0.52563   0.21783   0.00000  Uiso   1.00
C255   C     0.29070   0.50080   0.25028   0.00000  Uiso   1.00
C256   C     0.04263   0.49915   0.24966   0.00000  Uiso   1.00
C257   C     0.19325   0.35756   0.27707   0.00000  Uiso   1.00
C258   C     0.14007   0.64244   0.22295   0.00000  Uiso   1.00
C259   C     0.14007   0.35709   0.22295   0.00000  Uiso   1.00
C260   C     0.19326   0.64291   0.27706   0.00000  Uiso   1.00
C261   C     0.16657   0.50000   0.16333   0.00000  Uiso   1.00
C262   C     0.16667   0.50003   0.33667   0.00000  Uiso   1.00
C263   C     0.18059   0.53853   0.40730   0.00000  Uiso   1.00
C264   C     0.15070   0.46217   0.09275   0.00000  Uiso   1.00
C265   C     0.16631   0.50016   0.38453   0.00000  Uiso   1.00
C266   C     0.16595   0.50011   0.11549   0.00000  Uiso   1.00
C267   C     0.15125   0.46219   0.40730   0.00000  Uiso   1.00
C268   C     0.18023   0.53842   0.09269   0.00000  Uiso   1.00
C269   C     0.15016   0.46234   0.45345   0.00000  Uiso   1.00
C270   C     0.17977   0.53897   0.04656   0.00000  Uiso   1.00
C271   C     0.16476   0.50089   0.47678   0.00000  Uiso   1.00
C272   C     0.16453   0.50071   0.02324   0.00000  Uiso   1.00
C273   C     0.18007   0.53935   0.45359   0.00000  Uiso   1.00
C274   C     0.14964   0.46206   0.04645   0.00000  Uiso   1.00
C275   C     0.13481   0.42450   0.47643   0.00000  Uiso   1.00
C276   C     0.19473   0.57701   0.02359   0.00000  Uiso   1.00
H277   H     0.19237   0.56751   0.38880   0.00000  Uiso   1.00
H278   H     0.13927   0.43305   0.11129   0.00000  Uiso   1.00
H279   H     0.13990   0.43276   0.38909   0.00000  Uiso   1.00
H280   H     0.19221   0.56758   0.11086   0.00000  Uiso   1.00
H281   H     0.12363   0.39498   0.45835   0.00000  Uiso   1.00
H282   H     0.20700   0.60601   0.04171   0.00000  Uiso   1.00
H283   H     0.21449   0.37594   0.29870   0.00000  Uiso   1.00
H284   H     0.11882   0.62406   0.20132   0.00000  Uiso   1.00
H285   H     0.11881   0.37511   0.20134   0.00000  Uiso   1.00
H286   H     0.21450   0.62489   0.29868   0.00000  Uiso   1.00
N287   N     0.16667   0.61907   0.25000   0.00000  Uiso   1.00
N288   N     0.16667   0.38093   0.25000   0.00000  Uiso   1.00
O289   O     0.10559   0.53821   0.25000   0.00000  Uiso   1.00
O290   O     0.22774   0.46179   0.25001   0.00000  Uiso   1.00
O291   O     0.22774   0.53821   0.25001   0.00000  Uiso   1.00
O292   O     0.10559   0.46179   0.25000   0.00000  Uiso   1.00
O293   O     0.16666   0.53823   0.18393   0.00000  Uiso   1.00
O294   O     0.16667   0.46177   0.31608   0.00000  Uiso   1.00
O295   O     0.16667   0.53823   0.31608   0.00000  Uiso   1.00
O296   O     0.16666   0.46177   0.18393   0.00000  Uiso   1.00
Zn297  Zn    0.16667   0.55104   0.25000   0.00000  Uiso   1.00
Zn298  Zn    0.16667   0.44896   0.25000   0.00000  Uiso   1.00
O299   O     0.12057   0.38583   0.04538   0.00000  Uiso   1.00
C300   C     0.07644   0.38590   0.04693   0.00000  Uiso   1.00
H301   H     0.06573   0.35602   0.06640   0.00000  Uiso   1.00
H302   H     0.06275   0.38297   0.01290   0.00000  Uiso   1.00
H303   H     0.06446   0.41673   0.06412   0.00000  Uiso   1.00
O304   O     0.21109   0.61463   0.45444   0.00000  Uiso   1.00
C305   C     0.18193   0.65028   0.45577   0.00000  Uiso   1.00
H306   H     0.17758   0.66316   0.49037   0.00000  Uiso   1.00
H307   H     0.15126   0.63975   0.44128   0.00000  Uiso   1.00
H308   H     0.19423   0.34540   0.43529   0.00000  Uiso   1.00
O309   O     0.04284   0.44705   0.31211   0.00000  Uiso   1.00
C310   C     0.04102   0.40072   0.30037   0.00000  Uiso   1.00
H311   H     0.06318   0.38195   0.32187   0.00000  Uiso   1.00
H312   H     0.05062   0.39482   0.26506   0.00000  Uiso   1.00
H313   H     0.00924   0.38635   0.30632   0.00000  Uiso   1.00
O314   O     0.29050   0.55289   0.18782   0.00000  Uiso   1.00
C315   C     0.29242   0.59923   0.19951   0.00000  Uiso   1.00
H316   H     0.28279   0.60518   0.23480   0.00000  Uiso   1.00
H317   H     0.27033   0.61803   0.17797   0.00000  Uiso   1.00
H318   H     0.32424   0.61351   0.19358   0.00000  Uiso   1.00
O319   O     0.28899   0.44967   0.31366   0.00000  Uiso   1.00
C320   C     0.28328   0.47719   0.35169   0.00000  Uiso   1.00
H321   H     0.26462   0.45790   0.37663   0.00000  Uiso   1.00
H322   H     0.26554   0.50847   0.34360   0.00000  Uiso   1.00
H323   H     0.31382   0.48616   0.36733   0.00000  Uiso   1.00
O324   O     0.04435   0.55000   0.18607   0.00000  Uiso   1.00
C325   C     0.04995   0.52229   0.14815   0.00000  Uiso   1.00
H326   H     0.06766   0.49103   0.15634   0.00000  Uiso   1.00
H327   H     0.06858   0.54143   0.12308   0.00000  Uiso   1.00
H328   H     0.01937   0.51329   0.13262   0.00000  Uiso   1.00
C329   C     0.42008   0.49978   0.25027   0.00000  Uiso   1.00
C330   C     0.57992   0.50021   0.24970   0.00000  Uiso   1.00
C331   C     0.46729   0.42426   0.02297   0.00000  Uiso   1.00
C332   C     0.52772   0.57780   0.47703   0.00000  Uiso   1.00
C333   C     0.35451   0.47190   0.28057   0.00000  Uiso   1.00
C334   C     0.64550   0.52803   0.21935   0.00000  Uiso   1.00
C335   C     0.64459   0.47424   0.28205   0.00000  Uiso   1.00
C336   C     0.35542   0.52563   0.21783   0.00000  Uiso   1.00
C337   C     0.62404   0.50080   0.25028   0.00000  Uiso   1.00
C338   C     0.37597   0.49915   0.24966   0.00000  Uiso   1.00
C339   C     0.52658   0.35756   0.27707   0.00000  Uiso   1.00
C340   C     0.47340   0.64244   0.22295   0.00000  Uiso   1.00
C341   C     0.47340   0.35709   0.22295   0.00000  Uiso   1.00
C342   C     0.52659   0.64291   0.27706   0.00000  Uiso   1.00
C343   C     0.49990   0.50000   0.16333   0.00000  Uiso   1.00
C344   C     0.50000   0.50003   0.33667   0.00000  Uiso   1.00
C345   C     0.51392   0.53853   0.40730   0.00000  Uiso   1.00
C346   C     0.48404   0.46217   0.09275   0.00000  Uiso   1.00
C347   C     0.49964   0.50016   0.38453   0.00000  Uiso   1.00
C348   C     0.49929   0.50011   0.11549   0.00000  Uiso   1.00
C349   C     0.48458   0.46219   0.40730   0.00000  Uiso   1.00
C350   C     0.51357   0.53842   0.09269   0.00000  Uiso   1.00
C351   C     0.48350   0.46234   0.45345   0.00000  Uiso   1.00
C352   C     0.51310   0.53897   0.04656   0.00000  Uiso   1.00
C353   C     0.49810   0.50089   0.47678   0.00000  Uiso   1.00
C354   C     0.49786   0.50071   0.02324   0.00000  Uiso   1.00
C355   C     0.51340   0.53935   0.45359   0.00000  Uiso   1.00
C356   C     0.48297   0.46206   0.04645   0.00000  Uiso   1.00
C357   C     0.46815   0.42450   0.47643   0.00000  Uiso   1.00
C358   C     0.52806   0.57701   0.02359   0.00000  Uiso   1.00
H359   H     0.52571   0.56751   0.38880   0.00000  Uiso   1.00
H360   H     0.47260   0.43305   0.11129   0.00000  Uiso   1.00
H361   H     0.47324   0.43276   0.38909   0.00000  Uiso   1.00
H362   H     0.52554   0.56758   0.11086   0.00000  Uiso   1.00
H363   H     0.45696   0.39498   0.45835   0.00000  Uiso   1.00
H364   H     0.54034   0.60601   0.04171   0.00000  Uiso   1.00
H365   H     0.54783   0.37594   0.29870   0.00000  Uiso   1.00
H366   H     0.45215   0.62406   0.20132   0.00000  Uiso   1.00
H367   H     0.45214   0.37511   0.20134   0.00000  Uiso   1.00
H368   H     0.54784   0.62489   0.29868   0.00000  Uiso   1.00
N369   N     0.50000   0.61907   0.25000   0.00000  Uiso   1.00
N370   N     0.50000   0.38093   0.25000   0.00000  Uiso   1.00
O371   O     0.43892   0.53821   0.25000   0.00000  Uiso   1.00
O372   O     0.56108   0.46179   0.25001   0.00000  Uiso   1.00
O373   O     0.56108   0.53821   0.25001   0.00000  Uiso   1.00
O374   O     0.43892   0.46179   0.25000   0.00000  Uiso   1.00
O375   O     0.49999   0.53823   0.18393   0.00000  Uiso   1.00
O376   O     0.50001   0.46177   0.31608   0.00000  Uiso   1.00
O377   O     0.50001   0.53823   0.31608   0.00000  Uiso   1.00
O378   O     0.49999   0.46177   0.18393   0.00000  Uiso   1.00
Zn379  Zn    0.50000   0.55104   0.25000   0.00000  Uiso   1.00
Zn380  Zn    0.50000   0.44896   0.25000   0.00000  Uiso   1.00
O381   O     0.45390   0.38583   0.04538   0.00000  Uiso   1.00
C382   C     0.40977   0.38590   0.04693   0.00000  Uiso   1.00
H383   H     0.39906   0.35602   0.06640   0.00000  Uiso   1.00
H384   H     0.39609   0.38297   0.01290   0.00000  Uiso   1.00
H385   H     0.39779   0.41673   0.06412   0.00000  Uiso   1.00
O386   O     0.54442   0.61463   0.45444   0.00000  Uiso   1.00
C387   C     0.51526   0.65028   0.45577   0.00000  Uiso   1.00
H388   H     0.51092   0.66316   0.49037   0.00000  Uiso   1.00
H389   H     0.48460   0.63975   0.44128   0.00000  Uiso   1.00
H390   H     0.52756   0.34540   0.43529   0.00000  Uiso   1.00
O391   O     0.37618   0.44705   0.31211   0.00000  Uiso   1.00
C392   C     0.37435   0.40072   0.30037   0.00000  Uiso   1.00
H393   H     0.39651   0.38195   0.32187   0.00000  Uiso   1.00
H394   H     0.38396   0.39482   0.26506   0.00000  Uiso   1.00
H395   H     0.34257   0.38635   0.30632   0.00000  Uiso   1.00
O396   O     0.62383   0.55289   0.18782   0.00000  Uiso   1.00
C397   C     0.62576   0.59923   0.19951   0.00000  Uiso   1.00
H398   H     0.61613   0.60518   0.23480   0.00000  Uiso   1.00
H399   H     0.60366   0.61803   0.17797   0.00000  Uiso   1.00
H400   H     0.65757   0.61351   0.19358   0.00000  Uiso   1.00
O401   O     0.62233   0.44967   0.31366   0.00000  Uiso   1.00
C402   C     0.61662   0.47719   0.35169   0.00000  Uiso   1.00
H403   H     0.59795   0.45790   0.37663   0.00000  Uiso   1.00
H404   H     0.59887   0.50847   0.34360   0.00000  Uiso   1.00
H405   H     0.64716   0.48616   0.36733   0.00000  Uiso   1.00
O406   O     0.37768   0.55000   0.18607   0.00000  Uiso   1.00
C407   C     0.38328   0.52229   0.14815   0.00000  Uiso   1.00
H408   H     0.40100   0.49103   0.15634   0.00000  Uiso   1.00
H409   H     0.40192   0.54143   0.12308   0.00000  Uiso   1.00
H410   H     0.35270   0.51329   0.13262   0.00000  Uiso   1.00
C411   C     0.75341   0.49978   0.25027   0.00000  Uiso   1.00
C412   C     0.91325   0.50021   0.24970   0.00000  Uiso   1.00
C413   C     0.80062   0.42426   0.02297   0.00000  Uiso   1.00
C414   C     0.86106   0.57780   0.47703   0.00000  Uiso   1.00
C415   C     0.68785   0.47190   0.28057   0.00000  Uiso   1.00
C416   C     0.97883   0.52803   0.21935   0.00000  Uiso   1.00
C417   C     0.97792   0.47424   0.28205   0.00000  Uiso   1.00
C418   C     0.68875   0.52563   0.21783   0.00000  Uiso   1.00
C419   C     0.95737   0.50080   0.25028   0.00000  Uiso   1.00
C420   C     0.70930   0.49915   0.24966   0.00000  Uiso   1.00
C421   C     0.85992   0.35756   0.27707   0.00000  Uiso   1.00
C422   C     0.80674   0.64244   0.22295   0.00000  Uiso   1.00
C423   C     0.80673   0.35709   0.22295   0.00000  Uiso   1.00
C424   C     0.85992   0.64291   0.27706   0.00000  Uiso   1.00
C425   C     0.83324   0.50000   0.16333   0.00000  Uiso   1.00
C426   C     0.83333   0.50003   0.33667   0.00000  Uiso   1.00
C427   C     0.84726   0.53853   0.40730   0.00000  Uiso   1.00
C428   C     0.81737   0.46217   0.09275   0.00000  Uiso   1.00
C429   C     0.83297   0.50016   0.38453   0.00000  Uiso   1.00
C430   C     0.83262   0.50011   0.11549   0.00000  Uiso   1.00
C431   C     0.81791   0.46219   0.40730   0.00000  Uiso   1.00
C432   C     0.84690   0.53842   0.09269   0.00000  Uiso   1.00
C433   C     0.81683   0.46234   0.45345   0.00000  Uiso   1.00
C434   C     0.84644   0.53897   0.04656   0.00000  Uiso   1.00
C435   C     0.83143   0.50089   0.47678   0.00000  Uiso   1.00
C436   C     0.83120   0.50071   0.02324   0.00000  Uiso   1.00
C437   C     0.84673   0.53935   0.45359   0.00000  Uiso   1.00
C438   C     0.81631   0.46206   0.04645   0.00000  Uiso   1.00
C439   C     0.80148   0.42450   0.47643   0.00000  Uiso   1.00
C440   C     0.86140   0.57701   0.02359   0.00000  Uiso   1.00
H441   H     0.85904   0.56751   0.38880   0.00000  Uiso   1.00
H442   H     0.80594   0.43305   0.11129   0.00000  Uiso   1.00
H443   H     0.80657   0.43276   0.38909   0.00000  Uiso   1.00
H444   H     0.85887   0.56758   0.11086   0.00000  Uiso   1.00
H445   H     0.79029   0.39498   0.45835   0.00000  Uiso   1.00
H446   H     0.87367   0.60601   0.04171   0.00000  Uiso   1.00
H447   H     0.88116   0.37594   0.29870   0.00000  Uiso   1.00
H448   H     0.78548   0.62406   0.20132   0.00000  Uiso   1.00
H449   H     0.78548   0.37511   0.20134   0.00000  Uiso   1.00
H450   H     0.88117   0.62489   0.29868   0.00000  Uiso   1.00
N451   N     0.83333   0.61907   0.25000   0.00000  Uiso   1.00
N452   N     0.83333   0.38093   0.25000   0.00000  Uiso   1.00
O453   O     0.77226   0.53821   0.25000   0.00000  Uiso   1.00
O454   O     0.89441   0.46179   0.25001   0.00000  Uiso   1.00
O455   O     0.89441   0.53821   0.25001   0.00000  Uiso   1.00
O456   O     0.77226   0.46179   0.25000   0.00000  Uiso   1.00
O457   O     0.83333   0.53823   0.18393   0.00000  Uiso   1.00
O458   O     0.83334   0.46177   0.31608   0.00000  Uiso   1.00
O459   O     0.83334   0.53823   0.31608   0.00000  Uiso   1.00
O460   O     0.83333   0.46177   0.18393   0.00000  Uiso   1.00
Zn461  Zn    0.83333   0.55104   0.25000   0.00000  Uiso   1.00
Zn462  Zn    0.83333   0.44896   0.25000   0.00000  Uiso   1.00
O463   O     0.78723   0.38583   0.04538   0.00000  Uiso   1.00
C464   C     0.74311   0.38590   0.04693   0.00000  Uiso   1.00
H465   H     0.73239   0.35602   0.06640   0.00000  Uiso   1.00
H466   H     0.72942   0.38297   0.01290   0.00000  Uiso   1.00
H467   H     0.73113   0.41673   0.06412   0.00000  Uiso   1.00
O468   O     0.87775   0.61463   0.45444   0.00000  Uiso   1.00
C469   C     0.84859   0.65028   0.45577   0.00000  Uiso   1.00
H470   H     0.84425   0.66316   0.49037   0.00000  Uiso   1.00
H471   H     0.81793   0.63975   0.44128   0.00000  Uiso   1.00
H472   H     0.86089   0.34540   0.43529   0.00000  Uiso   1.00
O473   O     0.70951   0.44705   0.31211   0.00000  Uiso   1.00
C474   C     0.70768   0.40072   0.30037   0.00000  Uiso   1.00
H475   H     0.72984   0.38195   0.32187   0.00000  Uiso   1.00
H476   H     0.71729   0.39482   0.26506   0.00000  Uiso   1.00
H477   H     0.67591   0.38635   0.30632   0.00000  Uiso   1.00
O478   O     0.95717   0.55289   0.18782   0.00000  Uiso   1.00
C479   C     0.95909   0.59923   0.19951   0.00000  Uiso   1.00
H480   H     0.94946   0.60518   0.23480   0.00000  Uiso   1.00
H481   H     0.93699   0.61803   0.17797   0.00000  Uiso   1.00
H482   H     0.99090   0.61351   0.19358   0.00000  Uiso   1.00
O483   O     0.95566   0.44967   0.31366   0.00000  Uiso   1.00
C484   C     0.94995   0.47719   0.35169   0.00000  Uiso   1.00
H485   H     0.93129   0.45790   0.37663   0.00000  Uiso   1.00
H486   H     0.93220   0.50847   0.34360   0.00000  Uiso   1.00
H487   H     0.98049   0.48616   0.36733   0.00000  Uiso   1.00
O488   O     0.71101   0.55000   0.18607   0.00000  Uiso   1.00
C489   C     0.71661   0.52229   0.14815   0.00000  Uiso   1.00
H490   H     0.73433   0.49103   0.15634   0.00000  Uiso   1.00
H491   H     0.73525   0.54143   0.12308   0.00000  Uiso   1.00
H492   H     0.68604   0.51329   0.13262   0.00000  Uiso   1.00
C493   C     0.08675   0.83312   0.25027   0.00000  Uiso   1.00
C494   C     0.24659   0.83354   0.24970   0.00000  Uiso   1.00
C495   C     0.13395   0.75759   0.02297   0.00000  Uiso   1.00
C496   C     0.19439   0.91113   0.47703   0.00000  Uiso   1.00
C497   C     0.02118   0.80523   0.28057   0.00000  Uiso   1.00
C498   C     0.31216   0.86136   0.21935   0.00000  Uiso   1.00
C499   C     0.31126   0.80757   0.28205   0.00000  Uiso   1.00
C500   C     0.02208   0.85896   0.21783   0.00000  Uiso   1.00
C501   C     0.29070   0.83414   0.25028   0.00000  Uiso   1.00
C502   C     0.04263   0.83248   0.24966   0.00000  Uiso   1.00
C503   C     0.19325   0.69089   0.27707   0.00000  Uiso   1.00
C504   C     0.14007   0.97578   0.22295   0.00000  Uiso   1.00
C505   C     0.14007   0.69043   0.22295   0.00000  Uiso   1.00
C506   C     0.19326   0.97624   0.27706   0.00000  Uiso   1.00
C507   C     0.16657   0.83333   0.16333   0.00000  Uiso   1.00
C508   C     0.16667   0.83336   0.33667   0.00000  Uiso   1.00
C509   C     0.18059   0.87186   0.40730   0.00000  Uiso   1.00
C510   C     0.15070   0.79550   0.09275   0.00000  Uiso   1.00
C511   C     0.16631   0.83350   0.38453   0.00000  Uiso   1.00
C512   C     0.16595   0.83345   0.11549   0.00000  Uiso   1.00
C513   C     0.15125   0.79552   0.40730   0.00000  Uiso   1.00
C514   C     0.18023   0.87175   0.09269   0.00000  Uiso   1.00
C515   C     0.15016   0.79567   0.45345   0.00000  Uiso   1.00
C516   C     0.17977   0.87230   0.04656   0.00000  Uiso   1.00
C517   C     0.16476   0.83422   0.47678   0.00000  Uiso   1.00
C518   C     0.16453   0.83404   0.02324   0.00000  Uiso   1.00
C519   C     0.18007   0.87268   0.45359   0.00000  Uiso   1.00
C520   C     0.14964   0.79539   0.04645   0.00000  Uiso   1.00
C521   C     0.13481   0.75783   0.47643   0.00000  Uiso   1.00
C522   C     0.19473   0.91034   0.02359   0.00000  Uiso   1.00
H523   H     0.19237   0.90084   0.38880   0.00000  Uiso   1.00
H524   H     0.13927   0.76638   0.11129   0.00000  Uiso   1.00
H525   H     0.13990   0.76609   0.38909   0.00000  Uiso   1.00
H526   H     0.19221   0.90091   0.11086   0.00000  Uiso   1.00
H527   H     0.12363   0.72831   0.45835   0.00000  Uiso   1.00
H528   H     0.20700   0.93935   0.04171   0.00000  Uiso   1.00
H529   H     0.21449   0.70928   0.29870   0.00000  Uiso   1.00
H530   H     0.11882   0.95739   0.20132   0.00000  Uiso   1.00
H531   H     0.11881   0.70844   0.20134   0.00000  Uiso   1.00
H532   H     0.21450   0.95822   0.29868   0.00000  Uiso   1.00
N533   N     0.16667   0.95240   0.25000   0.00000  Uiso   1.00
N534   N     0.16667   0.71427   0.25000   0.00000  Uiso   1.00
O535   O     0.10559   0.87154   0.25000   0.00000  Uiso   1.00
O536   O     0.22774   0.79513   0.25001   0.00000  Uiso   1.00
O537   O     0.22774   0.87154   0.25001   0.00000  Uiso   1.00
O538   O     0.10559   0.79513   0.25000   0.00000  Uiso   1.00
O539   O     0.16666   0.87156   0.18393   0.00000  Uiso   1.00
O540   O     0.16667   0.79511   0.31608   0.00000  Uiso   1.00
O541   O     0.16667   0.87156   0.31608   0.00000  Uiso   1.00
O542   O     0.16666   0.79511   0.18393   0.00000  Uiso   1.00
Zn543  Zn    0.16667   0.88437   0.25000   0.00000  Uiso   1.00
Zn544  Zn    0.16667   0.78229   0.25000   0.00000  Uiso   1.00
O545   O     0.12057   0.71916   0.04538   0.00000  Uiso   1.00
C546   C     0.07644   0.71924   0.04693   0.00000  Uiso   1.00
H547   H     0.06573   0.68935   0.06640   0.00000  Uiso   1.00
H548   H     0.06275   0.71630   0.01290   0.00000  Uiso   1.00
H549   H     0.06446   0.75006   0.06412   0.00000  Uiso   1.00
O550   O     0.21109   0.94797   0.45444   0.00000  Uiso   1.00
C551   C     0.18193   0.98361   0.45577   0.00000  Uiso   1.00
H552   H     0.17758   0.99650   0.49037   0.00000  Uiso   1.00
H553   H     0.15126   0.97308   0.44128   0.00000  Uiso   1.00
H554   H     0.19423   0.67874   0.43529   0.00000  Uiso   1.00
O555   O     0.04284   0.78038   0.31211   0.00000  Uiso   1.00
C556   C     0.04102   0.73405   0.30037   0.00000  Uiso   1.00
H557   H     0.06318   0.71528   0.32187   0.00000  Uiso   1.00
H558   H     0.05062   0.72816   0.26506   0.00000  Uiso   1.00
H559   H     0.00924   0.71969   0.30632   0.00000  Uiso   1.00
O560   O     0.29050   0.88622   0.18782   0.00000  Uiso   1.00
C561   C     0.29242   0.93256   0.19951   0.00000  Uiso   1.00
H562   H     0.28279   0.93851   0.23480   0.00000  Uiso   1.00
H563   H     0.27033   0.95137   0.17797   0.00000  Uiso   1.00
H564   H     0.32424   0.94684   0.19358   0.00000  Uiso   1.00
O565   O     0.28899   0.78301   0.31366   0.00000  Uiso   1.00
C566   C     0.28328   0.81053   0.35169   0.00000  Uiso   1.00
H567   H     0.26462   0.79124   0.37663   0.00000  Uiso   1.00
H568   H     0.26554   0.84180   0.34360   0.00000  Uiso   1.00
H569   H     0.31382   0.81949   0.36733   0.00000  Uiso   1.00
O570   O     0.04435   0.88334   0.18607   0.00000  Uiso   1.00
C571   C     0.04995   0.85562   0.14815   0.00000  Uiso   1.00
H572   H     0.06766   0.82436   0.15634   0.00000  Uiso   1.00
H573   H     0.06858   0.87477   0.12308   0.00000  Uiso   1.00
H574   H     0.01937   0.84663   0.13262   0.00000  Uiso   1.00
C575   C     0.42008   0.83312   0.25027   0.00000  Uiso   1.00
C576   C     0.57992   0.83354   0.24970   0.00000  Uiso   1.00
C577   C     0.46729   0.75759   0.02297   0.00000  Uiso   1.00
C578   C     0.52772   0.91113   0.47703   0.00000  Uiso   1.00
C579   C     0.35451   0.80523   0.28057   0.00000  Uiso   1.00
C580   C     0.64550   0.86136   0.21935   0.00000  Uiso   1.00
C581   C     0.64459   0.80757   0.28205   0.00000  Uiso   1.00
C582   C     0.35542   0.85896   0.21783   0.00000  Uiso   1.00
C583   C     0.62404   0.83414   0.25028   0.00000  Uiso   1.00
C584   C     0.37597   0.83248   0.24966   0.00000  Uiso   1.00
C585   C     0.52658   0.69089   0.27707   0.00000  Uiso   1.00
C586   C     0.47340   0.97578   0.22295   0.00000  Uiso   1.00
C587   C     0.47340   0.69043   0.22295   0.00000  Uiso   1.00
C588   C     0.52659   0.97624   0.27706   0.00000  Uiso   1.00
C589   C     0.49990   0.83333   0.16333   0.00000  Uiso   1.00
C590   C     0.50000   0.83336   0.33667   0.00000  Uiso   1.00
C591   C     0.51392   0.87186   0.40730   0.00000  Uiso   1.00
C592   C     0.48404   0.79550   0.09275   0.00000  Uiso   1.00
C593   C     0.49964   0.83350   0.38453   0.00000  Uiso   1.00
C594   C     0.49929   0.83345   0.11549   0.00000  Uiso   1.00
C595   C     0.48458   0.79552   0.40730   0.00000  Uiso   1.00
C596   C     0.51357   0.87175   0.09269   0.00000  Uiso   1.00
C597   C     0.48350   0.79567   0.45345   0.00000  Uiso   1.00
C598   C     0.51310   0.87230   0.04656   0.00000  Uiso   1.00
C599   C     0.49810   0.83422   0.47678   0.00000  Uiso   1.00
C600   C     0.49786   0.83404   0.02324   0.00000  Uiso   1.00
C601   C     0.51340   0.87268   0.45359   0.00000  Uiso   1.00
C602   C     0.48297   0.79539   0.04645   0.00000  Uiso   1.00
C603   C     0.46815   0.75783   0.47643   0.00000  Uiso   1.00
C604   C     0.52806   0.91034   0.02359   0.00000  Uiso   1.00
H605   H     0.52571   0.90084   0.38880   0.00000  Uiso   1.00
H606   H     0.47260   0.76638   0.11129   0.00000  Uiso   1.00
H607   H     0.47324   0.76609   0.38909   0.00000  Uiso   1.00
H608   H     0.52554   0.90091   0.11086   0.00000  Uiso   1.00
H609   H     0.45696   0.72831   0.45835   0.00000  Uiso   1.00
H610   H     0.54034   0.93935   0.04171   0.00000  Uiso   1.00
H611   H     0.54783   0.70928   0.29870   0.00000  Uiso   1.00
H612   H     0.45215   0.95739   0.20132   0.00000  Uiso   1.00
H613   H     0.45214   0.70844   0.20134   0.00000  Uiso   1.00
H614   H     0.54784   0.95822   0.29868   0.00000  Uiso   1.00
N615   N     0.50000   0.95240   0.25000   0.00000  Uiso   1.00
N616   N     0.50000   0.71427   0.25000   0.00000  Uiso   1.00
O617   O     0.43892   0.87154   0.25000   0.00000  Uiso   1.00
O618   O     0.56108   0.79513   0.25001   0.00000  Uiso   1.00
O619   O     0.56108   0.87154   0.25001   0.00000  Uiso   1.00
O620   O     0.43892   0.79513   0.25000   0.00000  Uiso   1.00
O621   O     0.49999   0.87156   0.18393   0.00000  Uiso   1.00
O622   O     0.50001   0.79511   0.31608   0.00000  Uiso   1.00
O623   O     0.50001   0.87156   0.31608   0.00000  Uiso   1.00
O624   O     0.49999   0.79511   0.18393   0.00000  Uiso   1.00
Zn625  Zn    0.50000   0.88437   0.25000   0.00000  Uiso   1.00
Zn626  Zn    0.50000   0.78229   0.25000   0.00000  Uiso   1.00
O627   O     0.45390   0.71916   0.04538   0.00000  Uiso   1.00
C628   C     0.40977   0.71924   0.04693   0.00000  Uiso   1.00
H629   H     0.39906   0.68935   0.06640   0.00000  Uiso   1.00
H630   H     0.39609   0.71630   0.01290   0.00000  Uiso   1.00
H631   H     0.39779   0.75006   0.06412   0.00000  Uiso   1.00
O632   O     0.54442   0.94797   0.45444   0.00000  Uiso   1.00
C633   C     0.51526   0.98361   0.45577   0.00000  Uiso   1.00
H634   H     0.51092   0.99650   0.49037   0.00000  Uiso   1.00
H635   H     0.48460   0.97308   0.44128   0.00000  Uiso   1.00
H636   H     0.52756   0.67874   0.43529   0.00000  Uiso   1.00
O637   O     0.37618   0.78038   0.31211   0.00000  Uiso   1.00
C638   C     0.37435   0.73405   0.30037   0.00000  Uiso   1.00
H639   H     0.39651   0.71528   0.32187   0.00000  Uiso   1.00
H640   H     0.38396   0.72816   0.26506   0.00000  Uiso   1.00
H641   H     0.34257   0.71969   0.30632   0.00000  Uiso   1.00
O642   O     0.62383   0.88622   0.18782   0.00000  Uiso   1.00
C643   C     0.62576   0.93256   0.19951   0.00000  Uiso   1.00
H644   H     0.61613   0.93851   0.23480   0.00000  Uiso   1.00
H645   H     0.60366   0.95137   0.17797   0.00000  Uiso   1.00
H646   H     0.65757   0.94684   0.19358   0.00000  Uiso   1.00
O647   O     0.62233   0.78301   0.31366   0.00000  Uiso   1.00
C648   C     0.61662   0.81053   0.35169   0.00000  Uiso   1.00
H649   H     0.59795   0.79124   0.37663   0.00000  Uiso   1.00
H650   H     0.59887   0.84180   0.34360   0.00000  Uiso   1.00
H651   H     0.64716   0.81949   0.36733   0.00000  Uiso   1.00
O652   O     0.37768   0.88334   0.18607   0.00000  Uiso   1.00
C653   C     0.38328   0.85562   0.14815   0.00000  Uiso   1.00
H654   H     0.40100   0.82436   0.15634   0.00000  Uiso   1.00
H655   H     0.40192   0.87477   0.12308   0.00000  Uiso   1.00
H656   H     0.35270   0.84663   0.13262   0.00000  Uiso   1.00
C657   C     0.75341   0.83312   0.25027   0.00000  Uiso   1.00
C658   C     0.91325   0.83354   0.24970   0.00000  Uiso   1.00
C659   C     0.80062   0.75759   0.02297   0.00000  Uiso   1.00
C660   C     0.86106   0.91113   0.47703   0.00000  Uiso   1.00
C661   C     0.68785   0.80523   0.28057   0.00000  Uiso   1.00
C662   C     0.97883   0.86136   0.21935   0.00000  Uiso   1.00
C663   C     0.97792   0.80757   0.28205   0.00000  Uiso   1.00
C664   C     0.68875   0.85896   0.21783   0.00000  Uiso   1.00
C665   C     0.95737   0.83414   0.25028   0.00000  Uiso   1.00
C666   C     0.70930   0.83248   0.24966   0.00000  Uiso   1.00
C667   C     0.85992   0.69089   0.27707   0.00000  Uiso   1.00
C668   C     0.80674   0.97578   0.22295   0.00000  Uiso   1.00
C669   C     0.80673   0.69043   0.22295   0.00000  Uiso   1.00
C670   C     0.85992   0.97624   0.27706   0.00000  Uiso   1.00
C671   C     0.83324   0.83333   0.16333   0.00000  Uiso   1.00
C672   C     0.83333   0.83336   0.33667   0.00000  Uiso   1.00
C673   C     0.84726   0.87186   0.40730   0.00000  Uiso   1.00
C674   C     0.81737   0.79550   0.09275   0.00000  Uiso   1.00
C675   C     0.83297   0.83350   0.38453   0.00000  Uiso   1.00
C676   C     0.83262   0.83345   0.11549   0.00000  Uiso   1.00
C677   C     0.81791   0.79552   0.40730   0.00000  Uiso   1.00
C678   C     0.84690   0.87175   0.09269   0.00000  Uiso   1.00
C679   C     0.81683   0.79567   0.45345   0.00000  Uiso   1.00
C680   C     0.84644   0.87230   0.04656   0.00000  Uiso   1.00
C681   C     0.83143   0.83422   0.47678   0.00000  Uiso   1.00
C682   C     0.83120   0.83404   0.02324   0.00000  Uiso   1.00
C683   C     0.84673   0.87268   0.45359   0.00000  Uiso   1.00
C684   C     0.81631   0.79539   0.04645   0.00000  Uiso   1.00
C685   C     0.80148   0.75783   0.47643   0.00000  Uiso   1.00
C686   C     0.86140   0.91034   0.02359   0.00000  Uiso   1.00
H687   H     0.85904   0.90084   0.38880   0.00000  Uiso   1.00
H688   H     0.80594   0.76638   0.11129   0.00000  Uiso   1.00
H689   H     0.80657   0.76609   0.38909   0.00000  Uiso   1.00
H690   H     0.85887   0.90091   0.11086   0.00000  Uiso   1.00
H691   H     0.79029   0.72831   0.45835   0.00000  Uiso   1.00
H692   H     0.87367   0.93935   0.04171   0.00000  Uiso   1.00
H693   H     0.88116   0.70928   0.29870   0.00000  Uiso   1.00
H694   H     0.78548   0.95739   0.20132   0.00000  Uiso   1.00
H695   H     0.78548   0.70844   0.20134   0.00000  Uiso   1.00
H696   H     0.88117   0.95822   0.29868   0.00000  Uiso   1.00
N697   N     0.83333   0.95240   0.25000   0.00000  Uiso   1.00
N698   N     0.83333   0.71427   0.25000   0.00000  Uiso   1.00
O699   O     0.77226   0.87154   0.25000   0.00000  Uiso   1.00
O700   O     0.89441   0.79513   0.25001   0.00000  Uiso   1.00
O701   O     0.89441   0.87154   0.25001   0.00000  Uiso   1.00
O702   O     0.77226   0.79513   0.25000   0.00000  Uiso   1.00
O703   O     0.83333   0.87156   0.18393   0.00000  Uiso   1.00
O704   O     0.83334   0.79511   0.31608   0.00000  Uiso   1.00
O705   O     0.83334   0.87156   0.31608   0.00000  Uiso   1.00
O706   O     0.83333   0.79511   0.18393   0.00000  Uiso   1.00
Zn707  Zn    0.83333   0.88437   0.25000   0.00000  Uiso   1.00
Zn708  Zn    0.83333   0.78229   0.25000   0.00000  Uiso   1.00
O709   O     0.78723   0.71916   0.04538   0.00000  Uiso   1.00
C710   C     0.74311   0.71924   0.04693   0.00000  Uiso   1.00
H711   H     0.73239   0.68935   0.06640   0.00000  Uiso   1.00
H712   H     0.72942   0.71630   0.01290   0.00000  Uiso   1.00
H713   H     0.73113   0.75006   0.06412   0.00000  Uiso   1.00
O714   O     0.87775   0.94797   0.45444   0.00000  Uiso   1.00
C715   C     0.84859   0.98361   0.45577   0.00000  Uiso   1.00
H716   H     0.84425   0.99650   0.49037   0.00000  Uiso   1.00
H717   H     0.81793   0.97308   0.44128   0.00000  Uiso   1.00
H718   H     0.86089   0.67874   0.43529   0.00000  Uiso   1.00
O719   O     0.70951   0.78038   0.31211   0.00000  Uiso   1.00
C720   C     0.70768   0.73405   0.30037   0.00000  Uiso   1.00
H721   H     0.72984   0.71528   0.32187   0.00000  Uiso   1.00
H722   H     0.71729   0.72816   0.26506   0.00000  Uiso   1.00
H723   H     0.67591   0.71969   0.30632   0.00000  Uiso   1.00
O724   O     0.95717   0.88622   0.18782   0.00000  Uiso   1.00
C725   C     0.95909   0.93256   0.19951   0.00000  Uiso   1.00
H726   H     0.94946   0.93851   0.23480   0.00000  Uiso   1.00
H727   H     0.93699   0.95137   0.17797   0.00000  Uiso   1.00
H728   H     0.99090   0.94684   0.19358   0.00000  Uiso   1.00
O729   O     0.95566   0.78301   0.31366   0.00000  Uiso   1.00
C730   C     0.94995   0.81053   0.35169   0.00000  Uiso   1.00
H731   H     0.93129   0.79124   0.37663   0.00000  Uiso   1.00
H732   H     0.93220   0.84180   0.34360   0.00000  Uiso   1.00
H733   H     0.98049   0.81949   0.36733   0.00000  Uiso   1.00
O734   O     0.71101   0.88334   0.18607   0.00000  Uiso   1.00
C735   C     0.71661   0.85562   0.14815   0.00000  Uiso   1.00
H736   H     0.73433   0.82436   0.15634   0.00000  Uiso   1.00
H737   H     0.73525   0.87477   0.12308   0.00000  Uiso   1.00
H738   H     0.68604   0.84663   0.13262   0.00000  Uiso   1.00
C739   C     0.08675   0.16645   0.75027   0.00000  Uiso   1.00
C740   C     0.24659   0.16688   0.74970   0.00000  Uiso   1.00
C741   C     0.13395   0.09093   0.52297   0.00000  Uiso   1.00
C742   C     0.19439   0.24446   0.97703   0.00000  Uiso   1.00
C743   C     0.02118   0.13857   0.78057   0.00000  Uiso   1.00
C744   C     0.31216   0.19469   0.71935   0.00000  Uiso   1.00
C745   C     0.31126   0.14090   0.78205   0.00000  Uiso   1.00
C746   C     0.02208   0.19230   0.71783   0.00000  Uiso   1.00
C747   C     0.29070   0.16747   0.75028   0.00000  Uiso   1.00
C748   C     0.04263   0.16582   0.74966   0.00000  Uiso   1.00
C749   C     0.19325   0.02422   0.77707   0.00000  Uiso   1.00
C750   C     0.14007   0.30911   0.72295   0.00000  Uiso   1.00
C751   C     0.14007   0.02376   0.72295   0.00000  Uiso   1.00
C752   C     0.19326   0.30957   0.77706   0.00000  Uiso   1.00
C753   C     0.16657   0.16666   0.66333   0.00000  Uiso   1.00
C754   C     0.16667   0.16669   0.83667   0.00000  Uiso   1.00
C755   C     0.18059   0.20519   0.90730   0.00000  Uiso   1.00
C756   C     0.15070   0.12883   0.59275   0.00000  Uiso   1.00
C757   C     0.16631   0.16683   0.88453   0.00000  Uiso   1.00
C758   C     0.16595   0.16678   0.61549   0.00000  Uiso   1.00
C759   C     0.15125   0.12885   0.90730   0.00000  Uiso   1.00
C760   C     0.18023   0.20509   0.59269   0.00000  Uiso   1.00
C761   C     0.15016   0.12901   0.95345   0.00000  Uiso   1.00
C762   C     0.17977   0.20563   0.54656   0.00000  Uiso   1.00
C763   C     0.16476   0.16755   0.97678   0.00000  Uiso   1.00
C764   C     0.16453   0.16738   0.52324   0.00000  Uiso   1.00
C765   C     0.18007   0.20602   0.95359   0.00000  Uiso   1.00
C766   C     0.14964   0.12873   0.54645   0.00000  Uiso   1.00
C767   C     0.13481   0.09116   0.97643   0.00000  Uiso   1.00
C768   C     0.19473   0.24367   0.52359   0.00000  Uiso   1.00
H769   H     0.19237   0.23418   0.88880   0.00000  Uiso   1.00
H770   H     0.13927   0.09972   0.61129   0.00000  Uiso   1.00
H771   H     0.13990   0.09943   0.88909   0.00000  Uiso   1.00
H772   H     0.19221   0.23424   0.61086   0.00000  Uiso   1.00
H773   H     0.12363   0.06165   0.95835   0.00000  Uiso   1.00
H774   H     0.20700   0.27268   0.54171   0.00000  Uiso   1.00
H775   H     0.21449   0.04261   0.79870   0.00000  Uiso   1.00
H776   H     0.11882   0.29072   0.70132   0.00000  Uiso   1.00
H777   H     0.11881   0.04178   0.70134   0.00000  Uiso   1.00
H778   H     0.21450   0.29156   0.79868   0.00000  Uiso   1.00
N779   N     0.16667   0.28573   0.75000   0.00000  Uiso   1.00
N780   N     0.16667   0.04760   0.75000   0.00000  Uiso   1.00
O781   O     0.10559   0.20487   0.75000   0.00000  Uiso   1.00
O782   O     0.22774   0.12846   0.75001   0.00000  Uiso   1.00
O783   O     0.22774   0.20487   0.75001   0.00000  Uiso   1.00
O784   O     0.10559   0.12846   0.75000   0.00000  Uiso   1.00
O785   O     0.16666   0.20489   0.68393   0.00000  Uiso   1.00
O786   O     0.16667   0.12844   0.81608   0.00000  Uiso   1.00
O787   O     0.16667   0.20489   0.81608   0.00000  Uiso   1.00
O788   O     0.16666   0.12844   0.68393   0.00000  Uiso   1.00
Zn789  Zn    0.16667   0.21771   0.75000   0.00000  Uiso   1.00
Zn790  Zn    0.16667   0.11563   0.75000   0.00000  Uiso   1.00
O791   O     0.12057   0.05250   0.54538   0.00000  Uiso   1.00
C792   C     0.07644   0.05257   0.54693   0.00000  Uiso   1.00
H793   H     0.06573   0.02269   0.56640   0.00000  Uiso   1.00
H794   H     0.06275   0.04963   0.51290   0.00000  Uiso   1.00
H795   H     0.06446   0.08340   0.56412   0.00000  Uiso   1.00
O796   O     0.21109   0.28130   0.95444   0.00000  Uiso   1.00
C797   C     0.18193   0.31694   0.95577   0.00000  Uiso   1.00
H798   H     0.17758   0.32983   0.99037   0.00000  Uiso   1.00
H799   H     0.15126   0.30642   0.94128   0.00000  Uiso   1.00
H800   H     0.19423   0.01207   0.93529   0.00000  Uiso   1.00
O801   O     0.04284   0.11372   0.81211   0.00000  Uiso   1.00
C802   C     0.04102   0.06739   0.80037   0.00000  Uiso   1.00
H803   H     0.06318   0.04862   0.82187   0.00000  Uiso   1.00
H804   H     0.05062   0.06149   0.76506   0.00000  Uiso   1.00
H805   H     0.00924   0.05302   0.80632   0.00000  Uiso   1.00
O806   O     0.29050   0.21955   0.68782   0.00000  Uiso   1.00
C807   C     0.29242   0.26589   0.69951   0.00000  Uiso   1.00
H808   H     0.28279   0.27184   0.73480   0.00000  Uiso   1.00
H809   H     0.27033   0.28470   0.67797   0.00000  Uiso   1.00
H810   H     0.32424   0.28017   0.69358   0.00000  Uiso   1.00
O811   O     0.28899   0.11634   0.81366   0.00000  Uiso   1.00
C812   C     0.28328   0.14386   0.85169   0.00000  Uiso   1.00
H813   H     0.26462   0.12457   0.87663   0.00000  Uiso   1.00
H814   H     0.26554   0.17513   0.84360   0.00000  Uiso   1.00
H815   H     0.31382   0.15283   0.86733   0.00000  Uiso   1.00
O816   O     0.04435   0.21667   0.68607   0.00000  Uiso   1.00
C817   C     0.04995   0.18896   0.64815   0.00000  Uiso   1.00
H818   H     0.06766   0.15769   0.65634   0.00000  Uiso   1.00
H819   H     0.06858   0.20810   0.62308   0.00000  Uiso   1.00
H820   H     0.01937   0.17996   0.63262   0.00000  Uiso   1.00
C821   C     0.42008   0.16645   0.75027   0.00000  Uiso   1.00
C822   C     0.57992   0.16688   0.74970   0.00000  Uiso   1.00
C823   C     0.46729   0.09093   0.52297   0.00000  Uiso   1.00
C824   C     0.52772   0.24446   0.97703   0.00000  Uiso   1.00
C825   C     0.35451   0.13857   0.78057   0.00000  Uiso   1.00
C826   C     0.64550   0.19469   0.71935   0.00000  Uiso   1.00
C827   C     0.64459   0.14090   0.78205   0.00000  Uiso   1.00
C828   C     0.35542   0.19230   0.71783   0.00000  Uiso   1.00
C829   C     0.62404   0.16747   0.75028   0.00000  Uiso   1.00
C830   C     0.37597   0.16582   0.74966   0.00000  Uiso   1.00
C831   C     0.52658   0.02422   0.77707   0.00000  Uiso   1.00
C832   C     0.47340   0.30911   0.72295   0.00000  Uiso   1.00
C833   C     0.47340   0.02376   0.72295   0.00000  Uiso   1.00
C834   C     0.52659   0.30957   0.77706   0.00000  Uiso   1.00
C835   C     0.49990   0.16666   0.66333   0.00000  Uiso   1.00
C836   C     0.50000   0.16669   0.83667   0.00000  Uiso   1.00
C837   C     0.51392   0.20519   0.90730   0.00000  Uiso   1.00
C838   C     0.48404   0.12883   0.59275   0.00000  Uiso   1.00
C839   C     0.49964   0.16683   0.88453   0.00000  Uiso   1.00
C840   C     0.49929   0.16678   0.61549   0.00000  Uiso   1.00
C841   C     0.48458   0.12885   0.90730   0.00000  Uiso   1.00
C842   C     0.51357   0.20509   0.59269   0.00000  Uiso   1.00
C843   C     0.48350   0.12901   0.95345   0.00000  Uiso   1.00
C844   C     0.51310   0.20563   0.54656   0.00000  Uiso   1.00
C845   C     0.49810   0.16755   0.97678   0.00000  Uiso   1.00
C846   C     0.49786   0.16738   0.52324   0.00000  Uiso   1.00
C847   C     0.51340   0.20602   0.95359   0.00000  Uiso   1.00
C848   C     0.48297   0.12873   0.54645   0.00000  Uiso   1.00
C849   C     0.46815   0.09116   0.97643   0.00000  Uiso   1.00
C850   C     0.52806   0.24367   0.52359   0.00000  Uiso   1.00
H851   H     0.52571   0.23418   0.88880   0.00000  Uiso   1.00
H852   H     0.47260   0.09972   0.61129   0.00000  Uiso   1.00
H853   H     0.47324   0.09943   0.88909   0.00000  Uiso   1.00
H854   H     0.52554   0.23424   0.61086   0.00000  Uiso   1.00
H855   H     0.45696   0.06165   0.95835   0.00000  Uiso   1.00
H856   H     0.54034   0.27268   0.54171   0.00000  Uiso   1.00
H857   H     0.54783   0.04261   0.79870   0.00000  Uiso   1.00
H858   H     0.45215   0.29072   0.70132   0.00000  Uiso   1.00
H859   H     0.45214   0.04178   0.70134   0.00000  Uiso   1.00
H860   H     0.54784   0.29156   0.79868   0.00000  Uiso   1.00
N861   N     0.50000   0.28573   0.75000   0.00000  Uiso   1.00
N862   N     0.50000   0.04760   0.75000   0.00000  Uiso   1.00
O863   O     0.43892   0.20487   0.75000   0.00000  Uiso   1.00
O864   O     0.56108   0.12846   0.75001   0.00000  Uiso   1.00
O865   O     0.56108   0.20487   0.75001   0.00000  Uiso   1.00
O866   O     0.43892   0.12846   0.75000   0.00000  Uiso   1.00
O867   O     0.49999   0.20489   0.68393   0.00000  Uiso   1.00
O868   O     0.50001   0.12844   0.81608   0.00000  Uiso   1.00
O869   O     0.50001   0.20489   0.81608   0.00000  Uiso   1.00
O870   O     0.49999   0.12844   0.68393   0.00000  Uiso   1.00
Zn871  Zn    0.50000   0.21771   0.75000   0.00000  Uiso   1.00
Zn872  Zn    0.50000   0.11563   0.75000   0.00000  Uiso   1.00
O873   O     0.45390   0.05250   0.54538   0.00000  Uiso   1.00
C874   C     0.40977   0.05257   0.54693   0.00000  Uiso   1.00
H875   H     0.39906   0.02269   0.56640   0.00000  Uiso   1.00
H876   H     0.39609   0.04963   0.51290   0.00000  Uiso   1.00
H877   H     0.39779   0.08340   0.56412   0.00000  Uiso   1.00
O878   O     0.54442   0.28130   0.95444   0.00000  Uiso   1.00
C879   C     0.51526   0.31694   0.95577   0.00000  Uiso   1.00
H880   H     0.51092   0.32983   0.99037   0.00000  Uiso   1.00
H881   H     0.48460   0.30642   0.94128   0.00000  Uiso   1.00
H882   H     0.52756   0.01207   0.93529   0.00000  Uiso   1.00
O883   O     0.37618   0.11372   0.81211   0.00000  Uiso   1.00
C884   C     0.37435   0.06739   0.80037   0.00000  Uiso   1.00
H885   H     0.39651   0.04862   0.82187   0.00000  Uiso   1.00
H886   H     0.38396   0.06149   0.76506   0.00000  Uiso   1.00
H887   H     0.34257   0.05302   0.80632   0.00000  Uiso   1.00
O888   O     0.62383   0.21955   0.68782   0.00000  Uiso   1.00
C889   C     0.62576   0.26589   0.69951   0.00000  Uiso   1.00
H890   H     0.61613   0.27184   0.73480   0.00000  Uiso   1.00
H891   H     0.60366   0.28470   0.67797   0.00000  Uiso   1.00
H892   H     0.65757   0.28017   0.69358   0.00000  Uiso   1.00
O893   O     0.62233   0.11634   0.81366   0.00000  Uiso   1.00
C894   C     0.61662   0.14386   0.85169   0.00000  Uiso   1.00
H895   H     0.59795   0.12457   0.87663   0.00000  Uiso   1.00
H896   H     0.59887   0.17513   0.84360   0.00000  Uiso   1.00
H897   H     0.64716   0.15283   0.86733   0.00000  Uiso   1.00
O898   O     0.37768   0.21667   0.68607   0.00000  Uiso   1.00
C899   C     0.38328   0.18896   0.64815   0.00000  Uiso   1.00
H900   H     0.40100   0.15769   0.65634   0.00000  Uiso   1.00
H901   H     0.40192   0.20810   0.62308   0.00000  Uiso   1.00
H902   H     0.35270   0.17996   0.63262   0.00000  Uiso   1.00
C903   C     0.75341   0.16645   0.75027   0.00000  Uiso   1.00
C904   C     0.91325   0.16688   0.74970   0.00000  Uiso   1.00
C905   C     0.80062   0.09093   0.52297   0.00000  Uiso   1.00
C906   C     0.86106   0.24446   0.97703   0.00000  Uiso   1.00
C907   C     0.68785   0.13857   0.78057   0.00000  Uiso   1.00
C908   C     0.97883   0.19469   0.71935   0.00000  Uiso   1.00
C909   C     0.97792   0.14090   0.78205   0.00000  Uiso   1.00
C910   C     0.68875   0.19230   0.71783   0.00000  Uiso   1.00
C911   C     0.95737   0.16747   0.75028   0.00000  Uiso   1.00
C912   C     0.70930   0.16582   0.74966   0.00000  Uiso   1.00
C913   C     0.85992   0.02422   0.77707   0.00000  Uiso   1.00
C914   C     0.80674   0.30911   0.72295   0.00000  Uiso   1.00
C915   C     0.80673   0.02376   0.72295   0.00000  Uiso   1.00
C916   C     0.85992   0.30957   0.77706   0.00000  Uiso   1.00
C917   C     0.83324   0.16666   0.66333   0.00000  Uiso   1.00
C918   C     0.83333   0.16669   0.83667   0.00000  Uiso   1.00
C919   C     0.84726   0.20519   0.90730   0.00000  Uiso   1.00
C920   C     0.81737   0.12883   0.59275   0.00000  Uiso   1.00
C921   C     0.83297   0.16683   0.88453   0.00000  Uiso   1.00
C922   C     0.83262   0.16678   0.61549   0.00000  Uiso   1.00
C923   C     0.81791   0.12885   0.90730   0.00000  Uiso   1.00
C924   C     0.84690   0.20509   0.59269   0.00000  Uiso   1.00
C925   C     0.81683   0.12901   0.95345   0.00000  Uiso   1.00
C926   C     0.84644   0.20563   0.54656   0.00000  Uiso   1.00
C927   C     0.83143   0.16755   0.97678   0.00000  Uiso   1.00
C928   C     0.83120   0.16738   0.52324   0.00000  Uiso   1.00
C929   C     0.84673   0.20602   0.95359   0.00000  Uiso   1.00
C930   C     0.81631   0.12873   0.54645   0.00000  Uiso   1.00
C931   C     0.80148   0.09116   0.97643   0.00000  Uiso   1.00
C932   C     0.86140   0.24367   0.52359   0.00000  Uiso   1.00
H933   H     0.85904   0.23418   0.88880   0.00000  Uiso   1.00
H934   H     0.80594   0.09972   0.61129   0.00000  Uiso   1.00
H935   H     0.80657   0.09943   0.88909   0.00000  Uiso   1.00
H936   H     0.85887   0.23424   0.61086   0.00000  Uiso   1.00
H937   H     0.79029   0.06165   0.95835   0.00000  Uiso   1.00
H938   H     0.87367   0.27268   0.54171   0.00000  Uiso   1.00
H939   H     0.88116   0.04261   0.79870   0.00000  Uiso   1.00
H940   H     0.78548   0.29072   0.70132   0.00000  Uiso   1.00
H941   H     0.78548   0.04178   0.70134   0.00000  Uiso   1.00
H942   H     0.88117   0.29156   0.79868   0.00000  Uiso   1.00
N943   N     0.83333   0.28573   0.75000   0.00000  Uiso   1.00
N944   N     0.83333   0.04760   0.75000   0.00000  Uiso   1.00
O945   O     0.77226   0.20487   0.75000   0.00000  Uiso   1.00
O946   O     0.89441   0.12846   0.75001   0.00000  Uiso   1.00
O947   O     0.89441   0.20487   0.75001   0.00000  Uiso   1.00
O948   O     0.77226   0.12846   0.75000   0.00000  Uiso   1.00
O949   O     0.83333   0.20489   0.68393   0.00000  Uiso   1.00
O950   O     0.83334   0.12844   0.81608   0.00000  Uiso   1.00
O951   O     0.83334   0.20489   0.81608   0.00000  Uiso   1.00
O952   O     0.83333   0.12844   0.68393   0.00000  Uiso   1.00
Zn953  Zn    0.83333   0.21771   0.75000   0.00000  Uiso   1.00
Zn954  Zn    0.83333   0.11563   0.75000   0.00000  Uiso   1.00
O955   O     0.78723   0.05250   0.54538   0.00000  Uiso   1.00
C956   C     0.74311   0.05257   0.54693   0.00000  Uiso   1.00
H957   H     0.73239   0.02269   0.56640   0.00000  Uiso   1.00
H958   H     0.72942   0.04963   0.51290   0.00000  Uiso   1.00
H959   H     0.73113   0.08340   0.56412   0.00000  Uiso   1.00
O960   O     0.87775   0.28130   0.95444   0.00000  Uiso   1.00
C961   C     0.84859   0.31694   0.95577   0.00000  Uiso   1.00
H962   H     0.84425   0.32983   0.99037   0.00000  Uiso   1.00
H963   H     0.81793   0.30642   0.94128   0.00000  Uiso   1.00
H964   H     0.86089   0.01207   0.93529   0.00000  Uiso   1.00
O965   O     0.70951   0.11372   0.81211   0.00000  Uiso   1.00
C966   C     0.70768   0.06739   0.80037   0.00000  Uiso   1.00
H967   H     0.72984   0.04862   0.82187   0.00000  Uiso   1.00
H968   H     0.71729   0.06149   0.76506   0.00000  Uiso   1.00
H969   H     0.67591   0.05302   0.80632   0.00000  Uiso   1.00
O970   O     0.95717   0.21955   0.68782   0.00000  Uiso   1.00
C971   C     0.95909   0.26589   0.69951   0.00000  Uiso   1.00
H972   H     0.94946   0.27184   0.73480   0.00000  Uiso   1.00
H973   H     0.93699   0.28470   0.67797   0.00000  Uiso   1.00
H974   H     0.99090   0.28017   0.69358   0.00000  Uiso   1.00
O975   O     0.95566   0.11634   0.81366   0.00000  Uiso   1.00
C976   C     0.94995   0.14386   0.85169   0.00000  Uiso   1.00
H977   H     0.93129   0.12457   0.87663   0.00000  Uiso   1.00
H978   H     0.93220   0.17513   0.84360   0.00000  Uiso   1.00
H979   H     0.98049   0.15283   0.86733   0.00000  Uiso   1.00
O980   O     0.71101   0.21667   0.68607   0.00000  Uiso   1.00
C981   C     0.71661   0.18896   0.64815   0.00000  Uiso   1.00
H982   H     0.73433   0.15769   0.65634   0.00000  Uiso   1.00
H983   H     0.73525   0.20810   0.62308   0.00000  Uiso   1.00
H984   H     0.68604   0.17996   0.63262   0.00000  Uiso   1.00
C985   C     0.08675   0.49978   0.75027   0.00000  Uiso   1.00
C986   C     0.24659   0.50021   0.74970   0.00000  Uiso   1.00
C987   C     0.13395   0.42426   0.52297   0.00000  Uiso   1.00
C988   C     0.19439   0.57780   0.97703   0.00000  Uiso   1.00
C989   C     0.02118   0.47190   0.78057   0.00000  Uiso   1.00
C990   C     0.31216   0.52803   0.71935   0.00000  Uiso   1.00
C991   C     0.31126   0.47424   0.78205   0.00000  Uiso   1.00
C992   C     0.02208   0.52563   0.71783   0.00000  Uiso   1.00
C993   C     0.29070   0.50080   0.75028   0.00000  Uiso   1.00
C994   C     0.04263   0.49915   0.74966   0.00000  Uiso   1.00
C995   C     0.19325   0.35756   0.77707   0.00000  Uiso   1.00
C996   C     0.14007   0.64244   0.72295   0.00000  Uiso   1.00
C997   C     0.14007   0.35709   0.72295   0.00000  Uiso   1.00
C998   C     0.19326   0.64291   0.77706   0.00000  Uiso   1.00
C999   C     0.16657   0.50000   0.66333   0.00000  Uiso   1.00
C1000  C     0.16667   0.50003   0.83667   0.00000  Uiso   1.00
C1001  C     0.18059   0.53853   0.90730   0.00000  Uiso   1.00
C1002  C     0.15070   0.46217   0.59275   0.00000  Uiso   1.00
C1003  C     0.16631   0.50016   0.88453   0.00000  Uiso   1.00
C1004  C     0.16595   0.50011   0.61549   0.00000  Uiso   1.00
C1005  C     0.15125   0.46219   0.90730   0.00000  Uiso   1.00
C1006  C     0.18023   0.53842   0.59269   0.00000  Uiso   1.00
C1007  C     0.15016   0.46234   0.95345   0.00000  Uiso   1.00
C1008  C     0.17977   0.53897   0.54656   0.00000  Uiso   1.00
C1009  C     0.16476   0.50089   0.97678   0.00000  Uiso   1.00
C1010  C     0.16453   0.50071   0.52324   0.00000  Uiso   1.00
C1011  C     0.18007   0.53935   0.95359   0.00000  Uiso   1.00
C1012  C     0.14964   0.46206   0.54645   0.00000  Uiso   1.00
C1013  C     0.13481   0.42450   0.97643   0.00000  Uiso   1.00
C1014  C     0.19473   0.57701   0.52359   0.00000  Uiso   1.00
H1015  H     0.19237   0.56751   0.88880   0.00000  Uiso   1.00
H1016  H     0.13927   0.43305   0.61129   0.00000  Uiso   1.00
H1017  H     0.13990   0.43276   0.88909   0.00000  Uiso   1.00
H1018  H     0.19221   0.56758   0.61086   0.00000  Uiso   1.00
H1019  H     0.12363   0.39498   0.95835   0.00000  Uiso   1.00
H1020  H     0.20700   0.60601   0.54171   0.00000  Uiso   1.00
H1021  H     0.21449   0.37594   0.79870   0.00000  Uiso   1.00
H1022  H     0.11882   0.62406   0.70132   0.00000  Uiso   1.00
H1023  H     0.11881   0.37511   0.70134   0.00000  Uiso   1.00
H1024  H     0.21450   0.62489   0.79868   0.00000  Uiso   1.00
N1025  N     0.16667   0.61907   0.75000   0.00000  Uiso   1.00
N1026  N     0.16667   0.38093   0.75000   0.00000  Uiso   1.00
O1027  O     0.10559   0.53821   0.75000   0.00000  Uiso   1.00
O1028  O     0.22774   0.46179   0.75001   0.00000  Uiso   1.00
O1029  O     0.22774   0.53821   0.75001   0.00000  Uiso   1.00
O1030  O     0.10559   0.46179   0.75000   0.00000  Uiso   1.00
O1031  O     0.16666   0.53823   0.68393   0.00000  Uiso   1.00
O1032  O     0.16667   0.46177   0.81608   0.00000  Uiso   1.00
O1033  O     0.16667   0.53823   0.81608   0.00000  Uiso   1.00
O1034  O     0.16666   0.46177   0.68393   0.00000  Uiso   1.00
Zn1035 Zn    0.16667   0.55104   0.75000   0.00000  Uiso   1.00
Zn1036 Zn    0.16667   0.44896   0.75000   0.00000  Uiso   1.00
O1037  O     0.12057   0.38583   0.54538   0.00000  Uiso   1.00
C1038  C     0.07644   0.38590   0.54693   0.00000  Uiso   1.00
H1039  H     0.06573   0.35602   0.56640   0.00000  Uiso   1.00
H1040  H     0.06275   0.38297   0.51290   0.00000  Uiso   1.00
H1041  H     0.06446   0.41673   0.56412   0.00000  Uiso   1.00
O1042  O     0.21109   0.61463   0.95444   0.00000  Uiso   1.00
C1043  C     0.18193   0.65028   0.95577   0.00000  Uiso   1.00
H1044  H     0.17758   0.66316   0.99037   0.00000  Uiso   1.00
H1045  H     0.15126   0.63975   0.94128   0.00000  Uiso   1.00
H1046  H     0.19423   0.34540   0.93529   0.00000  Uiso   1.00
O1047  O     0.04284   0.44705   0.81211   0.00000  Uiso   1.00
C1048  C     0.04102   0.40072   0.80037   0.00000  Uiso   1.00
H1049  H     0.06318   0.38195   0.82187   0.00000  Uiso   1.00
H1050  H     0.05062   0.39482   0.76506   0.00000  Uiso   1.00
H1051  H     0.00924   0.38635   0.80632   0.00000  Uiso   1.00
O1052  O     0.29050   0.55289   0.68782   0.00000  Uiso   1.00
C1053  C     0.29242   0.59923   0.69951   0.00000  Uiso   1.00
H1054  H     0.28279   0.60518   0.73480   0.00000  Uiso   1.00
H1055  H     0.27033   0.61803   0.67797   0.00000  Uiso   1.00
H1056  H     0.32424   0.61351   0.69358   0.00000  Uiso   1.00
O1057  O     0.28899   0.44967   0.81366   0.00000  Uiso   1.00
C1058  C     0.28328   0.47719   0.85169   0.00000  Uiso   1.00
H1059  H     0.26462   0.45790   0.87663   0.00000  Uiso   1.00
H1060  H     0.26554   0.50847   0.84360   0.00000  Uiso   1.00
H1061  H     0.31382   0.48616   0.86733   0.00000  Uiso   1.00
O1062  O     0.04435   0.55000   0.68607   0.00000  Uiso   1.00
C1063  C     0.04995   0.52229   0.64815   0.00000  Uiso   1.00
H1064  H     0.06766   0.49103   0.65634   0.00000  Uiso   1.00
H1065  H     0.06858   0.54143   0.62308   0.00000  Uiso   1.00
H1066  H     0.01937   0.51329   0.63262   0.00000  Uiso   1.00
C1067  C     0.42008   0.49978   0.75027   0.00000  Uiso   1.00
C1068  C     0.57992   0.50021   0.74970   0.00000  Uiso   1.00
C1069  C     0.46729   0.42426   0.52297   0.00000  Uiso   1.00
C1070  C     0.52772   0.57780   0.97703   0.00000  Uiso   1.00
C1071  C     0.35451   0.47190   0.78057   0.00000  Uiso   1.00
C1072  C     0.64550   0.52803   0.71935   0.00000  Uiso   1.00
C1073  C     0.64459   0.47424   0.78205   0.00000  Uiso   1.00
C1074  C     0.35542   0.52563   0.71783   0.00000  Uiso   1.00
C1075  C     0.62404   0.50080   0.75028   0.00000  Uiso   1.00
C1076  C     0.37597   0.49915   0.74966   0.00000  Uiso   1.00
C1077  C     0.52658   0.35756   0.77707   0.00000  Uiso   1.00
C1078  C     0.47340   0.64244   0.72295   0.00000  Uiso   1.00
C1079  C     0.47340   0.35709   0.72295   0.00000  Uiso   1.00
C1080  C     0.52659   0.64291   0.77706   0.00000  Uiso   1.00
C1081  C     0.49990   0.50000   0.66333   0.00000  Uiso   1.00
C1082  C     0.50000   0.50003   0.83667   0.00000  Uiso   1.00
C1083  C     0.51392   0.53853   0.90730   0.00000  Uiso   1.00
C1084  C     0.48404   0.46217   0.59275   0.00000  Uiso   1.00
C1085  C     0.49964   0.50016   0.88453   0.00000  Uiso   1.00
C1086  C     0.49929   0.50011   0.61549   0.00000  Uiso   1.00
C1087  C     0.48458   0.46219   0.90730   0.00000  Uiso   1.00
C1088  C     0.51357   0.53842   0.59269   0.00000  Uiso   1.00
C1089  C     0.48350   0.46234   0.95345   0.00000  Uiso   1.00
C1090  C     0.51310   0.53897   0.54656   0.00000  Uiso   1.00
C1091  C     0.49810   0.50089   0.97678   0.00000  Uiso   1.00
C1092  C     0.49786   0.50071   0.52324   0.00000  Uiso   1.00
C1093  C     0.51340   0.53935   0.95359   0.00000  Uiso   1.00
C1094  C     0.48297   0.46206   0.54645   0.00000  Uiso   1.00
C1095  C     0.46815   0.42450   0.97643   0.00000  Uiso   1.00
C1096  C     0.52806   0.57701   0.52359   0.00000  Uiso   1.00
H1097  H     0.52571   0.56751   0.88880   0.00000  Uiso   1.00
H1098  H     0.47260   0.43305   0.61129   0.00000  Uiso   1.00
H1099  H     0.47324   0.43276   0.88909   0.00000  Uiso   1.00
H1100  H     0.52554   0.56758   0.61086   0.00000  Uiso   1.00
H1101  H     0.45696   0.39498   0.95835   0.00000  Uiso   1.00
H1102  H     0.54034   0.60601   0.54171   0.00000  Uiso   1.00
H1103  H     0.54783   0.37594   0.79870   0.00000  Uiso   1.00
H1104  H     0.45215   0.62406   0.70132   0.00000  Uiso   1.00
H1105  H     0.45214   0.37511   0.70134   0.00000  Uiso   1.00
H1106  H     0.54784   0.62489   0.79868   0.00000  Uiso   1.00
N1107  N     0.50000   0.61907   0.75000   0.00000  Uiso   1.00
N1108  N     0.50000   0.38093   0.75000   0.00000  Uiso   1.00
O1109  O     0.43892   0.53821   0.75000   0.00000  Uiso   1.00
O1110  O     0.56108   0.46179   0.75001   0.00000  Uiso   1.00
O1111  O     0.56108   0.53821   0.75001   0.00000  Uiso   1.00
O1112  O     0.43892   0.46179   0.75000   0.00000  Uiso   1.00
O1113  O     0.49999   0.53823   0.68393   0.00000  Uiso   1.00
O1114  O     0.50001   0.46177   0.81608   0.00000  Uiso   1.00
O1115  O     0.50001   0.53823   0.81608   0.00000  Uiso   1.00
O1116  O     0.49999   0.46177   0.68393   0.00000  Uiso   1.00
Zn1117 Zn    0.50000   0.55104   0.75000   0.00000  Uiso   1.00
Zn1118 Zn    0.50000   0.44896   0.75000   0.00000  Uiso   1.00
O1119  O     0.45390   0.38583   0.54538   0.00000  Uiso   1.00
C1120  C     0.40977   0.38590   0.54693   0.00000  Uiso   1.00
H1121  H     0.39906   0.35602   0.56640   0.00000  Uiso   1.00
H1122  H     0.39609   0.38297   0.51290   0.00000  Uiso   1.00
H1123  H     0.39779   0.41673   0.56412   0.00000  Uiso   1.00
O1124  O     0.54442   0.61463   0.95444   0.00000  Uiso   1.00
C1125  C     0.51526   0.65028   0.95577   0.00000  Uiso   1.00
H1126  H     0.51092   0.66316   0.99037   0.00000  Uiso   1.00
H1127  H     0.48460   0.63975   0.94128   0.00000  Uiso   1.00
H1128  H     0.52756   0.34540   0.93529   0.00000  Uiso   1.00
O1129  O     0.37618   0.44705   0.81211   0.00000  Uiso   1.00
C1130  C     0.37435   0.40072   0.80037   0.00000  Uiso   1.00
H1131  H     0.39651   0.38195   0.82187   0.00000  Uiso   1.00
H1132  H     0.38396   0.39482   0.76506   0.00000  Uiso   1.00
H1133  H     0.34257   0.38635   0.80632   0.00000  Uiso   1.00
O1134  O     0.62383   0.55289   0.68782   0.00000  Uiso   1.00
C1135  C     0.62576   0.59923   0.69951   0.00000  Uiso   1.00
H1136  H     0.61613   0.60518   0.73480   0.00000  Uiso   1.00
H1137  H     0.60366   0.61803   0.67797   0.00000  Uiso   1.00
H1138  H     0.65757   0.61351   0.69358   0.00000  Uiso   1.00
O1139  O     0.62233   0.44967   0.81366   0.00000  Uiso   1.00
C1140  C     0.61662   0.47719   0.85169   0.00000  Uiso   1.00
H1141  H     0.59795   0.45790   0.87663   0.00000  Uiso   1.00
H1142  H     0.59887   0.50847   0.84360   0.00000  Uiso   1.00
H1143  H     0.64716   0.48616   0.86733   0.00000  Uiso   1.00
O1144  O     0.37768   0.55000   0.68607   0.00000  Uiso   1.00
C1145  C     0.38328   0.52229   0.64815   0.00000  Uiso   1.00
H1146  H     0.40100   0.49103   0.65634   0.00000  Uiso   1.00
H1147  H     0.40192   0.54143   0.62308   0.00000  Uiso   1.00
H1148  H     0.35270   0.51329   0.63262   0.00000  Uiso   1.00
C1149  C     0.75341   0.49978   0.75027   0.00000  Uiso   1.00
C1150  C     0.91325   0.50021   0.74970   0.00000  Uiso   1.00
C1151  C     0.80062   0.42426   0.52297   0.00000  Uiso   1.00
C1152  C     0.86106   0.57780   0.97703   0.00000  Uiso   1.00
C1153  C     0.68785   0.47190   0.78057   0.00000  Uiso   1.00
C1154  C     0.97883   0.52803   0.71935   0.00000  Uiso   1.00
C1155  C     0.97792   0.47424   0.78205   0.00000  Uiso   1.00
C1156  C     0.68875   0.52563   0.71783   0.00000  Uiso   1.00
C1157  C     0.95737   0.50080   0.75028   0.00000  Uiso   1.00
C1158  C     0.70930   0.49915   0.74966   0.00000  Uiso   1.00
C1159  C     0.85992   0.35756   0.77707   0.00000  Uiso   1.00
C1160  C     0.80674   0.64244   0.72295   0.00000  Uiso   1.00
C1161  C     0.80673   0.35709   0.72295   0.00000  Uiso   1.00
C1162  C     0.85992   0.64291   0.77706   0.00000  Uiso   1.00
C1163  C     0.83324   0.50000   0.66333   0.00000  Uiso   1.00
C1164  C     0.83333   0.50003   0.83667   0.00000  Uiso   1.00
C1165  C     0.84726   0.53853   0.90730   0.00000  Uiso   1.00
C1166  C     0.81737   0.46217   0.59275   0.00000  Uiso   1.00
C1167  C     0.83297   0.50016   0.88453   0.00000  Uiso   1.00
C1168  C     0.83262   0.50011   0.61549   0.00000  Uiso   1.00
C1169  C     0.81791   0.46219   0.90730   0.00000  Uiso   1.00
C1170  C     0.84690   0.53842   0.59269   0.00000  Uiso   1.00
C1171  C     0.81683   0.46234   0.95345   0.00000  Uiso   1.00
C1172  C     0.84644   0.53897   0.54656   0.00000  Uiso   1.00
C1173  C     0.83143   0.50089   0.97678   0.00000  Uiso   1.00
C1174  C     0.83120   0.50071   0.52324   0.00000  Uiso   1.00
C1175  C     0.84673   0.53935   0.95359   0.00000  Uiso   1.00
C1176  C     0.81631   0.46206   0.54645   0.00000  Uiso   1.00
C1177  C     0.80148   0.42450   0.97643   0.00000  Uiso   1.00
C1178  C     0.86140   0.57701   0.52359   0.00000  Uiso   1.00
H1179  H     0.85904   0.56751   0.88880   0.00000  Uiso   1.00
H1180  H     0.80594   0.43305   0.61129   0.00000  Uiso   1.00
H1181  H     0.80657   0.43276   0.88909   0.00000  Uiso   1.00
H1182  H     0.85887   0.56758   0.61086   0.00000  Uiso   1.00
H1183  H     0.79029   0.39498   0.95835   0.00000  Uiso   1.00
H1184  H     0.87367   0.60601   0.54171   0.00000  Uiso   1.00
H1185  H     0.88116   0.37594   0.79870   0.00000  Uiso   1.00
H1186  H     0.78548   0.62406   0.70132   0.00000  Uiso   1.00
H1187  H     0.78548   0.37511   0.70134   0.00000  Uiso   1.00
H1188  H     0.88117   0.62489   0.79868   0.00000  Uiso   1.00
N1189  N     0.83333   0.61907   0.75000   0.00000  Uiso   1.00
N1190  N     0.83333   0.38093   0.75000   0.00000  Uiso   1.00
O1191  O     0.77226   0.53821   0.75000   0.00000  Uiso   1.00
O1192  O     0.89441   0.46179   0.75001   0.00000  Uiso   1.00
O1193  O     0.89441   0.53821   0.75001   0.00000  Uiso   1.00
O1194  O     0.77226   0.46179   0.75000   0.00000  Uiso   1.00
O1195  O     0.83333   0.53823   0.68393   0.00000  Uiso   1.00
O1196  O     0.83334   0.46177   0.81608   0.00000  Uiso   1.00
O1197  O     0.83334   0.53823   0.81608   0.00000  Uiso   1.00
O1198  O     0.83333   0.46177   0.68393   0.00000  Uiso   1.00
Zn1199 Zn    0.83333   0.55104   0.75000   0.00000  Uiso   1.00
Zn1200 Zn    0.83333   0.44896   0.75000   0.00000  Uiso   1.00
O1201  O     0.78723   0.38583   0.54538   0.00000  Uiso   1.00
C1202  C     0.74311   0.38590   0.54693   0.00000  Uiso   1.00
H1203  H     0.73239   0.35602   0.56640   0.00000  Uiso   1.00
H1204  H     0.72942   0.38297   0.51290   0.00000  Uiso   1.00
H1205  H     0.73113   0.41673   0.56412   0.00000  Uiso   1.00
O1206  O     0.87775   0.61463   0.95444   0.00000  Uiso   1.00
C1207  C     0.84859   0.65028   0.95577   0.00000  Uiso   1.00
H1208  H     0.84425   0.66316   0.99037   0.00000  Uiso   1.00
H1209  H     0.81793   0.63975   0.94128   0.00000  Uiso   1.00
H1210  H     0.86089   0.34540   0.93529   0.00000  Uiso   1.00
O1211  O     0.70951   0.44705   0.81211   0.00000  Uiso   1.00
C1212  C     0.70768   0.40072   0.80037   0.00000  Uiso   1.00
H1213  H     0.72984   0.38195   0.82187   0.00000  Uiso   1.00
H1214  H     0.71729   0.39482   0.76506   0.00000  Uiso   1.00
H1215  H     0.67591   0.38635   0.80632   0.00000  Uiso   1.00
O1216  O     0.95717   0.55289   0.68782   0.00000  Uiso   1.00
C1217  C     0.95909   0.59923   0.69951   0.00000  Uiso   1.00
H1218  H     0.94946   0.60518   0.73480   0.00000  Uiso   1.00
H1219  H     0.93699   0.61803   0.67797   0.00000  Uiso   1.00
H1220  H     0.99090   0.61351   0.69358   0.00000  Uiso   1.00
O1221  O     0.95566   0.44967   0.81366   0.00000  Uiso   1.00
C1222  C     0.94995   0.47719   0.85169   0.00000  Uiso   1.00
H1223  H     0.93129   0.45790   0.87663   0.00000  Uiso   1.00
H1224  H     0.93220   0.50847   0.84360   0.00000  Uiso   1.00
H1225  H     0.98049   0.48616   0.86733   0.00000  Uiso   1.00
O1226  O     0.71101   0.55000   0.68607   0.00000  Uiso   1.00
C1227  C     0.71661   0.52229   0.64815   0.00000  Uiso   1.00
H1228  H     0.73433   0.49103   0.65634   0.00000  Uiso   1.00
H1229  H     0.73525   0.54143   0.62308   0.00000  Uiso   1.00
H1230  H     0.68604   0.51329   0.63262   0.00000  Uiso   1.00
C1231  C     0.08675   0.83312   0.75027   0.00000  Uiso   1.00
C1232  C     0.24659   0.83354   0.74970   0.00000  Uiso   1.00
C1233  C     0.13395   0.75759   0.52297   0.00000  Uiso   1.00
C1234  C     0.19439   0.91113   0.97703   0.00000  Uiso   1.00
C1235  C     0.02118   0.80523   0.78057   0.00000  Uiso   1.00
C1236  C     0.31216   0.86136   0.71935   0.00000  Uiso   1.00
C1237  C     0.31126   0.80757   0.78205   0.00000  Uiso   1.00
C1238  C     0.02208   0.85896   0.71783   0.00000  Uiso   1.00
C1239  C     0.29070   0.83414   0.75028   0.00000  Uiso   1.00
C1240  C     0.04263   0.83248   0.74966   0.00000  Uiso   1.00
C1241  C     0.19325   0.69089   0.77707   0.00000  Uiso   1.00
C1242  C     0.14007   0.97578   0.72295   0.00000  Uiso   1.00
C1243  C     0.14007   0.69043   0.72295   0.00000  Uiso   1.00
C1244  C     0.19326   0.97624   0.77706   0.00000  Uiso   1.00
C1245  C     0.16657   0.83333   0.66333   0.00000  Uiso   1.00
C1246  C     0.16667   0.83336   0.83667   0.00000  Uiso   1.00
C1247  C     0.18059   0.87186   0.90730   0.00000  Uiso   1.00
C1248  C     0.15070   0.79550   0.59275   0.00000  Uiso   1.00
C1249  C     0.16631   0.83350   0.88453   0.00000  Uiso   1.00
C1250  C     0.16595   0.83345   0.61549   0.00000  Uiso   1.00
C1251  C     0.15125   0.79552   0.90730   0.00000  Uiso   1.00
C1252  C     0.18023   0.87175   0.59269   0.00000  Uiso   1.00
C1253  C     0.15016   0.79567   0.95345   0.00000  Uiso   1.00
C1254  C     0.17977   0.87230   0.54656   0.00000  Uiso   1.00
C1255  C     0.16476   0.83422   0.97678   0.00000  Uiso   1.00
C1256  C     0.16453   0.83404   0.52324   0.00000  Uiso   1.00
C1257  C     0.18007   0.87268   0.95359   0.00000  Uiso   1.00
C1258  C     0.14964   0.79539   0.54645   0.00000  Uiso   1.00
C1259  C     0.13481   0.75783   0.97643   0.00000  Uiso   1.00
C1260  C     0.19473   0.91034   0.52359   0.00000  Uiso   1.00
H1261  H     0.19237   0.90084   0.88880   0.00000  Uiso   1.00
H1262  H     0.13927   0.76638   0.61129   0.00000  Uiso   1.00
H1263  H     0.13990   0.76609   0.88909   0.00000  Uiso   1.00
H1264  H     0.19221   0.90091   0.61086   0.00000  Uiso   1.00
H1265  H     0.12363   0.72831   0.95835   0.00000  Uiso   1.00
H1266  H     0.20700   0.93935   0.54171   0.00000  Uiso   1.00
H1267  H     0.21449   0.70928   0.79870   0.00000  Uiso   1.00
H1268  H     0.11882   0.95739   0.70132   0.00000  Uiso   1.00
H1269  H     0.11881   0.70844   0.70134   0.00000  Uiso   1.00
H1270  H     0.21450   0.95822   0.79868   0.00000  Uiso   1.00
N1271  N     0.16667   0.95240   0.75000   0.00000  Uiso   1.00
N1272  N     0.16667   0.71427   0.75000   0.00000  Uiso   1.00
O1273  O     0.10559   0.87154   0.75000   0.00000  Uiso   1.00
O1274  O     0.22774   0.79513   0.75001   0.00000  Uiso   1.00
O1275  O     0.22774   0.87154   0.75001   0.00000  Uiso   1.00
O1276  O     0.10559   0.79513   0.75000   0.00000  Uiso   1.00
O1277  O     0.16666   0.87156   0.68393   0.00000  Uiso   1.00
O1278  O     0.16667   0.79511   0.81608   0.00000  Uiso   1.00
O1279  O     0.16667   0.87156   0.81608   0.00000  Uiso   1.00
O1280  O     0.16666   0.79511   0.68393   0.00000  Uiso   1.00
Zn1281 Zn    0.16667   0.88437   0.75000   0.00000  Uiso   1.00
Zn1282 Zn    0.16667   0.78229   0.75000   0.00000  Uiso   1.00
O1283  O     0.12057   0.71916   0.54538   0.00000  Uiso   1.00
C1284  C     0.07644   0.71924   0.54693   0.00000  Uiso   1.00
H1285  H     0.06573   0.68935   0.56640   0.00000  Uiso   1.00
H1286  H     0.06275   0.71630   0.51290   0.00000  Uiso   1.00
H1287  H     0.06446   0.75006   0.56412   0.00000  Uiso   1.00
O1288  O     0.21109   0.94797   0.95444   0.00000  Uiso   1.00
C1289  C     0.18193   0.98361   0.95577   0.00000  Uiso   1.00
H1290  H     0.17758   0.99650   0.99037   0.00000  Uiso   1.00
H1291  H     0.15126   0.97308   0.94128   0.00000  Uiso   1.00
H1292  H     0.19423   0.67874   0.93529   0.00000  Uiso   1.00
O1293  O     0.04284   0.78038   0.81211   0.00000  Uiso   1.00
C1294  C     0.04102   0.73405   0.80037   0.00000  Uiso   1.00
H1295  H     0.06318   0.71528   0.82187   0.00000  Uiso   1.00
H1296  H     0.05062   0.72816   0.76506   0.00000  Uiso   1.00
H1297  H     0.00924   0.71969   0.80632   0.00000  Uiso   1.00
O1298  O     0.29050   0.88622   0.68782   0.00000  Uiso   1.00
C1299  C     0.29242   0.93256   0.69951   0.00000  Uiso   1.00
H1300  H     0.28279   0.93851   0.73480   0.00000  Uiso   1.00
H1301  H     0.27033   0.95137   0.67797   0.00000  Uiso   1.00
H1302  H     0.32424   0.94684   0.69358   0.00000  Uiso   1.00
O1303  O     0.28899   0.78301   0.81366   0.00000  Uiso   1.00
C1304  C     0.28328   0.81053   0.85169   0.00000  Uiso   1.00
H1305  H     0.26462   0.79124   0.87663   0.00000  Uiso   1.00
H1306  H     0.26554   0.84180   0.84360   0.00000  Uiso   1.00
H1307  H     0.31382   0.81949   0.86733   0.00000  Uiso   1.00
O1308  O     0.04435   0.88334   0.68607   0.00000  Uiso   1.00
C1309  C     0.04995   0.85562   0.64815   0.00000  Uiso   1.00
H1310  H     0.06766   0.82436   0.65634   0.00000  Uiso   1.00
H1311  H     0.06858   0.87477   0.62308   0.00000  Uiso   1.00
H1312  H     0.01937   0.84663   0.63262   0.00000  Uiso   1.00
C1313  C     0.42008   0.83312   0.75027   0.00000  Uiso   1.00
C1314  C     0.57992   0.83354   0.74970   0.00000  Uiso   1.00
C1315  C     0.46729   0.75759   0.52297   0.00000  Uiso   1.00
C1316  C     0.52772   0.91113   0.97703   0.00000  Uiso   1.00
C1317  C     0.35451   0.80523   0.78057   0.00000  Uiso   1.00
C1318  C     0.64550   0.86136   0.71935   0.00000  Uiso   1.00
C1319  C     0.64459   0.80757   0.78205   0.00000  Uiso   1.00
C1320  C     0.35542   0.85896   0.71783   0.00000  Uiso   1.00
C1321  C     0.62404   0.83414   0.75028   0.00000  Uiso   1.00
C1322  C     0.37597   0.83248   0.74966   0.00000  Uiso   1.00
C1323  C     0.52658   0.69089   0.77707   0.00000  Uiso   1.00
C1324  C     0.47340   0.97578   0.72295   0.00000  Uiso   1.00
C1325  C     0.47340   0.69043   0.72295   0.00000  Uiso   1.00
C1326  C     0.52659   0.97624   0.77706   0.00000  Uiso   1.00
C1327  C     0.49990   0.83333   0.66333   0.00000  Uiso   1.00
C1328  C     0.50000   0.83336   0.83667   0.00000  Uiso   1.00
C1329  C     0.51392   0.87186   0.90730   0.00000  Uiso   1.00
C1330  C     0.48404   0.79550   0.59275   0.00000  Uiso   1.00
C1331  C     0.49964   0.83350   0.88453   0.00000  Uiso   1.00
C1332  C     0.49929   0.83345   0.61549   0.00000  Uiso   1.00
C1333  C     0.48458   0.79552   0.90730   0.00000  Uiso   1.00
C1334  C     0.51357   0.87175   0.59269   0.00000  Uiso   1.00
C1335  C     0.48350   0.79567   0.95345   0.00000  Uiso   1.00
C1336  C     0.51310   0.87230   0.54656   0.00000  Uiso   1.00
C1337  C     0.49810   0.83422   0.97678   0.00000  Uiso   1.00
C1338  C     0.49786   0.83404   0.52324   0.00000  Uiso   1.00
C1339  C     0.51340   0.87268   0.95359   0.00000  Uiso   1.00
C1340  C     0.48297   0.79539   0.54645   0.00000  Uiso   1.00
C1341  C     0.46815   0.75783   0.97643   0.00000  Uiso   1.00
C1342  C     0.52806   0.91034   0.52359   0.00000  Uiso   1.00
H1343  H     0.52571   0.90084   0.88880   0.00000  Uiso   1.00
H1344  H     0.47260   0.76638   0.61129   0.00000  Uiso   1.00
H1345  H     0.47324   0.76609   0.88909   0.00000  Uiso   1.00
H1346  H     0.52554   0.90091   0.61086   0.00000  Uiso   1.00
H1347  H     0.45696   0.72831   0.95835   0.00000  Uiso   1.00
H1348  H     0.54034   0.93935   0.54171   0.00000  Uiso   1.00
H1349  H     0.54783   0.70928   0.79870   0.00000  Uiso   1.00
H1350  H     0.45215   0.95739   0.70132   0.00000  Uiso   1.00
H1351  H     0.45214   0.70844   0.70134   0.00000  Uiso   1.00
H1352  H     0.54784   0.95822   0.79868   0.00000  Uiso   1.00
N1353  N     0.50000   0.95240   0.75000   0.00000  Uiso   1.00
N1354  N     0.50000   0.71427   0.75000   0.00000  Uiso   1.00
O1355  O     0.43892   0.87154   0.75000   0.00000  Uiso   1.00
O1356  O     0.56108   0.79513   0.75001   0.00000  Uiso   1.00
O1357  O     0.56108   0.87154   0.75001   0.00000  Uiso   1.00
O1358  O     0.43892   0.79513   0.75000   0.00000  Uiso   1.00
O1359  O     0.49999   0.87156   0.68393   0.00000  Uiso   1.00
O1360  O     0.50001   0.79511   0.81608   0.00000  Uiso   1.00
O1361  O     0.50001   0.87156   0.81608   0.00000  Uiso   1.00
O1362  O     0.49999   0.79511   0.68393   0.00000  Uiso   1.00
Zn1363 Zn    0.50000   0.88437   0.75000   0.00000  Uiso   1.00
Zn1364 Zn    0.50000   0.78229   0.75000   0.00000  Uiso   1.00
O1365  O     0.45390   0.71916   0.54538   0.00000  Uiso   1.00
C1366  C     0.40977   0.71924   0.54693   0.00000  Uiso   1.00
H1367  H     0.39906   0.68935   0.56640   0.00000  Uiso   1.00
H1368  H     0.39609   0.71630   0.51290   0.00000  Uiso   1.00
H1369  H     0.39779   0.75006   0.56412   0.00000  Uiso   1.00
O1370  O     0.54442   0.94797   0.95444   0.00000  Uiso   1.00
C1371  C     0.51526   0.98361   0.95577   0.00000  Uiso   1.00
H1372  H     0.51092   0.99650   0.99037   0.00000  Uiso   1.00
H1373  H     0.48460   0.97308   0.94128   0.00000  Uiso   1.00
H1374  H     0.52756   0.67874   0.93529   0.00000  Uiso   1.00
O1375  O     0.37618   0.78038   0.81211   0.00000  Uiso   1.00
C1376  C     0.37435   0.73405   0.80037   0.00000  Uiso   1.00
H1377  H     0.39651   0.71528   0.82187   0.00000  Uiso   1.00
H1378  H     0.38396   0.72816   0.76506   0.00000  Uiso   1.00
H1379  H     0.34257   0.71969   0.80632   0.00000  Uiso   1.00
O1380  O     0.62383   0.88622   0.68782   0.00000  Uiso   1.00
C1381  C     0.62576   0.93256   0.69951   0.00000  Uiso   1.00
H1382  H     0.61613   0.93851   0.73480   0.00000  Uiso   1.00
H1383  H     0.60366   0.95137   0.67797   0.00000  Uiso   1.00
H1384  H     0.65757   0.94684   0.69358   0.00000  Uiso   1.00
O1385  O     0.62233   0.78301   0.81366   0.00000  Uiso   1.00
C1386  C     0.61662   0.81053   0.85169   0.00000  Uiso   1.00
H1387  H     0.59795   0.79124   0.87663   0.00000  Uiso   1.00
H1388  H     0.59887   0.84180   0.84360   0.00000  Uiso   1.00
H1389  H     0.64716   0.81949   0.86733   0.00000  Uiso   1.00
O1390  O     0.37768   0.88334   0.68607   0.00000  Uiso   1.00
C1391  C     0.38328   0.85562   0.64815   0.00000  Uiso   1.00
H1392  H     0.40100   0.82436   0.65634   0.00000  Uiso   1.00
H1393  H     0.40192   0.87477   0.62308   0.00000  Uiso   1.00
H1394  H     0.35270   0.84663   0.63262   0.00000  Uiso   1.00
C1395  C     0.75341   0.83312   0.75027   0.00000  Uiso   1.00
C1396  C     0.91325   0.83354   0.74970   0.00000  Uiso   1.00
C1397  C     0.80062   0.75759   0.52297   0.00000  Uiso   1.00
C1398  C     0.86106   0.91113   0.97703   0.00000  Uiso   1.00
C1399  C     0.68785   0.80523   0.78057   0.00000  Uiso   1.00
C1400  C     0.97883   0.86136   0.71935   0.00000  Uiso   1.00
C1401  C     0.97792   0.80757   0.78205   0.00000  Uiso   1.00
C1402  C     0.68875   0.85896   0.71783   0.00000  Uiso   1.00
C1403  C     0.95737   0.83414   0.75028   0.00000  Uiso   1.00
C1404  C     0.70930   0.83248   0.74966   0.00000  Uiso   1.00
C1405  C     0.85992   0.69089   0.77707   0.00000  Uiso   1.00
C1406  C     0.80674   0.97578   0.72295   0.00000  Uiso   1.00
C1407  C     0.80673   0.69043   0.72295   0.00000  Uiso   1.00
C1408  C     0.85992   0.97624   0.77706   0.00000  Uiso   1.00
C1409  C     0.83324   0.83333   0.66333   0.00000  Uiso   1.00
C1410  C     0.83333   0.83336   0.83667   0.00000  Uiso   1.00
C1411  C     0.84726   0.87186   0.90730   0.00000  Uiso   1.00
C1412  C     0.81737   0.79550   0.59275   0.00000  Uiso   1.00
C1413  C     0.83297   0.83350   0.88453   0.00000  Uiso   1.00
C1414  C     0.83262   0.83345   0.61549   0.00000  Uiso   1.00
C1415  C     0.81791   0.79552   0.90730   0.00000  Uiso   1.00
C1416  C     0.84690   0.87175   0.59269   0.00000  Uiso   1.00
C1417  C     0.81683   0.79567   0.95345   0.00000  Uiso   1.00
C1418  C     0.84644   0.87230   0.54656   0.00000  Uiso   1.00
C1419  C     0.83143   0.83422   0.97678   0.00000  Uiso   1.00
C1420  C     0.83120   0.83404   0.52324   0.00000  Uiso   1.00
C1421  C     0.84673   0.87268   0.95359   0.00000  Uiso   1.00
C1422  C     0.81631   0.79539   0.54645   0.00000  Uiso   1.00
C1423  C     0.80148   0.75783   0.97643   0.00000  Uiso   1.00
C1424  C     0.86140   0.91034   0.52359   0.00000  Uiso   1.00
H1425  H     0.85904   0.90084   0.88880   0.00000  Uiso   1.00
H1426  H     0.80594   0.76638   0.61129   0.00000  Uiso   1.00
H1427  H     0.80657   0.76609   0.88909   0.00000  Uiso   1.00
H1428  H     0.85887   0.90091   0.61086   0.00000  Uiso   1.00
H1429  H     0.79029   0.72831   0.95835   0.00000  Uiso   1.00
H1430  H     0.87367   0.93935   0.54171   0.00000  Uiso   1.00
H1431  H     0.88116   0.70928   0.79870   0.00000  Uiso   1.00
H1432  H     0.78548   0.95739   0.70132   0.00000  Uiso   1.00
H1433  H     0.78548   0.70844   0.70134   0.00000  Uiso   1.00
H1434  H     0.88117   0.95822   0.79868   0.00000  Uiso   1.00
N1435  N     0.83333   0.95240   0.75000   0.00000  Uiso   1.00
N1436  N     0.83333   0.71427   0.75000   0.00000  Uiso   1.00
O1437  O     0.77226   0.87154   0.75000   0.00000  Uiso   1.00
O1438  O     0.89441   0.79513   0.75001   0.00000  Uiso   1.00
O1439  O     0.89441   0.87154   0.75001   0.00000  Uiso   1.00
O1440  O     0.77226   0.79513   0.75000   0.00000  Uiso   1.00
O1441  O     0.83333   0.87156   0.68393   0.00000  Uiso   1.00
O1442  O     0.83334   0.79511   0.81608   0.00000  Uiso   1.00
O1443  O     0.83334   0.87156   0.81608   0.00000  Uiso   1.00
O1444  O     0.83333   0.79511   0.68393   0.00000  Uiso   1.00
Zn1445 Zn    0.83333   0.88437   0.75000   0.00000  Uiso   1.00
Zn1446 Zn    0.83333   0.78229   0.75000   0.00000  Uiso   1.00
O1447  O     0.78723   0.71916   0.54538   0.00000  Uiso   1.00
C1448  C     0.74311   0.71924   0.54693   0.00000  Uiso   1.00
H1449  H     0.73239   0.68935   0.56640   0.00000  Uiso   1.00
H1450  H     0.72942   0.71630   0.51290   0.00000  Uiso   1.00
H1451  H     0.73113   0.75006   0.56412   0.00000  Uiso   1.00
O1452  O     0.87775   0.94797   0.95444   0.00000  Uiso   1.00
C1453  C     0.84859   0.98361   0.95577   0.00000  Uiso   1.00
H1454  H     0.84425   0.99650   0.99037   0.00000  Uiso   1.00
H1455  H     0.81793   0.97308   0.94128   0.00000  Uiso   1.00
H1456  H     0.86089   0.67874   0.93529   0.00000  Uiso   1.00
O1457  O     0.70951   0.78038   0.81211   0.00000  Uiso   1.00
C1458  C     0.70768   0.73405   0.80037   0.00000  Uiso   1.00
H1459  H     0.72984   0.71528   0.82187   0.00000  Uiso   1.00
H1460  H     0.71729   0.72816   0.76506   0.00000  Uiso   1.00
H1461  H     0.67591   0.71969   0.80632   0.00000  Uiso   1.00
O1462  O     0.95717   0.88622   0.68782   0.00000  Uiso   1.00
C1463  C     0.95909   0.93256   0.69951   0.00000  Uiso   1.00
H1464  H     0.94946   0.93851   0.73480   0.00000  Uiso   1.00
H1465  H     0.93699   0.95137   0.67797   0.00000  Uiso   1.00
H1466  H     0.99090   0.94684   0.69358   0.00000  Uiso   1.00
O1467  O     0.95566   0.78301   0.81366   0.00000  Uiso   1.00
C1468  C     0.94995   0.81053   0.85169   0.00000  Uiso   1.00
H1469  H     0.93129   0.79124   0.87663   0.00000  Uiso   1.00
H1470  H     0.93220   0.84180   0.84360   0.00000  Uiso   1.00
H1471  H     0.98049   0.81949   0.86733   0.00000  Uiso   1.00
O1472  O     0.71101   0.88334   0.68607   0.00000  Uiso   1.00
C1473  C     0.71661   0.85562   0.64815   0.00000  Uiso   1.00
H1474  H     0.73433   0.82436   0.65634   0.00000  Uiso   1.00
H1475  H     0.73525   0.87477   0.62308   0.00000  Uiso   1.00
H1476  H     0.68604   0.84663   0.63262   0.00000  Uiso   1.00
loop_
_geom_bond_atom_site_label_1
_geom_bond_atom_site_label_2
_geom_bond_distance
_geom_bond_site_symmetry_2
_ccdc_geom_bond_type
C1     O46     1.276   .     A
C1     O43     1.280   .     A
C1     C10     1.409   .     S
C2     O44     1.280   .     A
C2     O45     1.276   .     A
C2     C9      1.409   .     S
C3     C28     1.408   .     A
C3     O53     1.383   .     S
C3     C767    1.394   1_554 S
C4     C27     1.408   .     A
C4     O58     1.384   .     S
C4     C768    1.395   .     S
C5     O63     1.386   .     S
C5     C10     1.401   .     A
C5     C171    1.384   1_455 S
C6     C9      1.401   .     A
C6     O68     1.386   .     S
C6     C90     1.384   .     S
C7     O73     1.385   .     S
C7     C9      1.401   .     A
C7     C87     1.384   .     S
C8     O78     1.385   .     S
C8     C10     1.401   .     A
C8     C170    1.384   1_455 S
C11    N42     1.366   .     A
C11    H37     1.082   .     S
C11    C506    1.416   1_545 S
C12    N41     1.366   .     A
C12    H38     1.082   .     S
C12    C259    1.416   .     S
C13    N42     1.366   .     A
C13    H39     1.082   .     S
C13    C504    1.416   1_545 S
C14    N41     1.366   .     A
C14    H40     1.082   .     S
C14    C257    1.416   .     S
C15    O47     1.285   .     A
C15    O50     1.286   .     A
C15    C20     1.433   .     S
C16    O48     1.286   .     A
C16    O49     1.286   .     A
C16    C19     1.434   .     S
C17    C27     1.387   .     A
C17    H31     1.084   .     S
C17    C19     1.395   .     A
C18    C28     1.387   .     A
C18    H32     1.084   .     S
C18    C20     1.395   .     A
C19    C21     1.395   .     A
C20    C22     1.395   .     A
C21    H33     1.085   .     S
C21    C23     1.383   .     A
C22    H34     1.085   .     S
C22    C24     1.382   .     A
C23    C29     1.398   .     A
C23    C25     1.411   .     A
C24    C26     1.411   .     A
C24    C30     1.398   .     A
C25    C27     1.415   .     A
C25    C764    1.392   .     S
C26    C28     1.415   .     A
C26    C763    1.392   1_554 S
C29    H35     1.084   .     S
C29    C741    1.394   .     S
C30    H36     1.084   .     S
C30    C742    1.395   1_554 S
N41    Zn51    2.007   .     S
N42    Zn52    2.007   .     S
O43    Zn51    1.984   .     S
O44    Zn52    1.984   .     S
O45    Zn51    1.989   .     S
O46    Zn52    1.989   .     S
O47    Zn51    2.015   .     S
O48    Zn52    2.015   .     S
O49    Zn51    2.016   .     S
O50    Zn52    2.016   .     S
O53    C54     1.410   .     S
C54    H56     1.113   .     S
C54    H55     1.109   .     S
C54    H57     1.114   .     S
O58    C59     1.410   .     S
C59    H60     1.112   .     S
C59    H61     1.114   .     S
C59    H308    1.110   .     S
H62    C551    1.110   1_545 S
O63    C64     1.412   .     S
C64    H67     1.111   .     S
C64    H66     1.114   .     S
C64    H65     1.109   .     S
O68    C69     1.412   .     S
C69    H71     1.109   .     S
C69    H72     1.111   .     S
C69    H70     1.114   .     S
O73    C74     1.410   .     S
C74    H76     1.113   .     S
C74    H77     1.113   .     S
C74    H75     1.109   .     S
O78    C79     1.410   .     S
C79    H81     1.109   .     S
C79    H80     1.113   .     S
C79    H82     1.113   .     S
C83    O128    1.276   .     A
C83    O125    1.280   .     A
C83    C92     1.409   .     S
C84    O126    1.280   .     A
C84    O127    1.276   .     A
C84    C91     1.409   .     S
C85    C110    1.408   .     A
C85    O135    1.383   .     S
C85    C849    1.394   1_554 S
C86    C109    1.408   .     A
C86    O140    1.384   .     S
C86    C850    1.395   .     S
C87    O145    1.386   .     S
C87    C92     1.401   .     A
C88    C91     1.401   .     A
C88    O150    1.386   .     S
C88    C172    1.384   .     S
C89    O155    1.385   .     S
C89    C91     1.401   .     A
C89    C169    1.384   .     S
C90    O160    1.385   .     S
C90    C92     1.401   .     A
C93    N124    1.366   .     A
C93    H119    1.082   .     S
C93    C588    1.416   1_545 S
C94    N123    1.366   .     A
C94    H120    1.082   .     S
C94    C341    1.416   .     S
C95    N124    1.366   .     A
C95    H121    1.082   .     S
C95    C586    1.416   1_545 S
C96    N123    1.366   .     A
C96    H122    1.082   .     S
C96    C339    1.416   .     S
C97    O129    1.285   .     A
C97    O132    1.286   .     A
C97    C102    1.433   .     S
C98    O130    1.286   .     A
C98    O131    1.286   .     A
C98    C101    1.434   .     S
C99    C109    1.387   .     A
C99    H113    1.084   .     S
C99    C101    1.395   .     A
C100   C110    1.387   .     A
C100   H114    1.084   .     S
C100   C102    1.395   .     A
C101   C103    1.395   .     A
C102   C104    1.395   .     A
C103   H115    1.085   .     S
C103   C105    1.383   .     A
C104   H116    1.085   .     S
C104   C106    1.382   .     A
C105   C111    1.398   .     A
C105   C107    1.411   .     A
C106   C108    1.411   .     A
C106   C112    1.398   .     A
C107   C109    1.415   .     A
C107   C846    1.392   .     S
C108   C110    1.415   .     A
C108   C845    1.392   1_554 S
C111   H117    1.084   .     S
C111   C823    1.394   .     S
C112   H118    1.084   .     S
C112   C824    1.395   1_554 S
N123   Zn133   2.007   .     S
N124   Zn134   2.007   .     S
O125   Zn133   1.984   .     S
O126   Zn134   1.984   .     S
O127   Zn133   1.989   .     S
O128   Zn134   1.989   .     S
O129   Zn133   2.015   .     S
O130   Zn134   2.015   .     S
O131   Zn133   2.016   .     S
O132   Zn134   2.016   .     S
O135   C136    1.410   .     S
C136   H138    1.113   .     S
C136   H137    1.109   .     S
C136   H139    1.114   .     S
O140   C141    1.410   .     S
C141   H142    1.112   .     S
C141   H143    1.114   .     S
C141   H390    1.110   .     S
H144   C633    1.110   1_545 S
O145   C146    1.412   .     S
C146   H149    1.111   .     S
C146   H148    1.114   .     S
C146   H147    1.109   .     S
O150   C151    1.412   .     S
C151   H153    1.109   .     S
C151   H154    1.111   .     S
C151   H152    1.114   .     S
O155   C156    1.410   .     S
C156   H158    1.113   .     S
C156   H159    1.113   .     S
C156   H157    1.109   .     S
O160   C161    1.410   .     S
C161   H163    1.109   .     S
C161   H162    1.113   .     S
C161   H164    1.113   .     S
C165   O210    1.276   .     A
C165   O207    1.280   .     A
C165   C174    1.409   .     S
C166   O208    1.280   .     A
C166   O209    1.276   .     A
C166   C173    1.409   .     S
C167   C192    1.408   .     A
C167   O217    1.383   .     S
C167   C931    1.394   1_554 S
C168   C191    1.408   .     A
C168   O222    1.384   .     S
C168   C932    1.395   .     S
C169   O227    1.386   .     S
C169   C174    1.401   .     A
C170   C173    1.401   .     A
C170   O232    1.386   .     S
C170   C8      1.384   1_655 S
C171   O237    1.385   .     S
C171   C173    1.401   .     A
C171   C5      1.384   1_655 S
C172   O242    1.385   .     S
C172   C174    1.401   .     A
C175   N206    1.366   .     A
C175   H201    1.082   .     S
C175   C670    1.416   1_545 S
C176   N205    1.366   .     A
C176   H202    1.082   .     S
C176   C423    1.416   .     S
C177   N206    1.366   .     A
C177   H203    1.082   .     S
C177   C668    1.416   1_545 S
C178   N205    1.366   .     A
C178   H204    1.082   .     S
C178   C421    1.416   .     S
C179   O211    1.285   .     A
C179   O214    1.286   .     A
C179   C184    1.433   .     S
C180   O212    1.286   .     A
C180   O213    1.286   .     A
C180   C183    1.434   .     S
C181   C191    1.387   .     A
C181   H195    1.084   .     S
C181   C183    1.395   .     A
C182   C192    1.387   .     A
C182   H196    1.084   .     S
C182   C184    1.395   .     A
C183   C185    1.395   .     A
C184   C186    1.395   .     A
C185   H197    1.085   .     S
C185   C187    1.383   .     A
C186   H198    1.085   .     S
C186   C188    1.382   .     A
C187   C193    1.398   .     A
C187   C189    1.411   .     A
C188   C190    1.411   .     A
C188   C194    1.398   .     A
C189   C191    1.415   .     A
C189   C928    1.392   .     S
C190   C192    1.415   .     A
C190   C927    1.392   1_554 S
C193   H199    1.084   .     S
C193   C905    1.394   .     S
C194   H200    1.084   .     S
C194   C906    1.395   1_554 S
N205   Zn215   2.007   .     S
N206   Zn216   2.007   .     S
O207   Zn215   1.984   .     S
O208   Zn216   1.984   .     S
O209   Zn215   1.989   .     S
O210   Zn216   1.989   .     S
O211   Zn215   2.015   .     S
O212   Zn216   2.015   .     S
O213   Zn215   2.016   .     S
O214   Zn216   2.016   .     S
O217   C218    1.410   .     S
C218   H220    1.113   .     S
C218   H219    1.109   .     S
C218   H221    1.114   .     S
O222   C223    1.410   .     S
C223   H224    1.112   .     S
C223   H225    1.114   .     S
C223   H472    1.110   .     S
H226   C715    1.110   1_545 S
O227   C228    1.412   .     S
C228   H231    1.111   .     S
C228   H230    1.114   .     S
C228   H229    1.109   .     S
O232   C233    1.412   .     S
C233   H235    1.109   .     S
C233   H236    1.111   .     S
C233   H234    1.114   .     S
O237   C238    1.410   .     S
C238   H240    1.113   .     S
C238   H241    1.113   .     S
C238   H239    1.109   .     S
O242   C243    1.410   .     S
C243   H245    1.109   .     S
C243   H244    1.113   .     S
C243   H246    1.113   .     S
C247   O292    1.276   .     A
C247   O289    1.280   .     A
C247   C256    1.409   .     S
C248   O290    1.280   .     A
C248   O291    1.276   .     A
C248   C255    1.409   .     S
C249   C274    1.408   .     A
C249   O299    1.383   .     S
C249   C1013   1.394   1_554 S
C250   C273    1.408   .     A
C250   O304    1.384   .     S
C250   C1014   1.395   .     S
C251   O309    1.386   .     S
C251   C256    1.401   .     A
C251   C417    1.384   1_455 S
C252   C255    1.401   .     A
C252   O314    1.386   .     S
C252   C336    1.384   .     S
C253   O319    1.385   .     S
C253   C255    1.401   .     A
C253   C333    1.384   .     S
C254   O324    1.385   .     S
C254   C256    1.401   .     A
C254   C416    1.384   1_455 S
C257   N288    1.366   .     A
C257   H283    1.082   .     S
C258   N287    1.366   .     A
C258   H284    1.082   .     S
C258   C505    1.416   .     S
C259   N288    1.366   .     A
C259   H285    1.082   .     S
C260   N287    1.366   .     A
C260   H286    1.082   .     S
C260   C503    1.416   .     S
C261   O293    1.285   .     A
C261   O296    1.286   .     A
C261   C266    1.433   .     S
C262   O294    1.286   .     A
C262   O295    1.286   .     A
C262   C265    1.434   .     S
C263   C273    1.387   .     A
C263   H277    1.084   .     S
C263   C265    1.395   .     A
C264   C274    1.387   .     A
C264   H278    1.084   .     S
C264   C266    1.395   .     A
C265   C267    1.395   .     A
C266   C268    1.395   .     A
C267   H279    1.085   .     S
C267   C269    1.383   .     A
C268   H280    1.085   .     S
C268   C270    1.382   .     A
C269   C275    1.398   .     A
C269   C271    1.411   .     A
C270   C272    1.411   .     A
C270   C276    1.398   .     A
C271   C273    1.415   .     A
C271   C1010   1.392   .     S
C272   C274    1.415   .     A
C272   C1009   1.392   1_554 S
C275   H281    1.084   .     S
C275   C987    1.394   .     S
C276   H282    1.084   .     S
C276   C988    1.395   1_554 S
N287   Zn297   2.007   .     S
N288   Zn298   2.007   .     S
O289   Zn297   1.984   .     S
O290   Zn298   1.984   .     S
O291   Zn297   1.989   .     S
O292   Zn298   1.989   .     S
O293   Zn297   2.015   .     S
O294   Zn298   2.015   .     S
O295   Zn297   2.016   .     S
O296   Zn298   2.016   .     S
O299   C300    1.410   .     S
C300   H302    1.113   .     S
C300   H301    1.109   .     S
C300   H303    1.114   .     S
O304   C305    1.410   .     S
C305   H306    1.112   .     S
C305   H307    1.114   .     S
C305   H554    1.110   .     S
O309   C310    1.412   .     S
C310   H313    1.111   .     S
C310   H312    1.114   .     S
C310   H311    1.109   .     S
O314   C315    1.412   .     S
C315   H317    1.109   .     S
C315   H318    1.111   .     S
C315   H316    1.114   .     S
O319   C320    1.410   .     S
C320   H322    1.113   .     S
C320   H323    1.113   .     S
C320   H321    1.109   .     S
O324   C325    1.410   .     S
C325   H327    1.109   .     S
C325   H326    1.113   .     S
C325   H328    1.113   .     S
C329   O374    1.276   .     A
C329   O371    1.280   .     A
C329   C338    1.409   .     S
C330   O372    1.280   .     A
C330   O373    1.276   .     A
C330   C337    1.409   .     S
C331   C356    1.408   .     A
C331   O381    1.383   .     S
C331   C1095   1.394   1_554 S
C332   C355    1.408   .     A
C332   O386    1.384   .     S
C332   C1096   1.395   .     S
C333   O391    1.386   .     S
C333   C338    1.401   .     A
C334   C337    1.401   .     A
C334   O396    1.386   .     S
C334   C418    1.384   .     S
C335   O401    1.385   .     S
C335   C337    1.401   .     A
C335   C415    1.384   .     S
C336   O406    1.385   .     S
C336   C338    1.401   .     A
C339   N370    1.366   .     A
C339   H365    1.082   .     S
C340   N369    1.366   .     A
C340   H366    1.082   .     S
C340   C587    1.416   .     S
C341   N370    1.366   .     A
C341   H367    1.082   .     S
C342   N369    1.366   .     A
C342   H368    1.082   .     S
C342   C585    1.416   .     S
C343   O375    1.285   .     A
C343   O378    1.286   .     A
C343   C348    1.433   .     S
C344   O376    1.286   .     A
C344   O377    1.286   .     A
C344   C347    1.434   .     S
C345   C355    1.387   .     A
C345   H359    1.084   .     S
C345   C347    1.395   .     A
C346   C356    1.387   .     A
C346   H360    1.084   .     S
C346   C348    1.395   .     A
C347   C349    1.395   .     A
C348   C350    1.395   .     A
C349   H361    1.085   .     S
C349   C351    1.383   .     A
C350   H362    1.085   .     S
C350   C352    1.382   .     A
C351   C357    1.398   .     A
C351   C353    1.411   .     A
C352   C354    1.411   .     A
C352   C358    1.398   .     A
C353   C355    1.415   .     A
C353   C1092   1.392   .     S
C354   C356    1.415   .     A
C354   C1091   1.392   1_554 S
C357   H363    1.084   .     S
C357   C1069   1.394   .     S
C358   H364    1.084   .     S
C358   C1070   1.395   1_554 S
N369   Zn379   2.007   .     S
N370   Zn380   2.007   .     S
O371   Zn379   1.984   .     S
O372   Zn380   1.984   .     S
O373   Zn379   1.989   .     S
O374   Zn380   1.989   .     S
O375   Zn379   2.015   .     S
O376   Zn380   2.015   .     S
O377   Zn379   2.016   .     S
O378   Zn380   2.016   .     S
O381   C382    1.410   .     S
C382   H384    1.113   .     S
C382   H383    1.109   .     S
C382   H385    1.114   .     S
O386   C387    1.410   .     S
C387   H388    1.112   .     S
C387   H389    1.114   .     S
C387   H636    1.110   .     S
O391   C392    1.412   .     S
C392   H395    1.111   .     S
C392   H394    1.114   .     S
C392   H393    1.109   .     S
O396   C397    1.412   .     S
C397   H399    1.109   .     S
C397   H400    1.111   .     S
C397   H398    1.114   .     S
O401   C402    1.410   .     S
C402   H404    1.113   .     S
C402   H405    1.113   .     S
C402   H403    1.109   .     S
O406   C407    1.410   .     S
C407   H409    1.109   .     S
C407   H408    1.113   .     S
C407   H410    1.113   .     S
C411   O456    1.276   .     A
C411   O453    1.280   .     A
C411   C420    1.409   .     S
C412   O454    1.280   .     A
C412   O455    1.276   .     A
C412   C419    1.409   .     S
C413   C438    1.408   .     A
C413   O463    1.383   .     S
C413   C1177   1.394   1_554 S
C414   C437    1.408   .     A
C414   O468    1.384   .     S
C414   C1178   1.395   .     S
C415   O473    1.386   .     S
C415   C420    1.401   .     A
C416   C419    1.401   .     A
C416   O478    1.386   .     S
C416   C254    1.384   1_655 S
C417   O483    1.385   .     S
C417   C419    1.401   .     A
C417   C251    1.384   1_655 S
C418   O488    1.385   .     S
C418   C420    1.401   .     A
C421   N452    1.366   .     A
C421   H447    1.082   .     S
C422   N451    1.366   .     A
C422   H448    1.082   .     S
C422   C669    1.416   .     S
C423   N452    1.366   .     A
C423   H449    1.082   .     S
C424   N451    1.366   .     A
C424   H450    1.082   .     S
C424   C667    1.416   .     S
C425   O457    1.285   .     A
C425   O460    1.286   .     A
C425   C430    1.433   .     S
C426   O458    1.286   .     A
C426   O459    1.286   .     A
C426   C429    1.434   .     S
C427   C437    1.387   .     A
C427   H441    1.084   .     S
C427   C429    1.395   .     A
C428   C438    1.387   .     A
C428   H442    1.084   .     S
C428   C430    1.395   .     A
C429   C431    1.395   .     A
C430   C432    1.395   .     A
C431   H443    1.085   .     S
C431   C433    1.383   .     A
C432   H444    1.085   .     S
C432   C434    1.382   .     A
C433   C439    1.398   .     A
C433   C435    1.411   .     A
C434   C436    1.411   .     A
C434   C440    1.398   .     A
C435   C437    1.415   .     A
C435   C1174   1.392   .     S
C436   C438    1.415   .     A
C436   C1173   1.392   1_554 S
C439   H445    1.084   .     S
C439   C1151   1.394   .     S
C440   H446    1.084   .     S
C440   C1152   1.395   1_554 S
N451   Zn461   2.007   .     S
N452   Zn462   2.007   .     S
O453   Zn461   1.984   .     S
O454   Zn462   1.984   .     S
O455   Zn461   1.989   .     S
O456   Zn462   1.989   .     S
O457   Zn461   2.015   .     S
O458   Zn462   2.015   .     S
O459   Zn461   2.016   .     S
O460   Zn462   2.016   .     S
O463   C464    1.410   .     S
C464   H466    1.113   .     S
C464   H465    1.109   .     S
C464   H467    1.114   .     S
O468   C469    1.410   .     S
C469   H470    1.112   .     S
C469   H471    1.114   .     S
C469   H718    1.110   .     S
O473   C474    1.412   .     S
C474   H477    1.111   .     S
C474   H476    1.114   .     S
C474   H475    1.109   .     S
O478   C479    1.412   .     S
C479   H481    1.109   .     S
C479   H482    1.111   .     S
C479   H480    1.114   .     S
O483   C484    1.410   .     S
C484   H486    1.113   .     S
C484   H487    1.113   .     S
C484   H485    1.109   .     S
O488   C489    1.410   .     S
C489   H491    1.109   .     S
C489   H490    1.113   .     S
C489   H492    1.113   .     S
C493   O538    1.276   .     A
C493   O535    1.280   .     A
C493   C502    1.409   .     S
C494   O536    1.280   .     A
C494   O537    1.276   .     A
C494   C501    1.409   .     S
C495   C520    1.408   .     A
C495   O545    1.383   .     S
C495   C1259   1.394   1_554 S
C496   C519    1.408   .     A
C496   O550    1.384   .     S
C496   C1260   1.395   .     S
C497   O555    1.386   .     S
C497   C502    1.401   .     A
C497   C663    1.384   1_455 S
C498   C501    1.401   .     A
C498   O560    1.386   .     S
C498   C582    1.384   .     S
C499   O565    1.385   .     S
C499   C501    1.401   .     A
C499   C579    1.384   .     S
C500   O570    1.385   .     S
C500   C502    1.401   .     A
C500   C662    1.384   1_455 S
C503   N534    1.366   .     A
C503   H529    1.082   .     S
C504   N533    1.366   .     A
C504   H530    1.082   .     S
C504   C13     1.416   1_565 S
C505   N534    1.366   .     A
C505   H531    1.082   .     S
C506   N533    1.366   .     A
C506   H532    1.082   .     S
C506   C11     1.416   1_565 S
C507   O539    1.285   .     A
C507   O542    1.286   .     A
C507   C512    1.433   .     S
C508   O540    1.286   .     A
C508   O541    1.286   .     A
C508   C511    1.434   .     S
C509   C519    1.387   .     A
C509   H523    1.084   .     S
C509   C511    1.395   .     A
C510   C520    1.387   .     A
C510   H524    1.084   .     S
C510   C512    1.395   .     A
C511   C513    1.395   .     A
C512   C514    1.395   .     A
C513   H525    1.085   .     S
C513   C515    1.383   .     A
C514   H526    1.085   .     S
C514   C516    1.382   .     A
C515   C521    1.398   .     A
C515   C517    1.411   .     A
C516   C518    1.411   .     A
C516   C522    1.398   .     A
C517   C519    1.415   .     A
C517   C1256   1.392   .     S
C518   C520    1.415   .     A
C518   C1255   1.392   1_554 S
C521   H527    1.084   .     S
C521   C1233   1.394   .     S
C522   H528    1.084   .     S
C522   C1234   1.395   1_554 S
N533   Zn543   2.007   .     S
N534   Zn544   2.007   .     S
O535   Zn543   1.984   .     S
O536   Zn544   1.984   .     S
O537   Zn543   1.989   .     S
O538   Zn544   1.989   .     S
O539   Zn543   2.015   .     S
O540   Zn544   2.015   .     S
O541   Zn543   2.016   .     S
O542   Zn544   2.016   .     S
O545   C546    1.410   .     S
C546   H548    1.113   .     S
C546   H547    1.109   .     S
C546   H549    1.114   .     S
O550   C551    1.410   .     S
C551   H552    1.112   .     S
C551   H553    1.114   .     S
C551   H62     1.110   1_565 S
O555   C556    1.412   .     S
C556   H559    1.111   .     S
C556   H558    1.114   .     S
C556   H557    1.109   .     S
O560   C561    1.412   .     S
C561   H563    1.109   .     S
C561   H564    1.111   .     S
C561   H562    1.114   .     S
O565   C566    1.410   .     S
C566   H568    1.113   .     S
C566   H569    1.113   .     S
C566   H567    1.109   .     S
O570   C571    1.410   .     S
C571   H573    1.109   .     S
C571   H572    1.113   .     S
C571   H574    1.113   .     S
C575   O620    1.276   .     A
C575   O617    1.280   .     A
C575   C584    1.409   .     S
C576   O618    1.280   .     A
C576   O619    1.276   .     A
C576   C583    1.409   .     S
C577   C602    1.408   .     A
C577   O627    1.383   .     S
C577   C1341   1.394   1_554 S
C578   C601    1.408   .     A
C578   O632    1.384   .     S
C578   C1342   1.395   .     S
C579   O637    1.386   .     S
C579   C584    1.401   .     A
C580   C583    1.401   .     A
C580   O642    1.386   .     S
C580   C664    1.384   .     S
C581   O647    1.385   .     S
C581   C583    1.401   .     A
C581   C661    1.384   .     S
C582   O652    1.385   .     S
C582   C584    1.401   .     A
C585   N616    1.366   .     A
C585   H611    1.082   .     S
C586   N615    1.366   .     A
C586   H612    1.082   .     S
C586   C95     1.416   1_565 S
C587   N616    1.366   .     A
C587   H613    1.082   .     S
C588   N615    1.366   .     A
C588   H614    1.082   .     S
C588   C93     1.416   1_565 S
C589   O621    1.285   .     A
C589   O624    1.286   .     A
C589   C594    1.433   .     S
C590   O622    1.286   .     A
C590   O623    1.286   .     A
C590   C593    1.434   .     S
C591   C601    1.387   .     A
C591   H605    1.084   .     S
C591   C593    1.395   .     A
C592   C602    1.387   .     A
C592   H606    1.084   .     S
C592   C594    1.395   .     A
C593   C595    1.395   .     A
C594   C596    1.395   .     A
C595   H607    1.085   .     S
C595   C597    1.383   .     A
C596   H608    1.085   .     S
C596   C598    1.382   .     A
C597   C603    1.398   .     A
C597   C599    1.411   .     A
C598   C600    1.411   .     A
C598   C604    1.398   .     A
C599   C601    1.415   .     A
C599   C1338   1.392   .     S
C600   C602    1.415   .     A
C600   C1337   1.392   1_554 S
C603   H609    1.084   .     S
C603   C1315   1.394   .     S
C604   H610    1.084   .     S
C604   C1316   1.395   1_554 S
N615   Zn625   2.007   .     S
N616   Zn626   2.007   .     S
O617   Zn625   1.984   .     S
O618   Zn626   1.984   .     S
O619   Zn625   1.989   .     S
O620   Zn626   1.989   .     S
O621   Zn625   2.015   .     S
O622   Zn626   2.015   .     S
O623   Zn625   2.016   .     S
O624   Zn626   2.016   .     S
O627   C628    1.410   .     S
C628   H630    1.113   .     S
C628   H629    1.109   .     S
C628   H631    1.114   .     S
O632   C633    1.410   .     S
C633   H634    1.112   .     S
C633   H635    1.114   .     S
C633   H144    1.110   1_565 S
O637   C638    1.412   .     S
C638   H641    1.111   .     S
C638   H640    1.114   .     S
C638   H639    1.109   .     S
O642   C643    1.412   .     S
C643   H645    1.109   .     S
C643   H646    1.111   .     S
C643   H644    1.114   .     S
O647   C648    1.410   .     S
C648   H650    1.113   .     S
C648   H651    1.113   .     S
C648   H649    1.109   .     S
O652   C653    1.410   .     S
C653   H655    1.109   .     S
C653   H654    1.113   .     S
C653   H656    1.113   .     S
C657   O702    1.276   .     A
C657   O699    1.280   .     A
C657   C666    1.409   .     S
C658   O700    1.280   .     A
C658   O701    1.276   .     A
C658   C665    1.409   .     S
C659   C684    1.408   .     A
C659   O709    1.383   .     S
C659   C1423   1.394   1_554 S
C660   C683    1.408   .     A
C660   O714    1.384   .     S
C660   C1424   1.395   .     S
C661   O719    1.386   .     S
C661   C666    1.401   .     A
C662   C665    1.401   .     A
C662   O724    1.386   .     S
C662   C500    1.384   1_655 S
C663   O729    1.385   .     S
C663   C665    1.401   .     A
C663   C497    1.384   1_655 S
C664   O734    1.385   .     S
C664   C666    1.401   .     A
C667   N698    1.366   .     A
C667   H693    1.082   .     S
C668   N697    1.366   .     A
C668   H694    1.082   .     S
C668   C177    1.416   1_565 S
C669   N698    1.366   .     A
C669   H695    1.082   .     S
C670   N697    1.366   .     A
C670   H696    1.082   .     S
C670   C175    1.416   1_565 S
C671   O703    1.285   .     A
C671   O706    1.286   .     A
C671   C676    1.433   .     S
C672   O704    1.286   .     A
C672   O705    1.286   .     A
C672   C675    1.434   .     S
C673   C683    1.387   .     A
C673   H687    1.084   .     S
C673   C675    1.395   .     A
C674   C684    1.387   .     A
C674   H688    1.084   .     S
C674   C676    1.395   .     A
C675   C677    1.395   .     A
C676   C678    1.395   .     A
C677   H689    1.085   .     S
C677   C679    1.383   .     A
C678   H690    1.085   .     S
C678   C680    1.382   .     A
C679   C685    1.398   .     A
C679   C681    1.411   .     A
C680   C682    1.411   .     A
C680   C686    1.398   .     A
C681   C683    1.415   .     A
C681   C1420   1.392   .     S
C682   C684    1.415   .     A
C682   C1419   1.392   1_554 S
C685   H691    1.084   .     S
C685   C1397   1.394   .     S
C686   H692    1.084   .     S
C686   C1398   1.395   1_554 S
N697   Zn707   2.007   .     S
N698   Zn708   2.007   .     S
O699   Zn707   1.984   .     S
O700   Zn708   1.984   .     S
O701   Zn707   1.989   .     S
O702   Zn708   1.989   .     S
O703   Zn707   2.015   .     S
O704   Zn708   2.015   .     S
O705   Zn707   2.016   .     S
O706   Zn708   2.016   .     S
O709   C710    1.410   .     S
C710   H712    1.113   .     S
C710   H711    1.109   .     S
C710   H713    1.114   .     S
O714   C715    1.410   .     S
C715   H716    1.112   .     S
C715   H717    1.114   .     S
C715   H226    1.110   1_565 S
O719   C720    1.412   .     S
C720   H723    1.111   .     S
C720   H722    1.114   .     S
C720   H721    1.109   .     S
O724   C725    1.412   .     S
C725   H727    1.109   .     S
C725   H728    1.111   .     S
C725   H726    1.114   .     S
O729   C730    1.410   .     S
C730   H732    1.113   .     S
C730   H733    1.113   .     S
C730   H731    1.109   .     S
O734   C735    1.410   .     S
C735   H737    1.109   .     S
C735   H736    1.113   .     S
C735   H738    1.113   .     S
C739   O784    1.276   .     A
C739   O781    1.280   .     A
C739   C748    1.409   .     S
C740   O782    1.280   .     A
C740   O783    1.276   .     A
C740   C747    1.409   .     S
C741   C766    1.408   .     A
C741   O791    1.383   .     S
C742   C765    1.408   .     A
C742   O796    1.384   .     S
C742   C30     1.395   1_556 S
C743   O801    1.386   .     S
C743   C748    1.401   .     A
C743   C909    1.384   1_455 S
C744   C747    1.401   .     A
C744   O806    1.386   .     S
C744   C828    1.384   .     S
C745   O811    1.385   .     S
C745   C747    1.401   .     A
C745   C825    1.384   .     S
C746   O816    1.385   .     S
C746   C748    1.401   .     A
C746   C908    1.384   1_455 S
C749   N780    1.366   .     A
C749   H775    1.082   .     S
C749   C1244   1.416   1_545 S
C750   N779    1.366   .     A
C750   H776    1.082   .     S
C750   C997    1.416   .     S
C751   N780    1.366   .     A
C751   H777    1.082   .     S
C751   C1242   1.416   1_545 S
C752   N779    1.366   .     A
C752   H778    1.082   .     S
C752   C995    1.416   .     S
C753   O785    1.285   .     A
C753   O788    1.286   .     A
C753   C758    1.433   .     S
C754   O786    1.286   .     A
C754   O787    1.286   .     A
C754   C757    1.434   .     S
C755   C765    1.387   .     A
C755   H769    1.084   .     S
C755   C757    1.395   .     A
C756   C766    1.387   .     A
C756   H770    1.084   .     S
C756   C758    1.395   .     A
C757   C759    1.395   .     A
C758   C760    1.395   .     A
C759   H771    1.085   .     S
C759   C761    1.383   .     A
C760   H772    1.085   .     S
C760   C762    1.382   .     A
C761   C767    1.398   .     A
C761   C763    1.411   .     A
C762   C764    1.411   .     A
C762   C768    1.398   .     A
C763   C765    1.415   .     A
C763   C26     1.392   1_556 S
C764   C766    1.415   .     A
C767   H773    1.084   .     S
C767   C3      1.394   1_556 S
C768   H774    1.084   .     S
N779   Zn789   2.007   .     S
N780   Zn790   2.007   .     S
O781   Zn789   1.984   .     S
O782   Zn790   1.984   .     S
O783   Zn789   1.989   .     S
O784   Zn790   1.989   .     S
O785   Zn789   2.015   .     S
O786   Zn790   2.015   .     S
O787   Zn789   2.016   .     S
O788   Zn790   2.016   .     S
O791   C792    1.410   .     S
C792   H794    1.113   .     S
C792   H793    1.109   .     S
C792   H795    1.114   .     S
O796   C797    1.410   .     S
C797   H798    1.112   .     S
C797   H799    1.114   .     S
C797   H1046   1.110   .     S
H800   C1289   1.110   1_545 S
O801   C802    1.412   .     S
C802   H805    1.111   .     S
C802   H804    1.114   .     S
C802   H803    1.109   .     S
O806   C807    1.412   .     S
C807   H809    1.109   .     S
C807   H810    1.111   .     S
C807   H808    1.114   .     S
O811   C812    1.410   .     S
C812   H814    1.113   .     S
C812   H815    1.113   .     S
C812   H813    1.109   .     S
O816   C817    1.410   .     S
C817   H819    1.109   .     S
C817   H818    1.113   .     S
C817   H820    1.113   .     S
C821   O866    1.276   .     A
C821   O863    1.280   .     A
C821   C830    1.409   .     S
C822   O864    1.280   .     A
C822   O865    1.276   .     A
C822   C829    1.409   .     S
C823   C848    1.408   .     A
C823   O873    1.383   .     S
C824   C847    1.408   .     A
C824   O878    1.384   .     S
C824   C112    1.395   1_556 S
C825   O883    1.386   .     S
C825   C830    1.401   .     A
C826   C829    1.401   .     A
C826   O888    1.386   .     S
C826   C910    1.384   .     S
C827   O893    1.385   .     S
C827   C829    1.401   .     A
C827   C907    1.384   .     S
C828   O898    1.385   .     S
C828   C830    1.401   .     A
C831   N862    1.366   .     A
C831   H857    1.082   .     S
C831   C1326   1.416   1_545 S
C832   N861    1.366   .     A
C832   H858    1.082   .     S
C832   C1079   1.416   .     S
C833   N862    1.366   .     A
C833   H859    1.082   .     S
C833   C1324   1.416   1_545 S
C834   N861    1.366   .     A
C834   H860    1.082   .     S
C834   C1077   1.416   .     S
C835   O867    1.285   .     A
C835   O870    1.286   .     A
C835   C840    1.433   .     S
C836   O868    1.286   .     A
C836   O869    1.286   .     A
C836   C839    1.434   .     S
C837   C847    1.387   .     A
C837   H851    1.084   .     S
C837   C839    1.395   .     A
C838   C848    1.387   .     A
C838   H852    1.084   .     S
C838   C840    1.395   .     A
C839   C841    1.395   .     A
C840   C842    1.395   .     A
C841   H853    1.085   .     S
C841   C843    1.383   .     A
C842   H854    1.085   .     S
C842   C844    1.382   .     A
C843   C849    1.398   .     A
C843   C845    1.411   .     A
C844   C846    1.411   .     A
C844   C850    1.398   .     A
C845   C847    1.415   .     A
C845   C108    1.392   1_556 S
C846   C848    1.415   .     A
C849   H855    1.084   .     S
C849   C85     1.394   1_556 S
C850   H856    1.084   .     S
N861   Zn871   2.007   .     S
N862   Zn872   2.007   .     S
O863   Zn871   1.984   .     S
O864   Zn872   1.984   .     S
O865   Zn871   1.989   .     S
O866   Zn872   1.989   .     S
O867   Zn871   2.015   .     S
O868   Zn872   2.015   .     S
O869   Zn871   2.016   .     S
O870   Zn872   2.016   .     S
O873   C874    1.410   .     S
C874   H876    1.113   .     S
C874   H875    1.109   .     S
C874   H877    1.114   .     S
O878   C879    1.410   .     S
C879   H880    1.112   .     S
C879   H881    1.114   .     S
C879   H1128   1.110   .     S
H882   C1371   1.110   1_545 S
O883   C884    1.412   .     S
C884   H887    1.111   .     S
C884   H886    1.114   .     S
C884   H885    1.109   .     S
O888   C889    1.412   .     S
C889   H891    1.109   .     S
C889   H892    1.111   .     S
C889   H890    1.114   .     S
O893   C894    1.410   .     S
C894   H896    1.113   .     S
C894   H897    1.113   .     S
C894   H895    1.109   .     S
O898   C899    1.410   .     S
C899   H901    1.109   .     S
C899   H900    1.113   .     S
C899   H902    1.113   .     S
C903   O948    1.276   .     A
C903   O945    1.280   .     A
C903   C912    1.409   .     S
C904   O946    1.280   .     A
C904   O947    1.276   .     A
C904   C911    1.409   .     S
C905   C930    1.408   .     A
C905   O955    1.383   .     S
C906   C929    1.408   .     A
C906   O960    1.384   .     S
C906   C194    1.395   1_556 S
C907   O965    1.386   .     S
C907   C912    1.401   .     A
C908   C911    1.401   .     A
C908   O970    1.386   .     S
C908   C746    1.384   1_655 S
C909   O975    1.385   .     S
C909   C911    1.401   .     A
C909   C743    1.384   1_655 S
C910   O980    1.385   .     S
C910   C912    1.401   .     A
C913   N944    1.366   .     A
C913   H939    1.082   .     S
C913   C1408   1.416   1_545 S
C914   N943    1.366   .     A
C914   H940    1.082   .     S
C914   C1161   1.416   .     S
C915   N944    1.366   .     A
C915   H941    1.082   .     S
C915   C1406   1.416   1_545 S
C916   N943    1.366   .     A
C916   H942    1.082   .     S
C916   C1159   1.416   .     S
C917   O949    1.285   .     A
C917   O952    1.286   .     A
C917   C922    1.433   .     S
C918   O950    1.286   .     A
C918   O951    1.286   .     A
C918   C921    1.434   .     S
C919   C929    1.387   .     A
C919   H933    1.084   .     S
C919   C921    1.395   .     A
C920   C930    1.387   .     A
C920   H934    1.084   .     S
C920   C922    1.395   .     A
C921   C923    1.395   .     A
C922   C924    1.395   .     A
C923   H935    1.085   .     S
C923   C925    1.383   .     A
C924   H936    1.085   .     S
C924   C926    1.382   .     A
C925   C931    1.398   .     A
C925   C927    1.411   .     A
C926   C928    1.411   .     A
C926   C932    1.398   .     A
C927   C929    1.415   .     A
C927   C190    1.392   1_556 S
C928   C930    1.415   .     A
C931   H937    1.084   .     S
C931   C167    1.394   1_556 S
C932   H938    1.084   .     S
N943   Zn953   2.007   .     S
N944   Zn954   2.007   .     S
O945   Zn953   1.984   .     S
O946   Zn954   1.984   .     S
O947   Zn953   1.989   .     S
O948   Zn954   1.989   .     S
O949   Zn953   2.015   .     S
O950   Zn954   2.015   .     S
O951   Zn953   2.016   .     S
O952   Zn954   2.016   .     S
O955   C956    1.410   .     S
C956   H958    1.113   .     S
C956   H957    1.109   .     S
C956   H959    1.114   .     S
O960   C961    1.410   .     S
C961   H962    1.112   .     S
C961   H963    1.114   .     S
C961   H1210   1.110   .     S
H964   C1453   1.110   1_545 S
O965   C966    1.412   .     S
C966   H969    1.111   .     S
C966   H968    1.114   .     S
C966   H967    1.109   .     S
O970   C971    1.412   .     S
C971   H973    1.109   .     S
C971   H974    1.111   .     S
C971   H972    1.114   .     S
O975   C976    1.410   .     S
C976   H978    1.113   .     S
C976   H979    1.113   .     S
C976   H977    1.109   .     S
O980   C981    1.410   .     S
C981   H983    1.109   .     S
C981   H982    1.113   .     S
C981   H984    1.113   .     S
C985   O1030   1.276   .     A
C985   O1027   1.280   .     A
C985   C994    1.409   .     S
C986   O1028   1.280   .     A
C986   O1029   1.276   .     A
C986   C993    1.409   .     S
C987   C1012   1.408   .     A
C987   O1037   1.383   .     S
C988   C1011   1.408   .     A
C988   O1042   1.384   .     S
C988   C276    1.395   1_556 S
C989   O1047   1.386   .     S
C989   C994    1.401   .     A
C989   C1155   1.384   1_455 S
C990   C993    1.401   .     A
C990   O1052   1.386   .     S
C990   C1074   1.384   .     S
C991   O1057   1.385   .     S
C991   C993    1.401   .     A
C991   C1071   1.384   .     S
C992   O1062   1.385   .     S
C992   C994    1.401   .     A
C992   C1154   1.384   1_455 S
C995   N1026   1.366   .     A
C995   H1021   1.082   .     S
C996   N1025   1.366   .     A
C996   H1022   1.082   .     S
C996   C1243   1.416   .     S
C997   N1026   1.366   .     A
C997   H1023   1.082   .     S
C998   N1025   1.366   .     A
C998   H1024   1.082   .     S
C998   C1241   1.416   .     S
C999   O1031   1.285   .     A
C999   O1034   1.286   .     A
C999   C1004   1.433   .     S
C1000  O1032   1.286   .     A
C1000  O1033   1.286   .     A
C1000  C1003   1.434   .     S
C1001  C1011   1.387   .     A
C1001  H1015   1.084   .     S
C1001  C1003   1.395   .     A
C1002  C1012   1.387   .     A
C1002  H1016   1.084   .     S
C1002  C1004   1.395   .     A
C1003  C1005   1.395   .     A
C1004  C1006   1.395   .     A
C1005  H1017   1.085   .     S
C1005  C1007   1.383   .     A
C1006  H1018   1.085   .     S
C1006  C1008   1.382   .     A
C1007  C1013   1.398   .     A
C1007  C1009   1.411   .     A
C1008  C1010   1.411   .     A
C1008  C1014   1.398   .     A
C1009  C1011   1.415   .     A
C1009  C272    1.392   1_556 S
C1010  C1012   1.415   .     A
C1013  H1019   1.084   .     S
C1013  C249    1.394   1_556 S
C1014  H1020   1.084   .     S
N1025  Zn1035  2.007   .     S
N1026  Zn1036  2.007   .     S
O1027  Zn1035  1.984   .     S
O1028  Zn1036  1.984   .     S
O1029  Zn1035  1.989   .     S
O1030  Zn1036  1.989   .     S
O1031  Zn1035  2.015   .     S
O1032  Zn1036  2.015   .     S
O1033  Zn1035  2.016   .     S
O1034  Zn1036  2.016   .     S
O1037  C1038   1.410   .     S
C1038  H1040   1.113   .     S
C1038  H1039   1.109   .     S
C1038  H1041   1.114   .     S
O1042  C1043   1.410   .     S
C1043  H1044   1.112   .     S
C1043  H1045   1.114   .     S
C1043  H1292   1.110   .     S
O1047  C1048   1.412   .     S
C1048  H1051   1.111   .     S
C1048  H1050   1.114   .     S
C1048  H1049   1.109   .     S
O1052  C1053   1.412   .     S
C1053  H1055   1.109   .     S
C1053  H1056   1.111   .     S
C1053  H1054   1.114   .     S
O1057  C1058   1.410   .     S
C1058  H1060   1.113   .     S
C1058  H1061   1.113   .     S
C1058  H1059   1.109   .     S
O1062  C1063   1.410   .     S
C1063  H1065   1.109   .     S
C1063  H1064   1.113   .     S
C1063  H1066   1.113   .     S
C1067  O1112   1.276   .     A
C1067  O1109   1.280   .     A
C1067  C1076   1.409   .     S
C1068  O1110   1.280   .     A
C1068  O1111   1.276   .     A
C1068  C1075   1.409   .     S
C1069  C1094   1.408   .     A
C1069  O1119   1.383   .     S
C1070  C1093   1.408   .     A
C1070  O1124   1.384   .     S
C1070  C358    1.395   1_556 S
C1071  O1129   1.386   .     S
C1071  C1076   1.401   .     A
C1072  C1075   1.401   .     A
C1072  O1134   1.386   .     S
C1072  C1156   1.384   .     S
C1073  O1139   1.385   .     S
C1073  C1075   1.401   .     A
C1073  C1153   1.384   .     S
C1074  O1144   1.385   .     S
C1074  C1076   1.401   .     A
C1077  N1108   1.366   .     A
C1077  H1103   1.082   .     S
C1078  N1107   1.366   .     A
C1078  H1104   1.082   .     S
C1078  C1325   1.416   .     S
C1079  N1108   1.366   .     A
C1079  H1105   1.082   .     S
C1080  N1107   1.366   .     A
C1080  H1106   1.082   .     S
C1080  C1323   1.416   .     S
C1081  O1113   1.285   .     A
C1081  O1116   1.286   .     A
C1081  C1086   1.433   .     S
C1082  O1114   1.286   .     A
C1082  O1115   1.286   .     A
C1082  C1085   1.434   .     S
C1083  C1093   1.387   .     A
C1083  H1097   1.084   .     S
C1083  C1085   1.395   .     A
C1084  C1094   1.387   .     A
C1084  H1098   1.084   .     S
C1084  C1086   1.395   .     A
C1085  C1087   1.395   .     A
C1086  C1088   1.395   .     A
C1087  H1099   1.085   .     S
C1087  C1089   1.383   .     A
C1088  H1100   1.085   .     S
C1088  C1090   1.382   .     A
C1089  C1095   1.398   .     A
C1089  C1091   1.411   .     A
C1090  C1092   1.411   .     A
C1090  C1096   1.398   .     A
C1091  C1093   1.415   .     A
C1091  C354    1.392   1_556 S
C1092  C1094   1.415   .     A
C1095  H1101   1.084   .     S
C1095  C331    1.394   1_556 S
C1096  H1102   1.084   .     S
N1107  Zn1117  2.007   .     S
N1108  Zn1118  2.007   .     S
O1109  Zn1117  1.984   .     S
O1110  Zn1118  1.984   .     S
O1111  Zn1117  1.989   .     S
O1112  Zn1118  1.989   .     S
O1113  Zn1117  2.015   .     S
O1114  Zn1118  2.015   .     S
O1115  Zn1117  2.016   .     S
O1116  Zn1118  2.016   .     S
O1119  C1120   1.410   .     S
C1120  H1122   1.113   .     S
C1120  H1121   1.109   .     S
C1120  H1123   1.114   .     S
O1124  C1125   1.410   .     S
C1125  H1126   1.112   .     S
C1125  H1127   1.114   .     S
C1125  H1374   1.110   .     S
O1129  C1130   1.412   .     S
C1130  H1133   1.111   .     S
C1130  H1132   1.114   .     S
C1130  H1131   1.109   .     S
O1134  C1135   1.412   .     S
C1135  H1137   1.109   .     S
C1135  H1138   1.111   .     S
C1135  H1136   1.114   .     S
O1139  C1140   1.410   .     S
C1140  H1142   1.113   .     S
C1140  H1143   1.113   .     S
C1140  H1141   1.109   .     S
O1144  C1145   1.410   .     S
C1145  H1147   1.109   .     S
C1145  H1146   1.113   .     S
C1145  H1148   1.113   .     S
C1149  O1194   1.276   .     A
C1149  O1191   1.280   .     A
C1149  C1158   1.409   .     S
C1150  O1192   1.280   .     A
C1150  O1193   1.276   .     A
C1150  C1157   1.409   .     S
C1151  C1176   1.408   .     A
C1151  O1201   1.383   .     S
C1152  C1175   1.408   .     A
C1152  O1206   1.384   .     S
C1152  C440    1.395   1_556 S
C1153  O1211   1.386   .     S
C1153  C1158   1.401   .     A
C1154  C1157   1.401   .     A
C1154  O1216   1.386   .     S
C1154  C992    1.384   1_655 S
C1155  O1221   1.385   .     S
C1155  C1157   1.401   .     A
C1155  C989    1.384   1_655 S
C1156  O1226   1.385   .     S
C1156  C1158   1.401   .     A
C1159  N1190   1.366   .     A
C1159  H1185   1.082   .     S
C1160  N1189   1.366   .     A
C1160  H1186   1.082   .     S
C1160  C1407   1.416   .     S
C1161  N1190   1.366   .     A
C1161  H1187   1.082   .     S
C1162  N1189   1.366   .     A
C1162  H1188   1.082   .     S
C1162  C1405   1.416   .     S
C1163  O1195   1.285   .     A
C1163  O1198   1.286   .     A
C1163  C1168   1.433   .     S
C1164  O1196   1.286   .     A
C1164  O1197   1.286   .     A
C1164  C1167   1.434   .     S
C1165  C1175   1.387   .     A
C1165  H1179   1.084   .     S
C1165  C1167   1.395   .     A
C1166  C1176   1.387   .     A
C1166  H1180   1.084   .     S
C1166  C1168   1.395   .     A
C1167  C1169   1.395   .     A
C1168  C1170   1.395   .     A
C1169  H1181   1.085   .     S
C1169  C1171   1.383   .     A
C1170  H1182   1.085   .     S
C1170  C1172   1.382   .     A
C1171  C1177   1.398   .     A
C1171  C1173   1.411   .     A
C1172  C1174   1.411   .     A
C1172  C1178   1.398   .     A
C1173  C1175   1.415   .     A
C1173  C436    1.392   1_556 S
C1174  C1176   1.415   .     A
C1177  H1183   1.084   .     S
C1177  C413    1.394   1_556 S
C1178  H1184   1.084   .     S
N1189  Zn1199  2.007   .     S
N1190  Zn1200  2.007   .     S
O1191  Zn1199  1.984   .     S
O1192  Zn1200  1.984   .     S
O1193  Zn1199  1.989   .     S
O1194  Zn1200  1.989   .     S
O1195  Zn1199  2.015   .     S
O1196  Zn1200  2.015   .     S
O1197  Zn1199  2.016   .     S
O1198  Zn1200  2.016   .     S
O1201  C1202   1.410   .     S
C1202  H1204   1.113   .     S
C1202  H1203   1.109   .     S
C1202  H1205   1.114   .     S
O1206  C1207   1.410   .     S
C1207  H1208   1.112   .     S
C1207  H1209   1.114   .     S
C1207  H1456   1.110   .     S
O1211  C1212   1.412   .     S
C1212  H1215   1.111   .     S
C1212  H1214   1.114   .     S
C1212  H1213   1.109   .     S
O1216  C1217   1.412   .     S
C1217  H1219   1.109   .     S
C1217  H1220   1.111   .     S
C1217  H1218   1.114   .     S
O1221  C1222   1.410   .     S
C1222  H1224   1.113   .     S
C1222  H1225   1.113   .     S
C1222  H1223   1.109   .     S
O1226  C1227   1.410   .     S
C1227  H1229   1.109   .     S
C1227  H1228   1.113   .     S
C1227  H1230   1.113   .     S
C1231  O1276   1.276   .     A
C1231  O1273   1.280   .     A
C1231  C1240   1.409   .     S
C1232  O1274   1.280   .     A
C1232  O1275   1.276   .     A
C1232  C1239   1.409   .     S
C1233  C1258   1.408   .     A
C1233  O1283   1.383   .     S
C1234  C1257   1.408   .     A
C1234  O1288   1.384   .     S
C1234  C522    1.395   1_556 S
C1235  O1293   1.386   .     S
C1235  C1240   1.401   .     A
C1235  C1401   1.384   1_455 S
C1236  C1239   1.401   .     A
C1236  O1298   1.386   .     S
C1236  C1320   1.384   .     S
C1237  O1303   1.385   .     S
C1237  C1239   1.401   .     A
C1237  C1317   1.384   .     S
C1238  O1308   1.385   .     S
C1238  C1240   1.401   .     A
C1238  C1400   1.384   1_455 S
C1241  N1272   1.366   .     A
C1241  H1267   1.082   .     S
C1242  N1271   1.366   .     A
C1242  H1268   1.082   .     S
C1242  C751    1.416   1_565 S
C1243  N1272   1.366   .     A
C1243  H1269   1.082   .     S
C1244  N1271   1.366   .     A
C1244  H1270   1.082   .     S
C1244  C749    1.416   1_565 S
C1245  O1277   1.285   .     A
C1245  O1280   1.286   .     A
C1245  C1250   1.433   .     S
C1246  O1278   1.286   .     A
C1246  O1279   1.286   .     A
C1246  C1249   1.434   .     S
C1247  C1257   1.387   .     A
C1247  H1261   1.084   .     S
C1247  C1249   1.395   .     A
C1248  C1258   1.387   .     A
C1248  H1262   1.084   .     S
C1248  C1250   1.395   .     A
C1249  C1251   1.395   .     A
C1250  C1252   1.395   .     A
C1251  H1263   1.085   .     S
C1251  C1253   1.383   .     A
C1252  H1264   1.085   .     S
C1252  C1254   1.382   .     A
C1253  C1259   1.398   .     A
C1253  C1255   1.411   .     A
C1254  C1256   1.411   .     A
C1254  C1260   1.398   .     A
C1255  C1257   1.415   .     A
C1255  C518    1.392   1_556 S
C1256  C1258   1.415   .     A
C1259  H1265   1.084   .     S
C1259  C495    1.394   1_556 S
C1260  H1266   1.084   .     S
N1271  Zn1281  2.007   .     S
N1272  Zn1282  2.007   .     S
O1273  Zn1281  1.984   .     S
O1274  Zn1282  1.984   .     S
O1275  Zn1281  1.989   .     S
O1276  Zn1282  1.989   .     S
O1277  Zn1281  2.015   .     S
O1278  Zn1282  2.015   .     S
O1279  Zn1281  2.016   .     S
O1280  Zn1282  2.016   .     S
O1283  C1284   1.410   .     S
C1284  H1286   1.113   .     S
C1284  H1285   1.109   .     S
C1284  H1287   1.114   .     S
O1288  C1289   1.410   .     S
C1289  H1290   1.112   .     S
C1289  H1291   1.114   .     S
C1289  H800    1.110   1_565 S
O1293  C1294   1.412   .     S
C1294  H1297   1.111   .     S
C1294  H1296   1.114   .     S
C1294  H1295   1.109   .     S
O1298  C1299   1.412   .     S
C1299  H1301   1.109   .     S
C1299  H1302   1.111   .     S
C1299  H1300   1.114   .     S
O1303  C1304   1.410   .     S
C1304  H1306   1.113   .     S
C1304  H1307   1.113   .     S
C1304  H1305   1.109   .     S
O1308  C1309   1.410   .     S
C1309  H1311   1.109   .     S
C1309  H1310   1.113   .     S
C1309  H1312   1.113   .     S
C1313  O1358   1.276   .     A
C1313  O1355   1.280   .     A
C1313  C1322   1.409   .     S
C1314  O1356   1.280   .     A
C1314  O1357   1.276   .     A
C1314  C1321   1.409   .     S
C1315  C1340   1.408   .     A
C1315  O1365   1.383   .     S
C1316  C1339   1.408   .     A
C1316  O1370   1.384   .     S
C1316  C604    1.395   1_556 S
C1317  O1375   1.386   .     S
C1317  C1322   1.401   .     A
C1318  C1321   1.401   .     A
C1318  O1380   1.386   .     S
C1318  C1402   1.384   .     S
C1319  O1385   1.385   .     S
C1319  C1321   1.401   .     A
C1319  C1399   1.384   .     S
C1320  O1390   1.385   .     S
C1320  C1322   1.401   .     A
C1323  N1354   1.366   .     A
C1323  H1349   1.082   .     S
C1324  N1353   1.366   .     A
C1324  H1350   1.082   .     S
C1324  C833    1.416   1_565 S
C1325  N1354   1.366   .     A
C1325  H1351   1.082   .     S
C1326  N1353   1.366   .     A
C1326  H1352   1.082   .     S
C1326  C831    1.416   1_565 S
C1327  O1359   1.285   .     A
C1327  O1362   1.286   .     A
C1327  C1332   1.433   .     S
C1328  O1360   1.286   .     A
C1328  O1361   1.286   .     A
C1328  C1331   1.434   .     S
C1329  C1339   1.387   .     A
C1329  H1343   1.084   .     S
C1329  C1331   1.395   .     A
C1330  C1340   1.387   .     A
C1330  H1344   1.084   .     S
C1330  C1332   1.395   .     A
C1331  C1333   1.395   .     A
C1332  C1334   1.395   .     A
C1333  H1345   1.085   .     S
C1333  C1335   1.383   .     A
C1334  H1346   1.085   .     S
C1334  C1336   1.382   .     A
C1335  C1341   1.398   .     A
C1335  C1337   1.411   .     A
C1336  C1338   1.411   .     A
C1336  C1342   1.398   .     A
C1337  C1339   1.415   .     A
C1337  C600    1.392   1_556 S
C1338  C1340   1.415   .     A
C1341  H1347   1.084   .     S
C1341  C577    1.394   1_556 S
C1342  H1348   1.084   .     S
N1353  Zn1363  2.007   .     S
N1354  Zn1364  2.007   .     S
O1355  Zn1363  1.984   .     S
O1356  Zn1364  1.984   .     S
O1357  Zn1363  1.989   .     S
O1358  Zn1364  1.989   .     S
O1359  Zn1363  2.015   .     S
O1360  Zn1364  2.015   .     S
O1361  Zn1363  2.016   .     S
O1362  Zn1364  2.016   .     S
O1365  C1366   1.410   .     S
C1366  H1368   1.113   .     S
C1366  H1367   1.109   .     S
C1366  H1369   1.114   .     S
O1370  C1371   1.410   .     S
C1371  H1372   1.112   .     S
C1371  H1373   1.114   .     S
C1371  H882    1.110   1_565 S
O1375  C1376   1.412   .     S
C1376  H1379   1.111   .     S
C1376  H1378   1.114   .     S
C1376  H1377   1.109   .     S
O1380  C1381   1.412   .     S
C1381  H1383   1.109   .     S
C1381  H1384   1.111   .     S
C1381  H1382   1.114   .     S
O1385  C1386   1.410   .     S
C1386  H1388   1.113   .     S
C1386  H1389   1.113   .     S
C1386  H1387   1.109   .     S
O1390  C1391   1.410   .     S
C1391  H1393   1.109   .     S
C1391  H1392   1.113   .     S
C1391  H1394   1.113   .     S
C1395  O1440   1.276   .     A
C1395  O1437   1.280   .     A
C1395  C1404   1.409   .     S
C1396  O1438   1.280   .     A
C1396  O1439   1.276   .     A
C1396  C1403   1.409   .     S
C1397  C1422   1.408   .     A
C1397  O1447   1.383   .     S
C1398  C1421   1.408   .     A
C1398  O1452   1.384   .     S
C1398  C686    1.395   1_556 S
C1399  O1457   1.386   .     S
C1399  C1404   1.401   .     A
C1400  C1403   1.401   .     A
C1400  O1462   1.386   .     S
C1400  C1238   1.384   1_655 S
C1401  O1467   1.385   .     S
C1401  C1403   1.401   .     A
C1401  C1235   1.384   1_655 S
C1402  O1472   1.385   .     S
C1402  C1404   1.401   .     A
C1405  N1436   1.366   .     A
C1405  H1431   1.082   .     S
C1406  N1435   1.366   .     A
C1406  H1432   1.082   .     S
C1406  C915    1.416   1_565 S
C1407  N1436   1.366   .     A
C1407  H1433   1.082   .     S
C1408  N1435   1.366   .     A
C1408  H1434   1.082   .     S
C1408  C913    1.416   1_565 S
C1409  O1441   1.285   .     A
C1409  O1444   1.286   .     A
C1409  C1414   1.433   .     S
C1410  O1442   1.286   .     A
C1410  O1443   1.286   .     A
C1410  C1413   1.434   .     S
C1411  C1421   1.387   .     A
C1411  H1425   1.084   .     S
C1411  C1413   1.395   .     A
C1412  C1422   1.387   .     A
C1412  H1426   1.084   .     S
C1412  C1414   1.395   .     A
C1413  C1415   1.395   .     A
C1414  C1416   1.395   .     A
C1415  H1427   1.085   .     S
C1415  C1417   1.383   .     A
C1416  H1428   1.085   .     S
C1416  C1418   1.382   .     A
C1417  C1423   1.398   .     A
C1417  C1419   1.411   .     A
C1418  C1420   1.411   .     A
C1418  C1424   1.398   .     A
C1419  C1421   1.415   .     A
C1419  C682    1.392   1_556 S
C1420  C1422   1.415   .     A
C1423  H1429   1.084   .     S
C1423  C659    1.394   1_556 S
C1424  H1430   1.084   .     S
N1435  Zn1445  2.007   .     S
N1436  Zn1446  2.007   .     S
O1437  Zn1445  1.984   .     S
O1438  Zn1446  1.984   .     S
O1439  Zn1445  1.989   .     S
O1440  Zn1446  1.989   .     S
O1441  Zn1445  2.015   .     S
O1442  Zn1446  2.015   .     S
O1443  Zn1445  2.016   .     S
O1444  Zn1446  2.016   .     S
O1447  C1448   1.410   .     S
C1448  H1450   1.113   .     S
C1448  H1449   1.109   .     S
C1448  H1451   1.114   .     S
O1452  C1453   1.410   .     S
C1453  H1454   1.112   .     S
C1453  H1455   1.114   .     S
C1453  H964    1.110   1_565 S
O1457  C1458   1.412   .     S
C1458  H1461   1.111   .     S
C1458  H1460   1.114   .     S
C1458  H1459   1.109   .     S
O1462  C1463   1.412   .     S
C1463  H1465   1.109   .     S
C1463  H1466   1.111   .     S
C1463  H1464   1.114   .     S
O1467  C1468   1.410   .     S
C1468  H1470   1.113   .     S
C1468  H1471   1.113   .     S
C1468  H1469   1.109   .     S
O1472  C1473   1.410   .     S
C1473  H1475   1.109   .     S
C1473  H1474   1.113   .     S
C1473  H1476   1.113   .     S
