data_str_m2_o2_o10_pcu_sym.251
_audit_creation_date              2020-01-03
_audit_creation_method            'Materials Studio'
_symmetry_space_group_name_H-M    'P1'
_symmetry_Int_Tables_number       1
_symmetry_cell_setting            triclinic
loop_
_symmetry_equiv_pos_as_xyz
  x,y,z
_cell_length_a                    26.3732
_cell_length_b                    30.2625
_cell_length_c                    27.9766
_cell_angle_alpha                 90.0595
_cell_angle_beta                  96.9052
_cell_angle_gamma                 90.6314
loop_
_atom_site_label
_atom_site_type_symbol
_atom_site_fract_x
_atom_site_fract_y
_atom_site_fract_z
_atom_site_U_iso_or_equiv
_atom_site_adp_type
_atom_site_occupancy
O1     O     0.16667   0.18573   0.29072   0.00000  Uiso   1.00
O2     O     0.16666   0.31428   0.20929   0.00000  Uiso   1.00
O3     O     0.16667   0.18573   0.20928   0.00000  Uiso   1.00
O4     O     0.16666   0.31427   0.29072   0.00000  Uiso   1.00
C5     C     0.16639   0.16519   0.24999   0.00000  Uiso   1.00
C6     C     0.16354   0.33509   0.24980   0.00000  Uiso   1.00
O7     O     0.09161   0.25000   0.28132   0.00000  Uiso   1.00
O8     O     0.24172   0.25001   0.21868   0.00000  Uiso   1.00
O9     O     0.09161   0.25000   0.19989   0.00000  Uiso   1.00
O10    O     0.24172   0.25000   0.30012   0.00000  Uiso   1.00
C11    C     0.06828   0.24887   0.23823   0.00000  Uiso   1.00
C12    C     0.26508   0.24921   0.26162   0.00000  Uiso   1.00
Cu13   Cu    0.16667   0.25000   0.29822   0.00000  Uiso   1.00
Cu14   Cu    0.16667   0.25001   0.20179   0.00000  Uiso   1.00
C15    C     0.01455   0.23820   0.23405   0.00000  Uiso   1.00
C16    C     0.31908   0.25742   0.26520   0.00000  Uiso   1.00
C17    C     0.11652   0.04984   0.25852   0.00000  Uiso   1.00
C18    C     0.16944   0.45254   0.20659   0.00000  Uiso   1.00
H19    H     0.08190   0.03373   0.26720   0.00000  Uiso   1.00
H20    H     0.18043   0.46924   0.17511   0.00000  Uiso   1.00
C21    C     0.12045   0.09566   0.26094   0.00000  Uiso   1.00
C22    C     0.17051   0.40674   0.20848   0.00000  Uiso   1.00
H23    H     0.08873   0.11443   0.27108   0.00000  Uiso   1.00
H24    H     0.18200   0.38943   0.17800   0.00000  Uiso   1.00
C25    C     0.16481   0.11712   0.24985   0.00000  Uiso   1.00
C26    C     0.15763   0.38375   0.24904   0.00000  Uiso   1.00
C27    C     0.20611   0.09242   0.23703   0.00000  Uiso   1.00
C28    C     0.13984   0.40821   0.28725   0.00000  Uiso   1.00
C29    C     0.20138   0.04648   0.23368   0.00000  Uiso   1.00
C30    C     0.13956   0.45444   0.28482   0.00000  Uiso   1.00
H31    H     0.23344   0.02722   0.22495   0.00000  Uiso   1.00
H32    H     0.12735   0.47341   0.31415   0.00000  Uiso   1.00
C33    C     0.15696   0.02504   0.24475   0.00000  Uiso   1.00
C34    C     0.15468   0.47661   0.24505   0.00000  Uiso   1.00
C35    C     0.20956   0.26316   0.05749   0.00000  Uiso   1.00
C36    C     0.14733   0.21167   0.44348   0.00000  Uiso   1.00
C37    C     0.20775   0.26663   0.10833   0.00000  Uiso   1.00
C38    C     0.14505   0.21464   0.39249   0.00000  Uiso   1.00
N39    N     0.16667   0.25001   0.12935   0.00000  Uiso   1.00
N40    N     0.16667   0.24999   0.37066   0.00000  Uiso   1.00
C41    C     0.12569   0.23302   0.09955   0.00000  Uiso   1.00
C42    C     0.18588   0.28497   0.39945   0.00000  Uiso   1.00
C43    C     0.12334   0.23569   0.04916   0.00000  Uiso   1.00
C44    C     0.18165   0.28535   0.44924   0.00000  Uiso   1.00
H45    H     0.08824   0.22615   0.02743   0.00000  Uiso   1.00
H46    H     0.19513   0.31406   0.47039   0.00000  Uiso   1.00
C47    C     0.16579   0.24882   0.02707   0.00000  Uiso   1.00
C48    C     0.16386   0.24852   0.47261   0.00000  Uiso   1.00
N49    N     0.33173   0.19886   0.20694   0.00000  Uiso   1.00
O50    O     0.29424   0.19947   0.17228   0.00000  Uiso   1.00
O51    O     0.02804   0.16466   0.21058   0.00000  Uiso   1.00
N52    N     0.00451   0.29442   0.29430   0.00000  Uiso   1.00
O53    O     0.01908   0.28852   0.33990   0.00000  Uiso   1.00
O54    O     0.32609   0.33400   0.27892   0.00000  Uiso   1.00
N55    N     0.25406   0.11309   0.23103   0.00000  Uiso   1.00
O56    O     0.27334   0.14256   0.26213   0.00000  Uiso   1.00
O57    O     0.28276   0.09660   0.20087   0.00000  Uiso   1.00
N58    N     0.11964   0.38758   0.32736   0.00000  Uiso   1.00
O59    O     0.09071   0.35266   0.32060   0.00000  Uiso   1.00
O60    O     0.11996   0.40902   0.36777   0.00000  Uiso   1.00
N61    N     0.25532   0.27379   0.03714   0.00000  Uiso   1.00
H62    H     0.27899   0.29716   0.05517   0.00000  Uiso   1.00
C63    C     0.28259   0.23604   0.02186   0.00000  Uiso   1.00
H64    H     0.31962   0.24708   0.01050   0.00000  Uiso   1.00
H65    H     0.26037   0.21938   0.49067   0.00000  Uiso   1.00
H66    H     0.28990   0.21196   0.05174   0.00000  Uiso   1.00
N67    N     0.13529   0.17033   0.46394   0.00000  Uiso   1.00
H68    H     0.10513   0.17011   0.48401   0.00000  Uiso   1.00
C69    C     0.17874   0.14516   0.48466   0.00000  Uiso   1.00
H70    H     0.16583   0.11149   0.49374   0.00000  Uiso   1.00
H71    H     0.19710   0.16125   0.01811   0.00000  Uiso   1.00
H72    H     0.20703   0.14200   0.45847   0.00000  Uiso   1.00
N73    N     0.24959   0.28654   0.13754   0.00000  Uiso   1.00
H74    H     0.28469   0.27342   0.13341   0.00000  Uiso   1.00
C75    C     0.25039   0.33435   0.13891   0.00000  Uiso   1.00
H76    H     0.25592   0.34540   0.17702   0.00000  Uiso   1.00
H77    H     0.28287   0.34747   0.12113   0.00000  Uiso   1.00
H78    H     0.21452   0.34841   0.12038   0.00000  Uiso   1.00
N79    N     0.12081   0.17973   0.36410   0.00000  Uiso   1.00
H80    H     0.13686   0.14931   0.37225   0.00000  Uiso   1.00
C81    C     0.06568   0.17819   0.36152   0.00000  Uiso   1.00
H82    H     0.05018   0.15283   0.33488   0.00000  Uiso   1.00
H83    H     0.04928   0.21043   0.34985   0.00000  Uiso   1.00
H84    H     0.05360   0.16949   0.39703   0.00000  Uiso   1.00
N85    N     0.08520   0.21005   0.11852   0.00000  Uiso   1.00
O86    O     0.09243   0.16975   0.13366   0.00000  Uiso   1.00
O87    O     0.03878   0.22420   0.10867   0.00000  Uiso   1.00
N88    N     0.21241   0.32141   0.38068   0.00000  Uiso   1.00
O89    O     0.25294   0.31399   0.36001   0.00000  Uiso   1.00
O90    O     0.20663   0.36095   0.39734   0.00000  Uiso   1.00
O91    O     0.50000   0.18573   0.29072   0.00000  Uiso   1.00
O92    O     0.50000   0.31428   0.20929   0.00000  Uiso   1.00
O93    O     0.50000   0.18573   0.20928   0.00000  Uiso   1.00
O94    O     0.50000   0.31427   0.29072   0.00000  Uiso   1.00
C95    C     0.49972   0.16519   0.24999   0.00000  Uiso   1.00
C96    C     0.49688   0.33509   0.24980   0.00000  Uiso   1.00
O97    O     0.42495   0.25000   0.28132   0.00000  Uiso   1.00
O98    O     0.57505   0.25001   0.21868   0.00000  Uiso   1.00
O99    O     0.42495   0.25000   0.19989   0.00000  Uiso   1.00
O100   O     0.57505   0.25000   0.30012   0.00000  Uiso   1.00
C101   C     0.40161   0.24887   0.23823   0.00000  Uiso   1.00
C102   C     0.59841   0.24921   0.26162   0.00000  Uiso   1.00
Cu103  Cu    0.50000   0.25000   0.29822   0.00000  Uiso   1.00
Cu104  Cu    0.50000   0.25001   0.20179   0.00000  Uiso   1.00
C105   C     0.34788   0.23820   0.23405   0.00000  Uiso   1.00
C106   C     0.65241   0.25742   0.26520   0.00000  Uiso   1.00
C107   C     0.44985   0.04984   0.25852   0.00000  Uiso   1.00
C108   C     0.50278   0.45254   0.20659   0.00000  Uiso   1.00
H109   H     0.41524   0.03373   0.26720   0.00000  Uiso   1.00
H110   H     0.51376   0.46924   0.17511   0.00000  Uiso   1.00
C111   C     0.45379   0.09566   0.26094   0.00000  Uiso   1.00
C112   C     0.50384   0.40674   0.20848   0.00000  Uiso   1.00
H113   H     0.42206   0.11443   0.27108   0.00000  Uiso   1.00
H114   H     0.51533   0.38943   0.17800   0.00000  Uiso   1.00
C115   C     0.49815   0.11712   0.24985   0.00000  Uiso   1.00
C116   C     0.49096   0.38375   0.24904   0.00000  Uiso   1.00
C117   C     0.53944   0.09242   0.23703   0.00000  Uiso   1.00
C118   C     0.47317   0.40821   0.28725   0.00000  Uiso   1.00
C119   C     0.53471   0.04648   0.23368   0.00000  Uiso   1.00
C120   C     0.47289   0.45444   0.28482   0.00000  Uiso   1.00
H121   H     0.56677   0.02722   0.22495   0.00000  Uiso   1.00
H122   H     0.46068   0.47341   0.31415   0.00000  Uiso   1.00
C123   C     0.49029   0.02504   0.24475   0.00000  Uiso   1.00
C124   C     0.48802   0.47661   0.24505   0.00000  Uiso   1.00
C125   C     0.54289   0.26316   0.05749   0.00000  Uiso   1.00
C126   C     0.48067   0.21167   0.44348   0.00000  Uiso   1.00
C127   C     0.54108   0.26663   0.10833   0.00000  Uiso   1.00
C128   C     0.47839   0.21464   0.39249   0.00000  Uiso   1.00
N129   N     0.50000   0.25001   0.12935   0.00000  Uiso   1.00
N130   N     0.50000   0.24999   0.37066   0.00000  Uiso   1.00
C131   C     0.45902   0.23302   0.09955   0.00000  Uiso   1.00
C132   C     0.51922   0.28497   0.39945   0.00000  Uiso   1.00
C133   C     0.45668   0.23569   0.04916   0.00000  Uiso   1.00
C134   C     0.51498   0.28535   0.44924   0.00000  Uiso   1.00
H135   H     0.42157   0.22615   0.02743   0.00000  Uiso   1.00
H136   H     0.52847   0.31406   0.47039   0.00000  Uiso   1.00
C137   C     0.49912   0.24882   0.02707   0.00000  Uiso   1.00
C138   C     0.49719   0.24852   0.47261   0.00000  Uiso   1.00
N139   N     0.66506   0.19886   0.20694   0.00000  Uiso   1.00
O140   O     0.62757   0.19947   0.17228   0.00000  Uiso   1.00
O141   O     0.36137   0.16466   0.21058   0.00000  Uiso   1.00
N142   N     0.33784   0.29442   0.29430   0.00000  Uiso   1.00
O143   O     0.35241   0.28852   0.33990   0.00000  Uiso   1.00
O144   O     0.65943   0.33400   0.27892   0.00000  Uiso   1.00
N145   N     0.58739   0.11309   0.23103   0.00000  Uiso   1.00
O146   O     0.60668   0.14256   0.26213   0.00000  Uiso   1.00
O147   O     0.61609   0.09660   0.20087   0.00000  Uiso   1.00
N148   N     0.45297   0.38758   0.32736   0.00000  Uiso   1.00
O149   O     0.42404   0.35266   0.32060   0.00000  Uiso   1.00
O150   O     0.45329   0.40902   0.36777   0.00000  Uiso   1.00
N151   N     0.58865   0.27379   0.03714   0.00000  Uiso   1.00
H152   H     0.61232   0.29716   0.05517   0.00000  Uiso   1.00
C153   C     0.61593   0.23604   0.02186   0.00000  Uiso   1.00
H154   H     0.65295   0.24708   0.01050   0.00000  Uiso   1.00
H155   H     0.59370   0.21938   0.49067   0.00000  Uiso   1.00
H156   H     0.62323   0.21196   0.05174   0.00000  Uiso   1.00
N157   N     0.46862   0.17033   0.46394   0.00000  Uiso   1.00
H158   H     0.43846   0.17011   0.48401   0.00000  Uiso   1.00
C159   C     0.51207   0.14516   0.48466   0.00000  Uiso   1.00
H160   H     0.49916   0.11149   0.49374   0.00000  Uiso   1.00
H161   H     0.53044   0.16125   0.01811   0.00000  Uiso   1.00
H162   H     0.54036   0.14200   0.45847   0.00000  Uiso   1.00
N163   N     0.58292   0.28654   0.13754   0.00000  Uiso   1.00
H164   H     0.61802   0.27342   0.13341   0.00000  Uiso   1.00
C165   C     0.58373   0.33435   0.13891   0.00000  Uiso   1.00
H166   H     0.58926   0.34540   0.17702   0.00000  Uiso   1.00
H167   H     0.61620   0.34747   0.12113   0.00000  Uiso   1.00
H168   H     0.54785   0.34841   0.12038   0.00000  Uiso   1.00
N169   N     0.45414   0.17973   0.36410   0.00000  Uiso   1.00
H170   H     0.47020   0.14931   0.37225   0.00000  Uiso   1.00
C171   C     0.39902   0.17819   0.36152   0.00000  Uiso   1.00
H172   H     0.38351   0.15283   0.33488   0.00000  Uiso   1.00
H173   H     0.38261   0.21043   0.34985   0.00000  Uiso   1.00
H174   H     0.38694   0.16949   0.39703   0.00000  Uiso   1.00
N175   N     0.41853   0.21005   0.11852   0.00000  Uiso   1.00
O176   O     0.42576   0.16975   0.13366   0.00000  Uiso   1.00
O177   O     0.37211   0.22420   0.10867   0.00000  Uiso   1.00
N178   N     0.54574   0.32141   0.38068   0.00000  Uiso   1.00
O179   O     0.58628   0.31399   0.36001   0.00000  Uiso   1.00
O180   O     0.53996   0.36095   0.39734   0.00000  Uiso   1.00
O181   O     0.83334   0.18573   0.29072   0.00000  Uiso   1.00
O182   O     0.83333   0.31428   0.20929   0.00000  Uiso   1.00
O183   O     0.83334   0.18573   0.20928   0.00000  Uiso   1.00
O184   O     0.83333   0.31427   0.29072   0.00000  Uiso   1.00
C185   C     0.83306   0.16519   0.24999   0.00000  Uiso   1.00
C186   C     0.83021   0.33509   0.24980   0.00000  Uiso   1.00
O187   O     0.75828   0.25000   0.28132   0.00000  Uiso   1.00
O188   O     0.90839   0.25001   0.21868   0.00000  Uiso   1.00
O189   O     0.75828   0.25000   0.19989   0.00000  Uiso   1.00
O190   O     0.90839   0.25000   0.30012   0.00000  Uiso   1.00
C191   C     0.73495   0.24887   0.23823   0.00000  Uiso   1.00
C192   C     0.93174   0.24921   0.26162   0.00000  Uiso   1.00
Cu193  Cu    0.83333   0.25000   0.29822   0.00000  Uiso   1.00
Cu194  Cu    0.83333   0.25001   0.20179   0.00000  Uiso   1.00
C195   C     0.68122   0.23820   0.23405   0.00000  Uiso   1.00
C196   C     0.98574   0.25742   0.26520   0.00000  Uiso   1.00
C197   C     0.78319   0.04984   0.25852   0.00000  Uiso   1.00
C198   C     0.83611   0.45254   0.20659   0.00000  Uiso   1.00
H199   H     0.74857   0.03373   0.26720   0.00000  Uiso   1.00
H200   H     0.84710   0.46924   0.17511   0.00000  Uiso   1.00
C201   C     0.78712   0.09566   0.26094   0.00000  Uiso   1.00
C202   C     0.83717   0.40674   0.20848   0.00000  Uiso   1.00
H203   H     0.75539   0.11443   0.27108   0.00000  Uiso   1.00
H204   H     0.84867   0.38943   0.17800   0.00000  Uiso   1.00
C205   C     0.83148   0.11712   0.24985   0.00000  Uiso   1.00
C206   C     0.82430   0.38375   0.24904   0.00000  Uiso   1.00
C207   C     0.87277   0.09242   0.23703   0.00000  Uiso   1.00
C208   C     0.80650   0.40821   0.28725   0.00000  Uiso   1.00
C209   C     0.86805   0.04648   0.23368   0.00000  Uiso   1.00
C210   C     0.80623   0.45444   0.28482   0.00000  Uiso   1.00
H211   H     0.90011   0.02722   0.22495   0.00000  Uiso   1.00
H212   H     0.79402   0.47341   0.31415   0.00000  Uiso   1.00
C213   C     0.82362   0.02504   0.24475   0.00000  Uiso   1.00
C214   C     0.82135   0.47661   0.24505   0.00000  Uiso   1.00
C215   C     0.87623   0.26316   0.05749   0.00000  Uiso   1.00
C216   C     0.81400   0.21167   0.44348   0.00000  Uiso   1.00
C217   C     0.87441   0.26663   0.10833   0.00000  Uiso   1.00
C218   C     0.81172   0.21464   0.39249   0.00000  Uiso   1.00
N219   N     0.83333   0.25001   0.12935   0.00000  Uiso   1.00
N220   N     0.83333   0.24999   0.37066   0.00000  Uiso   1.00
C221   C     0.79235   0.23302   0.09955   0.00000  Uiso   1.00
C222   C     0.85255   0.28497   0.39945   0.00000  Uiso   1.00
C223   C     0.79001   0.23569   0.04916   0.00000  Uiso   1.00
C224   C     0.84832   0.28535   0.44924   0.00000  Uiso   1.00
H225   H     0.75490   0.22615   0.02743   0.00000  Uiso   1.00
H226   H     0.86180   0.31406   0.47039   0.00000  Uiso   1.00
C227   C     0.83245   0.24882   0.02707   0.00000  Uiso   1.00
C228   C     0.83052   0.24852   0.47261   0.00000  Uiso   1.00
N229   N     0.99840   0.19886   0.20694   0.00000  Uiso   1.00
O230   O     0.96090   0.19947   0.17228   0.00000  Uiso   1.00
O231   O     0.69471   0.16466   0.21058   0.00000  Uiso   1.00
N232   N     0.67117   0.29442   0.29430   0.00000  Uiso   1.00
O233   O     0.68574   0.28852   0.33990   0.00000  Uiso   1.00
O234   O     0.99276   0.33400   0.27892   0.00000  Uiso   1.00
N235   N     0.92073   0.11309   0.23103   0.00000  Uiso   1.00
O236   O     0.94001   0.14256   0.26213   0.00000  Uiso   1.00
O237   O     0.94943   0.09660   0.20087   0.00000  Uiso   1.00
N238   N     0.78631   0.38758   0.32736   0.00000  Uiso   1.00
O239   O     0.75737   0.35266   0.32060   0.00000  Uiso   1.00
O240   O     0.78662   0.40902   0.36777   0.00000  Uiso   1.00
N241   N     0.92199   0.27379   0.03714   0.00000  Uiso   1.00
H242   H     0.94566   0.29716   0.05517   0.00000  Uiso   1.00
C243   C     0.94926   0.23604   0.02186   0.00000  Uiso   1.00
H244   H     0.98628   0.24708   0.01050   0.00000  Uiso   1.00
H245   H     0.92703   0.21938   0.49067   0.00000  Uiso   1.00
H246   H     0.95656   0.21196   0.05174   0.00000  Uiso   1.00
N247   N     0.80196   0.17033   0.46394   0.00000  Uiso   1.00
H248   H     0.77180   0.17011   0.48401   0.00000  Uiso   1.00
C249   C     0.84541   0.14516   0.48466   0.00000  Uiso   1.00
H250   H     0.83249   0.11149   0.49374   0.00000  Uiso   1.00
H251   H     0.86377   0.16125   0.01811   0.00000  Uiso   1.00
H252   H     0.87369   0.14200   0.45847   0.00000  Uiso   1.00
N253   N     0.91625   0.28654   0.13754   0.00000  Uiso   1.00
H254   H     0.95135   0.27342   0.13341   0.00000  Uiso   1.00
C255   C     0.91706   0.33435   0.13891   0.00000  Uiso   1.00
H256   H     0.92259   0.34540   0.17702   0.00000  Uiso   1.00
H257   H     0.94953   0.34747   0.12113   0.00000  Uiso   1.00
H258   H     0.88118   0.34841   0.12038   0.00000  Uiso   1.00
N259   N     0.78747   0.17973   0.36410   0.00000  Uiso   1.00
H260   H     0.80353   0.14931   0.37225   0.00000  Uiso   1.00
C261   C     0.73235   0.17819   0.36152   0.00000  Uiso   1.00
H262   H     0.71684   0.15283   0.33488   0.00000  Uiso   1.00
H263   H     0.71594   0.21043   0.34985   0.00000  Uiso   1.00
H264   H     0.72027   0.16949   0.39703   0.00000  Uiso   1.00
N265   N     0.75187   0.21005   0.11852   0.00000  Uiso   1.00
O266   O     0.75909   0.16975   0.13366   0.00000  Uiso   1.00
O267   O     0.70545   0.22420   0.10867   0.00000  Uiso   1.00
N268   N     0.87908   0.32141   0.38068   0.00000  Uiso   1.00
O269   O     0.91961   0.31399   0.36001   0.00000  Uiso   1.00
O270   O     0.87329   0.36095   0.39734   0.00000  Uiso   1.00
O271   O     0.16667   0.68573   0.29072   0.00000  Uiso   1.00
O272   O     0.16666   0.81428   0.20929   0.00000  Uiso   1.00
O273   O     0.16667   0.68573   0.20928   0.00000  Uiso   1.00
O274   O     0.16666   0.81427   0.29072   0.00000  Uiso   1.00
C275   C     0.16639   0.66519   0.24999   0.00000  Uiso   1.00
C276   C     0.16354   0.83509   0.24980   0.00000  Uiso   1.00
O277   O     0.09161   0.75000   0.28132   0.00000  Uiso   1.00
O278   O     0.24172   0.75001   0.21868   0.00000  Uiso   1.00
O279   O     0.09161   0.75000   0.19989   0.00000  Uiso   1.00
O280   O     0.24172   0.75000   0.30012   0.00000  Uiso   1.00
C281   C     0.06828   0.74887   0.23823   0.00000  Uiso   1.00
C282   C     0.26508   0.74921   0.26162   0.00000  Uiso   1.00
Cu283  Cu    0.16667   0.75000   0.29822   0.00000  Uiso   1.00
Cu284  Cu    0.16667   0.75001   0.20179   0.00000  Uiso   1.00
C285   C     0.01455   0.73820   0.23405   0.00000  Uiso   1.00
C286   C     0.31908   0.75742   0.26520   0.00000  Uiso   1.00
C287   C     0.11652   0.54984   0.25852   0.00000  Uiso   1.00
C288   C     0.16944   0.95254   0.20659   0.00000  Uiso   1.00
H289   H     0.08190   0.53373   0.26720   0.00000  Uiso   1.00
H290   H     0.18043   0.96924   0.17511   0.00000  Uiso   1.00
C291   C     0.12045   0.59566   0.26094   0.00000  Uiso   1.00
C292   C     0.17051   0.90674   0.20848   0.00000  Uiso   1.00
H293   H     0.08873   0.61443   0.27108   0.00000  Uiso   1.00
H294   H     0.18200   0.88943   0.17800   0.00000  Uiso   1.00
C295   C     0.16481   0.61712   0.24985   0.00000  Uiso   1.00
C296   C     0.15763   0.88375   0.24904   0.00000  Uiso   1.00
C297   C     0.20611   0.59242   0.23703   0.00000  Uiso   1.00
C298   C     0.13984   0.90821   0.28725   0.00000  Uiso   1.00
C299   C     0.20138   0.54648   0.23368   0.00000  Uiso   1.00
C300   C     0.13956   0.95444   0.28482   0.00000  Uiso   1.00
H301   H     0.23344   0.52722   0.22495   0.00000  Uiso   1.00
H302   H     0.12735   0.97341   0.31415   0.00000  Uiso   1.00
C303   C     0.15696   0.52504   0.24475   0.00000  Uiso   1.00
C304   C     0.15468   0.97661   0.24505   0.00000  Uiso   1.00
C305   C     0.20956   0.76316   0.05749   0.00000  Uiso   1.00
C306   C     0.14733   0.71167   0.44348   0.00000  Uiso   1.00
C307   C     0.20775   0.76663   0.10833   0.00000  Uiso   1.00
C308   C     0.14505   0.71464   0.39249   0.00000  Uiso   1.00
N309   N     0.16667   0.75001   0.12935   0.00000  Uiso   1.00
N310   N     0.16667   0.74999   0.37066   0.00000  Uiso   1.00
C311   C     0.12569   0.73302   0.09955   0.00000  Uiso   1.00
C312   C     0.18588   0.78497   0.39945   0.00000  Uiso   1.00
C313   C     0.12334   0.73569   0.04916   0.00000  Uiso   1.00
C314   C     0.18165   0.78535   0.44924   0.00000  Uiso   1.00
H315   H     0.08824   0.72615   0.02743   0.00000  Uiso   1.00
H316   H     0.19513   0.81406   0.47039   0.00000  Uiso   1.00
C317   C     0.16579   0.74882   0.02707   0.00000  Uiso   1.00
C318   C     0.16386   0.74852   0.47261   0.00000  Uiso   1.00
N319   N     0.33173   0.69886   0.20694   0.00000  Uiso   1.00
O320   O     0.29424   0.69947   0.17228   0.00000  Uiso   1.00
O321   O     0.02804   0.66466   0.21058   0.00000  Uiso   1.00
N322   N     0.00451   0.79442   0.29430   0.00000  Uiso   1.00
O323   O     0.01908   0.78852   0.33990   0.00000  Uiso   1.00
O324   O     0.32609   0.83400   0.27892   0.00000  Uiso   1.00
N325   N     0.25406   0.61309   0.23103   0.00000  Uiso   1.00
O326   O     0.27334   0.64256   0.26213   0.00000  Uiso   1.00
O327   O     0.28276   0.59660   0.20087   0.00000  Uiso   1.00
N328   N     0.11964   0.88758   0.32736   0.00000  Uiso   1.00
O329   O     0.09071   0.85266   0.32060   0.00000  Uiso   1.00
O330   O     0.11996   0.90902   0.36777   0.00000  Uiso   1.00
N331   N     0.25532   0.77379   0.03714   0.00000  Uiso   1.00
H332   H     0.27899   0.79716   0.05517   0.00000  Uiso   1.00
C333   C     0.28259   0.73604   0.02186   0.00000  Uiso   1.00
H334   H     0.31962   0.74708   0.01050   0.00000  Uiso   1.00
H335   H     0.26037   0.71938   0.49067   0.00000  Uiso   1.00
H336   H     0.28990   0.71196   0.05174   0.00000  Uiso   1.00
N337   N     0.13529   0.67033   0.46394   0.00000  Uiso   1.00
H338   H     0.10513   0.67011   0.48401   0.00000  Uiso   1.00
C339   C     0.17874   0.64516   0.48466   0.00000  Uiso   1.00
H340   H     0.16583   0.61149   0.49374   0.00000  Uiso   1.00
H341   H     0.19710   0.66125   0.01811   0.00000  Uiso   1.00
H342   H     0.20703   0.64200   0.45847   0.00000  Uiso   1.00
N343   N     0.24959   0.78654   0.13754   0.00000  Uiso   1.00
H344   H     0.28469   0.77342   0.13341   0.00000  Uiso   1.00
C345   C     0.25039   0.83435   0.13891   0.00000  Uiso   1.00
H346   H     0.25592   0.84540   0.17702   0.00000  Uiso   1.00
H347   H     0.28287   0.84747   0.12113   0.00000  Uiso   1.00
H348   H     0.21452   0.84841   0.12038   0.00000  Uiso   1.00
N349   N     0.12081   0.67973   0.36410   0.00000  Uiso   1.00
H350   H     0.13686   0.64931   0.37225   0.00000  Uiso   1.00
C351   C     0.06568   0.67819   0.36152   0.00000  Uiso   1.00
H352   H     0.05018   0.65283   0.33488   0.00000  Uiso   1.00
H353   H     0.04928   0.71043   0.34985   0.00000  Uiso   1.00
H354   H     0.05360   0.66949   0.39703   0.00000  Uiso   1.00
N355   N     0.08520   0.71005   0.11852   0.00000  Uiso   1.00
O356   O     0.09243   0.66975   0.13366   0.00000  Uiso   1.00
O357   O     0.03878   0.72420   0.10867   0.00000  Uiso   1.00
N358   N     0.21241   0.82141   0.38068   0.00000  Uiso   1.00
O359   O     0.25294   0.81399   0.36001   0.00000  Uiso   1.00
O360   O     0.20663   0.86095   0.39734   0.00000  Uiso   1.00
O361   O     0.50000   0.68573   0.29072   0.00000  Uiso   1.00
O362   O     0.50000   0.81428   0.20929   0.00000  Uiso   1.00
O363   O     0.50000   0.68573   0.20928   0.00000  Uiso   1.00
O364   O     0.50000   0.81427   0.29072   0.00000  Uiso   1.00
C365   C     0.49972   0.66519   0.24999   0.00000  Uiso   1.00
C366   C     0.49688   0.83509   0.24980   0.00000  Uiso   1.00
O367   O     0.42495   0.75000   0.28132   0.00000  Uiso   1.00
O368   O     0.57505   0.75001   0.21868   0.00000  Uiso   1.00
O369   O     0.42495   0.75000   0.19989   0.00000  Uiso   1.00
O370   O     0.57505   0.75000   0.30012   0.00000  Uiso   1.00
C371   C     0.40161   0.74887   0.23823   0.00000  Uiso   1.00
C372   C     0.59841   0.74921   0.26162   0.00000  Uiso   1.00
Cu373  Cu    0.50000   0.75000   0.29822   0.00000  Uiso   1.00
Cu374  Cu    0.50000   0.75001   0.20179   0.00000  Uiso   1.00
C375   C     0.34788   0.73820   0.23405   0.00000  Uiso   1.00
C376   C     0.65241   0.75742   0.26520   0.00000  Uiso   1.00
C377   C     0.44985   0.54984   0.25852   0.00000  Uiso   1.00
C378   C     0.50278   0.95254   0.20659   0.00000  Uiso   1.00
H379   H     0.41524   0.53373   0.26720   0.00000  Uiso   1.00
H380   H     0.51376   0.96924   0.17511   0.00000  Uiso   1.00
C381   C     0.45379   0.59566   0.26094   0.00000  Uiso   1.00
C382   C     0.50384   0.90674   0.20848   0.00000  Uiso   1.00
H383   H     0.42206   0.61443   0.27108   0.00000  Uiso   1.00
H384   H     0.51533   0.88943   0.17800   0.00000  Uiso   1.00
C385   C     0.49815   0.61712   0.24985   0.00000  Uiso   1.00
C386   C     0.49096   0.88375   0.24904   0.00000  Uiso   1.00
C387   C     0.53944   0.59242   0.23703   0.00000  Uiso   1.00
C388   C     0.47317   0.90821   0.28725   0.00000  Uiso   1.00
C389   C     0.53471   0.54648   0.23368   0.00000  Uiso   1.00
C390   C     0.47289   0.95444   0.28482   0.00000  Uiso   1.00
H391   H     0.56677   0.52722   0.22495   0.00000  Uiso   1.00
H392   H     0.46068   0.97341   0.31415   0.00000  Uiso   1.00
C393   C     0.49029   0.52504   0.24475   0.00000  Uiso   1.00
C394   C     0.48802   0.97661   0.24505   0.00000  Uiso   1.00
C395   C     0.54289   0.76316   0.05749   0.00000  Uiso   1.00
C396   C     0.48067   0.71167   0.44348   0.00000  Uiso   1.00
C397   C     0.54108   0.76663   0.10833   0.00000  Uiso   1.00
C398   C     0.47839   0.71464   0.39249   0.00000  Uiso   1.00
N399   N     0.50000   0.75001   0.12935   0.00000  Uiso   1.00
N400   N     0.50000   0.74999   0.37066   0.00000  Uiso   1.00
C401   C     0.45902   0.73302   0.09955   0.00000  Uiso   1.00
C402   C     0.51922   0.78497   0.39945   0.00000  Uiso   1.00
C403   C     0.45668   0.73569   0.04916   0.00000  Uiso   1.00
C404   C     0.51498   0.78535   0.44924   0.00000  Uiso   1.00
H405   H     0.42157   0.72615   0.02743   0.00000  Uiso   1.00
H406   H     0.52847   0.81406   0.47039   0.00000  Uiso   1.00
C407   C     0.49912   0.74882   0.02707   0.00000  Uiso   1.00
C408   C     0.49719   0.74852   0.47261   0.00000  Uiso   1.00
N409   N     0.66506   0.69886   0.20694   0.00000  Uiso   1.00
O410   O     0.62757   0.69947   0.17228   0.00000  Uiso   1.00
O411   O     0.36137   0.66466   0.21058   0.00000  Uiso   1.00
N412   N     0.33784   0.79442   0.29430   0.00000  Uiso   1.00
O413   O     0.35241   0.78852   0.33990   0.00000  Uiso   1.00
O414   O     0.65943   0.83400   0.27892   0.00000  Uiso   1.00
N415   N     0.58739   0.61309   0.23103   0.00000  Uiso   1.00
O416   O     0.60668   0.64256   0.26213   0.00000  Uiso   1.00
O417   O     0.61609   0.59660   0.20087   0.00000  Uiso   1.00
N418   N     0.45297   0.88758   0.32736   0.00000  Uiso   1.00
O419   O     0.42404   0.85266   0.32060   0.00000  Uiso   1.00
O420   O     0.45329   0.90902   0.36777   0.00000  Uiso   1.00
N421   N     0.58865   0.77379   0.03714   0.00000  Uiso   1.00
H422   H     0.61232   0.79716   0.05517   0.00000  Uiso   1.00
C423   C     0.61593   0.73604   0.02186   0.00000  Uiso   1.00
H424   H     0.65295   0.74708   0.01050   0.00000  Uiso   1.00
H425   H     0.59370   0.71938   0.49067   0.00000  Uiso   1.00
H426   H     0.62323   0.71196   0.05174   0.00000  Uiso   1.00
N427   N     0.46862   0.67033   0.46394   0.00000  Uiso   1.00
H428   H     0.43846   0.67011   0.48401   0.00000  Uiso   1.00
C429   C     0.51207   0.64516   0.48466   0.00000  Uiso   1.00
H430   H     0.49916   0.61149   0.49374   0.00000  Uiso   1.00
H431   H     0.53044   0.66125   0.01811   0.00000  Uiso   1.00
H432   H     0.54036   0.64200   0.45847   0.00000  Uiso   1.00
N433   N     0.58292   0.78654   0.13754   0.00000  Uiso   1.00
H434   H     0.61802   0.77342   0.13341   0.00000  Uiso   1.00
C435   C     0.58373   0.83435   0.13891   0.00000  Uiso   1.00
H436   H     0.58926   0.84540   0.17702   0.00000  Uiso   1.00
H437   H     0.61620   0.84747   0.12113   0.00000  Uiso   1.00
H438   H     0.54785   0.84841   0.12038   0.00000  Uiso   1.00
N439   N     0.45414   0.67973   0.36410   0.00000  Uiso   1.00
H440   H     0.47020   0.64931   0.37225   0.00000  Uiso   1.00
C441   C     0.39902   0.67819   0.36152   0.00000  Uiso   1.00
H442   H     0.38351   0.65283   0.33488   0.00000  Uiso   1.00
H443   H     0.38261   0.71043   0.34985   0.00000  Uiso   1.00
H444   H     0.38694   0.66949   0.39703   0.00000  Uiso   1.00
N445   N     0.41853   0.71005   0.11852   0.00000  Uiso   1.00
O446   O     0.42576   0.66975   0.13366   0.00000  Uiso   1.00
O447   O     0.37211   0.72420   0.10867   0.00000  Uiso   1.00
N448   N     0.54574   0.82141   0.38068   0.00000  Uiso   1.00
O449   O     0.58628   0.81399   0.36001   0.00000  Uiso   1.00
O450   O     0.53996   0.86095   0.39734   0.00000  Uiso   1.00
O451   O     0.83334   0.68573   0.29072   0.00000  Uiso   1.00
O452   O     0.83333   0.81428   0.20929   0.00000  Uiso   1.00
O453   O     0.83334   0.68573   0.20928   0.00000  Uiso   1.00
O454   O     0.83333   0.81427   0.29072   0.00000  Uiso   1.00
C455   C     0.83306   0.66519   0.24999   0.00000  Uiso   1.00
C456   C     0.83021   0.83509   0.24980   0.00000  Uiso   1.00
O457   O     0.75828   0.75000   0.28132   0.00000  Uiso   1.00
O458   O     0.90839   0.75001   0.21868   0.00000  Uiso   1.00
O459   O     0.75828   0.75000   0.19989   0.00000  Uiso   1.00
O460   O     0.90839   0.75000   0.30012   0.00000  Uiso   1.00
C461   C     0.73495   0.74887   0.23823   0.00000  Uiso   1.00
C462   C     0.93174   0.74921   0.26162   0.00000  Uiso   1.00
Cu463  Cu    0.83333   0.75000   0.29822   0.00000  Uiso   1.00
Cu464  Cu    0.83333   0.75001   0.20179   0.00000  Uiso   1.00
C465   C     0.68122   0.73820   0.23405   0.00000  Uiso   1.00
C466   C     0.98574   0.75742   0.26520   0.00000  Uiso   1.00
C467   C     0.78319   0.54984   0.25852   0.00000  Uiso   1.00
C468   C     0.83611   0.95254   0.20659   0.00000  Uiso   1.00
H469   H     0.74857   0.53373   0.26720   0.00000  Uiso   1.00
H470   H     0.84710   0.96924   0.17511   0.00000  Uiso   1.00
C471   C     0.78712   0.59566   0.26094   0.00000  Uiso   1.00
C472   C     0.83717   0.90674   0.20848   0.00000  Uiso   1.00
H473   H     0.75539   0.61443   0.27108   0.00000  Uiso   1.00
H474   H     0.84867   0.88943   0.17800   0.00000  Uiso   1.00
C475   C     0.83148   0.61712   0.24985   0.00000  Uiso   1.00
C476   C     0.82430   0.88375   0.24904   0.00000  Uiso   1.00
C477   C     0.87277   0.59242   0.23703   0.00000  Uiso   1.00
C478   C     0.80650   0.90821   0.28725   0.00000  Uiso   1.00
C479   C     0.86805   0.54648   0.23368   0.00000  Uiso   1.00
C480   C     0.80623   0.95444   0.28482   0.00000  Uiso   1.00
H481   H     0.90011   0.52722   0.22495   0.00000  Uiso   1.00
H482   H     0.79402   0.97341   0.31415   0.00000  Uiso   1.00
C483   C     0.82362   0.52504   0.24475   0.00000  Uiso   1.00
C484   C     0.82135   0.97661   0.24505   0.00000  Uiso   1.00
C485   C     0.87623   0.76316   0.05749   0.00000  Uiso   1.00
C486   C     0.81400   0.71167   0.44348   0.00000  Uiso   1.00
C487   C     0.87441   0.76663   0.10833   0.00000  Uiso   1.00
C488   C     0.81172   0.71464   0.39249   0.00000  Uiso   1.00
N489   N     0.83333   0.75001   0.12935   0.00000  Uiso   1.00
N490   N     0.83333   0.74999   0.37066   0.00000  Uiso   1.00
C491   C     0.79235   0.73302   0.09955   0.00000  Uiso   1.00
C492   C     0.85255   0.78497   0.39945   0.00000  Uiso   1.00
C493   C     0.79001   0.73569   0.04916   0.00000  Uiso   1.00
C494   C     0.84832   0.78535   0.44924   0.00000  Uiso   1.00
H495   H     0.75490   0.72615   0.02743   0.00000  Uiso   1.00
H496   H     0.86180   0.81406   0.47039   0.00000  Uiso   1.00
C497   C     0.83245   0.74882   0.02707   0.00000  Uiso   1.00
C498   C     0.83052   0.74852   0.47261   0.00000  Uiso   1.00
N499   N     0.99840   0.69886   0.20694   0.00000  Uiso   1.00
O500   O     0.96090   0.69947   0.17228   0.00000  Uiso   1.00
O501   O     0.69471   0.66466   0.21058   0.00000  Uiso   1.00
N502   N     0.67117   0.79442   0.29430   0.00000  Uiso   1.00
O503   O     0.68574   0.78852   0.33990   0.00000  Uiso   1.00
O504   O     0.99276   0.83400   0.27892   0.00000  Uiso   1.00
N505   N     0.92073   0.61309   0.23103   0.00000  Uiso   1.00
O506   O     0.94001   0.64256   0.26213   0.00000  Uiso   1.00
O507   O     0.94943   0.59660   0.20087   0.00000  Uiso   1.00
N508   N     0.78631   0.88758   0.32736   0.00000  Uiso   1.00
O509   O     0.75737   0.85266   0.32060   0.00000  Uiso   1.00
O510   O     0.78662   0.90902   0.36777   0.00000  Uiso   1.00
N511   N     0.92199   0.77379   0.03714   0.00000  Uiso   1.00
H512   H     0.94566   0.79716   0.05517   0.00000  Uiso   1.00
C513   C     0.94926   0.73604   0.02186   0.00000  Uiso   1.00
H514   H     0.98628   0.74708   0.01050   0.00000  Uiso   1.00
H515   H     0.92703   0.71938   0.49067   0.00000  Uiso   1.00
H516   H     0.95656   0.71196   0.05174   0.00000  Uiso   1.00
N517   N     0.80196   0.67033   0.46394   0.00000  Uiso   1.00
H518   H     0.77180   0.67011   0.48401   0.00000  Uiso   1.00
C519   C     0.84541   0.64516   0.48466   0.00000  Uiso   1.00
H520   H     0.83249   0.61149   0.49374   0.00000  Uiso   1.00
H521   H     0.86377   0.66125   0.01811   0.00000  Uiso   1.00
H522   H     0.87369   0.64200   0.45847   0.00000  Uiso   1.00
N523   N     0.91625   0.78654   0.13754   0.00000  Uiso   1.00
H524   H     0.95135   0.77342   0.13341   0.00000  Uiso   1.00
C525   C     0.91706   0.83435   0.13891   0.00000  Uiso   1.00
H526   H     0.92259   0.84540   0.17702   0.00000  Uiso   1.00
H527   H     0.94953   0.84747   0.12113   0.00000  Uiso   1.00
H528   H     0.88118   0.84841   0.12038   0.00000  Uiso   1.00
N529   N     0.78747   0.67973   0.36410   0.00000  Uiso   1.00
H530   H     0.80353   0.64931   0.37225   0.00000  Uiso   1.00
C531   C     0.73235   0.67819   0.36152   0.00000  Uiso   1.00
H532   H     0.71684   0.65283   0.33488   0.00000  Uiso   1.00
H533   H     0.71594   0.71043   0.34985   0.00000  Uiso   1.00
H534   H     0.72027   0.66949   0.39703   0.00000  Uiso   1.00
N535   N     0.75187   0.71005   0.11852   0.00000  Uiso   1.00
O536   O     0.75909   0.66975   0.13366   0.00000  Uiso   1.00
O537   O     0.70545   0.72420   0.10867   0.00000  Uiso   1.00
N538   N     0.87908   0.82141   0.38068   0.00000  Uiso   1.00
O539   O     0.91961   0.81399   0.36001   0.00000  Uiso   1.00
O540   O     0.87329   0.86095   0.39734   0.00000  Uiso   1.00
O541   O     0.16667   0.18573   0.79072   0.00000  Uiso   1.00
O542   O     0.16666   0.31428   0.70929   0.00000  Uiso   1.00
O543   O     0.16667   0.18573   0.70928   0.00000  Uiso   1.00
O544   O     0.16666   0.31427   0.79072   0.00000  Uiso   1.00
C545   C     0.16639   0.16519   0.74999   0.00000  Uiso   1.00
C546   C     0.16354   0.33509   0.74980   0.00000  Uiso   1.00
O547   O     0.09161   0.25000   0.78132   0.00000  Uiso   1.00
O548   O     0.24172   0.25001   0.71868   0.00000  Uiso   1.00
O549   O     0.09161   0.25000   0.69989   0.00000  Uiso   1.00
O550   O     0.24172   0.25000   0.80012   0.00000  Uiso   1.00
C551   C     0.06828   0.24887   0.73823   0.00000  Uiso   1.00
C552   C     0.26508   0.24921   0.76162   0.00000  Uiso   1.00
Cu553  Cu    0.16667   0.25000   0.79822   0.00000  Uiso   1.00
Cu554  Cu    0.16667   0.25001   0.70179   0.00000  Uiso   1.00
C555   C     0.01455   0.23820   0.73405   0.00000  Uiso   1.00
C556   C     0.31908   0.25742   0.76520   0.00000  Uiso   1.00
C557   C     0.11652   0.04984   0.75852   0.00000  Uiso   1.00
C558   C     0.16944   0.45254   0.70659   0.00000  Uiso   1.00
H559   H     0.08190   0.03373   0.76720   0.00000  Uiso   1.00
H560   H     0.18043   0.46924   0.67511   0.00000  Uiso   1.00
C561   C     0.12045   0.09566   0.76094   0.00000  Uiso   1.00
C562   C     0.17051   0.40674   0.70848   0.00000  Uiso   1.00
H563   H     0.08873   0.11443   0.77108   0.00000  Uiso   1.00
H564   H     0.18200   0.38943   0.67800   0.00000  Uiso   1.00
C565   C     0.16481   0.11712   0.74985   0.00000  Uiso   1.00
C566   C     0.15763   0.38375   0.74904   0.00000  Uiso   1.00
C567   C     0.20611   0.09242   0.73703   0.00000  Uiso   1.00
C568   C     0.13984   0.40821   0.78725   0.00000  Uiso   1.00
C569   C     0.20138   0.04648   0.73368   0.00000  Uiso   1.00
C570   C     0.13956   0.45444   0.78482   0.00000  Uiso   1.00
H571   H     0.23344   0.02722   0.72495   0.00000  Uiso   1.00
H572   H     0.12735   0.47341   0.81415   0.00000  Uiso   1.00
C573   C     0.15696   0.02504   0.74475   0.00000  Uiso   1.00
C574   C     0.15468   0.47661   0.74505   0.00000  Uiso   1.00
C575   C     0.20956   0.26316   0.55749   0.00000  Uiso   1.00
C576   C     0.14733   0.21167   0.94348   0.00000  Uiso   1.00
C577   C     0.20775   0.26663   0.60833   0.00000  Uiso   1.00
C578   C     0.14505   0.21464   0.89249   0.00000  Uiso   1.00
N579   N     0.16667   0.25001   0.62935   0.00000  Uiso   1.00
N580   N     0.16667   0.24999   0.87066   0.00000  Uiso   1.00
C581   C     0.12569   0.23302   0.59955   0.00000  Uiso   1.00
C582   C     0.18588   0.28497   0.89945   0.00000  Uiso   1.00
C583   C     0.12334   0.23569   0.54916   0.00000  Uiso   1.00
C584   C     0.18165   0.28535   0.94924   0.00000  Uiso   1.00
H585   H     0.08824   0.22615   0.52743   0.00000  Uiso   1.00
H586   H     0.19513   0.31406   0.97039   0.00000  Uiso   1.00
C587   C     0.16579   0.24882   0.52707   0.00000  Uiso   1.00
C588   C     0.16386   0.24852   0.97261   0.00000  Uiso   1.00
N589   N     0.33173   0.19886   0.70694   0.00000  Uiso   1.00
O590   O     0.29424   0.19947   0.67228   0.00000  Uiso   1.00
O591   O     0.02804   0.16466   0.71058   0.00000  Uiso   1.00
N592   N     0.00451   0.29442   0.79430   0.00000  Uiso   1.00
O593   O     0.01908   0.28852   0.83990   0.00000  Uiso   1.00
O594   O     0.32609   0.33400   0.77892   0.00000  Uiso   1.00
N595   N     0.25406   0.11309   0.73103   0.00000  Uiso   1.00
O596   O     0.27334   0.14256   0.76213   0.00000  Uiso   1.00
O597   O     0.28276   0.09660   0.70087   0.00000  Uiso   1.00
N598   N     0.11964   0.38758   0.82736   0.00000  Uiso   1.00
O599   O     0.09071   0.35266   0.82060   0.00000  Uiso   1.00
O600   O     0.11996   0.40902   0.86777   0.00000  Uiso   1.00
N601   N     0.25532   0.27379   0.53714   0.00000  Uiso   1.00
H602   H     0.27899   0.29716   0.55517   0.00000  Uiso   1.00
C603   C     0.28259   0.23604   0.52186   0.00000  Uiso   1.00
H604   H     0.31962   0.24708   0.51050   0.00000  Uiso   1.00
H605   H     0.26037   0.21938   0.99067   0.00000  Uiso   1.00
H606   H     0.28990   0.21196   0.55174   0.00000  Uiso   1.00
N607   N     0.13529   0.17033   0.96394   0.00000  Uiso   1.00
H608   H     0.10513   0.17011   0.98401   0.00000  Uiso   1.00
C609   C     0.17874   0.14516   0.98466   0.00000  Uiso   1.00
H610   H     0.16583   0.11149   0.99374   0.00000  Uiso   1.00
H611   H     0.19710   0.16125   0.51811   0.00000  Uiso   1.00
H612   H     0.20703   0.14200   0.95847   0.00000  Uiso   1.00
N613   N     0.24959   0.28654   0.63754   0.00000  Uiso   1.00
H614   H     0.28469   0.27342   0.63341   0.00000  Uiso   1.00
C615   C     0.25039   0.33435   0.63891   0.00000  Uiso   1.00
H616   H     0.25592   0.34540   0.67702   0.00000  Uiso   1.00
H617   H     0.28287   0.34747   0.62113   0.00000  Uiso   1.00
H618   H     0.21452   0.34841   0.62038   0.00000  Uiso   1.00
N619   N     0.12081   0.17973   0.86410   0.00000  Uiso   1.00
H620   H     0.13686   0.14931   0.87225   0.00000  Uiso   1.00
C621   C     0.06568   0.17819   0.86152   0.00000  Uiso   1.00
H622   H     0.05018   0.15283   0.83488   0.00000  Uiso   1.00
H623   H     0.04928   0.21043   0.84985   0.00000  Uiso   1.00
H624   H     0.05360   0.16949   0.89703   0.00000  Uiso   1.00
N625   N     0.08520   0.21005   0.61852   0.00000  Uiso   1.00
O626   O     0.09243   0.16975   0.63366   0.00000  Uiso   1.00
O627   O     0.03878   0.22420   0.60867   0.00000  Uiso   1.00
N628   N     0.21241   0.32141   0.88068   0.00000  Uiso   1.00
O629   O     0.25294   0.31399   0.86001   0.00000  Uiso   1.00
O630   O     0.20663   0.36095   0.89734   0.00000  Uiso   1.00
O631   O     0.50000   0.18573   0.79072   0.00000  Uiso   1.00
O632   O     0.50000   0.31428   0.70929   0.00000  Uiso   1.00
O633   O     0.50000   0.18573   0.70928   0.00000  Uiso   1.00
O634   O     0.50000   0.31427   0.79072   0.00000  Uiso   1.00
C635   C     0.49972   0.16519   0.74999   0.00000  Uiso   1.00
C636   C     0.49688   0.33509   0.74980   0.00000  Uiso   1.00
O637   O     0.42495   0.25000   0.78132   0.00000  Uiso   1.00
O638   O     0.57505   0.25001   0.71868   0.00000  Uiso   1.00
O639   O     0.42495   0.25000   0.69989   0.00000  Uiso   1.00
O640   O     0.57505   0.25000   0.80012   0.00000  Uiso   1.00
C641   C     0.40161   0.24887   0.73823   0.00000  Uiso   1.00
C642   C     0.59841   0.24921   0.76162   0.00000  Uiso   1.00
Cu643  Cu    0.50000   0.25000   0.79822   0.00000  Uiso   1.00
Cu644  Cu    0.50000   0.25001   0.70179   0.00000  Uiso   1.00
C645   C     0.34788   0.23820   0.73405   0.00000  Uiso   1.00
C646   C     0.65241   0.25742   0.76520   0.00000  Uiso   1.00
C647   C     0.44985   0.04984   0.75852   0.00000  Uiso   1.00
C648   C     0.50278   0.45254   0.70659   0.00000  Uiso   1.00
H649   H     0.41524   0.03373   0.76720   0.00000  Uiso   1.00
H650   H     0.51376   0.46924   0.67511   0.00000  Uiso   1.00
C651   C     0.45379   0.09566   0.76094   0.00000  Uiso   1.00
C652   C     0.50384   0.40674   0.70848   0.00000  Uiso   1.00
H653   H     0.42206   0.11443   0.77108   0.00000  Uiso   1.00
H654   H     0.51533   0.38943   0.67800   0.00000  Uiso   1.00
C655   C     0.49815   0.11712   0.74985   0.00000  Uiso   1.00
C656   C     0.49096   0.38375   0.74904   0.00000  Uiso   1.00
C657   C     0.53944   0.09242   0.73703   0.00000  Uiso   1.00
C658   C     0.47317   0.40821   0.78725   0.00000  Uiso   1.00
C659   C     0.53471   0.04648   0.73368   0.00000  Uiso   1.00
C660   C     0.47289   0.45444   0.78482   0.00000  Uiso   1.00
H661   H     0.56677   0.02722   0.72495   0.00000  Uiso   1.00
H662   H     0.46068   0.47341   0.81415   0.00000  Uiso   1.00
C663   C     0.49029   0.02504   0.74475   0.00000  Uiso   1.00
C664   C     0.48802   0.47661   0.74505   0.00000  Uiso   1.00
C665   C     0.54289   0.26316   0.55749   0.00000  Uiso   1.00
C666   C     0.48067   0.21167   0.94348   0.00000  Uiso   1.00
C667   C     0.54108   0.26663   0.60833   0.00000  Uiso   1.00
C668   C     0.47839   0.21464   0.89249   0.00000  Uiso   1.00
N669   N     0.50000   0.25001   0.62935   0.00000  Uiso   1.00
N670   N     0.50000   0.24999   0.87066   0.00000  Uiso   1.00
C671   C     0.45902   0.23302   0.59955   0.00000  Uiso   1.00
C672   C     0.51922   0.28497   0.89945   0.00000  Uiso   1.00
C673   C     0.45668   0.23569   0.54916   0.00000  Uiso   1.00
C674   C     0.51498   0.28535   0.94924   0.00000  Uiso   1.00
H675   H     0.42157   0.22615   0.52743   0.00000  Uiso   1.00
H676   H     0.52847   0.31406   0.97039   0.00000  Uiso   1.00
C677   C     0.49912   0.24882   0.52707   0.00000  Uiso   1.00
C678   C     0.49719   0.24852   0.97261   0.00000  Uiso   1.00
N679   N     0.66506   0.19886   0.70694   0.00000  Uiso   1.00
O680   O     0.62757   0.19947   0.67228   0.00000  Uiso   1.00
O681   O     0.36137   0.16466   0.71058   0.00000  Uiso   1.00
N682   N     0.33784   0.29442   0.79430   0.00000  Uiso   1.00
O683   O     0.35241   0.28852   0.83990   0.00000  Uiso   1.00
O684   O     0.65943   0.33400   0.77892   0.00000  Uiso   1.00
N685   N     0.58739   0.11309   0.73103   0.00000  Uiso   1.00
O686   O     0.60668   0.14256   0.76213   0.00000  Uiso   1.00
O687   O     0.61609   0.09660   0.70087   0.00000  Uiso   1.00
N688   N     0.45297   0.38758   0.82736   0.00000  Uiso   1.00
O689   O     0.42404   0.35266   0.82060   0.00000  Uiso   1.00
O690   O     0.45329   0.40902   0.86777   0.00000  Uiso   1.00
N691   N     0.58865   0.27379   0.53714   0.00000  Uiso   1.00
H692   H     0.61232   0.29716   0.55517   0.00000  Uiso   1.00
C693   C     0.61593   0.23604   0.52186   0.00000  Uiso   1.00
H694   H     0.65295   0.24708   0.51050   0.00000  Uiso   1.00
H695   H     0.59370   0.21938   0.99067   0.00000  Uiso   1.00
H696   H     0.62323   0.21196   0.55174   0.00000  Uiso   1.00
N697   N     0.46862   0.17033   0.96394   0.00000  Uiso   1.00
H698   H     0.43846   0.17011   0.98401   0.00000  Uiso   1.00
C699   C     0.51207   0.14516   0.98466   0.00000  Uiso   1.00
H700   H     0.49916   0.11149   0.99374   0.00000  Uiso   1.00
H701   H     0.53044   0.16125   0.51811   0.00000  Uiso   1.00
H702   H     0.54036   0.14200   0.95847   0.00000  Uiso   1.00
N703   N     0.58292   0.28654   0.63754   0.00000  Uiso   1.00
H704   H     0.61802   0.27342   0.63341   0.00000  Uiso   1.00
C705   C     0.58373   0.33435   0.63891   0.00000  Uiso   1.00
H706   H     0.58926   0.34540   0.67702   0.00000  Uiso   1.00
H707   H     0.61620   0.34747   0.62113   0.00000  Uiso   1.00
H708   H     0.54785   0.34841   0.62038   0.00000  Uiso   1.00
N709   N     0.45414   0.17973   0.86410   0.00000  Uiso   1.00
H710   H     0.47020   0.14931   0.87225   0.00000  Uiso   1.00
C711   C     0.39902   0.17819   0.86152   0.00000  Uiso   1.00
H712   H     0.38351   0.15283   0.83488   0.00000  Uiso   1.00
H713   H     0.38261   0.21043   0.84985   0.00000  Uiso   1.00
H714   H     0.38694   0.16949   0.89703   0.00000  Uiso   1.00
N715   N     0.41853   0.21005   0.61852   0.00000  Uiso   1.00
O716   O     0.42576   0.16975   0.63366   0.00000  Uiso   1.00
O717   O     0.37211   0.22420   0.60867   0.00000  Uiso   1.00
N718   N     0.54574   0.32141   0.88068   0.00000  Uiso   1.00
O719   O     0.58628   0.31399   0.86001   0.00000  Uiso   1.00
O720   O     0.53996   0.36095   0.89734   0.00000  Uiso   1.00
O721   O     0.83334   0.18573   0.79072   0.00000  Uiso   1.00
O722   O     0.83333   0.31428   0.70929   0.00000  Uiso   1.00
O723   O     0.83334   0.18573   0.70928   0.00000  Uiso   1.00
O724   O     0.83333   0.31427   0.79072   0.00000  Uiso   1.00
C725   C     0.83306   0.16519   0.74999   0.00000  Uiso   1.00
C726   C     0.83021   0.33509   0.74980   0.00000  Uiso   1.00
O727   O     0.75828   0.25000   0.78132   0.00000  Uiso   1.00
O728   O     0.90839   0.25001   0.71868   0.00000  Uiso   1.00
O729   O     0.75828   0.25000   0.69989   0.00000  Uiso   1.00
O730   O     0.90839   0.25000   0.80012   0.00000  Uiso   1.00
C731   C     0.73495   0.24887   0.73823   0.00000  Uiso   1.00
C732   C     0.93174   0.24921   0.76162   0.00000  Uiso   1.00
Cu733  Cu    0.83333   0.25000   0.79822   0.00000  Uiso   1.00
Cu734  Cu    0.83333   0.25001   0.70179   0.00000  Uiso   1.00
C735   C     0.68122   0.23820   0.73405   0.00000  Uiso   1.00
C736   C     0.98574   0.25742   0.76520   0.00000  Uiso   1.00
C737   C     0.78319   0.04984   0.75852   0.00000  Uiso   1.00
C738   C     0.83611   0.45254   0.70659   0.00000  Uiso   1.00
H739   H     0.74857   0.03373   0.76720   0.00000  Uiso   1.00
H740   H     0.84710   0.46924   0.67511   0.00000  Uiso   1.00
C741   C     0.78712   0.09566   0.76094   0.00000  Uiso   1.00
C742   C     0.83717   0.40674   0.70848   0.00000  Uiso   1.00
H743   H     0.75539   0.11443   0.77108   0.00000  Uiso   1.00
H744   H     0.84867   0.38943   0.67800   0.00000  Uiso   1.00
C745   C     0.83148   0.11712   0.74985   0.00000  Uiso   1.00
C746   C     0.82430   0.38375   0.74904   0.00000  Uiso   1.00
C747   C     0.87277   0.09242   0.73703   0.00000  Uiso   1.00
C748   C     0.80650   0.40821   0.78725   0.00000  Uiso   1.00
C749   C     0.86805   0.04648   0.73368   0.00000  Uiso   1.00
C750   C     0.80623   0.45444   0.78482   0.00000  Uiso   1.00
H751   H     0.90011   0.02722   0.72495   0.00000  Uiso   1.00
H752   H     0.79402   0.47341   0.81415   0.00000  Uiso   1.00
C753   C     0.82362   0.02504   0.74475   0.00000  Uiso   1.00
C754   C     0.82135   0.47661   0.74505   0.00000  Uiso   1.00
C755   C     0.87623   0.26316   0.55749   0.00000  Uiso   1.00
C756   C     0.81400   0.21167   0.94348   0.00000  Uiso   1.00
C757   C     0.87441   0.26663   0.60833   0.00000  Uiso   1.00
C758   C     0.81172   0.21464   0.89249   0.00000  Uiso   1.00
N759   N     0.83333   0.25001   0.62935   0.00000  Uiso   1.00
N760   N     0.83333   0.24999   0.87066   0.00000  Uiso   1.00
C761   C     0.79235   0.23302   0.59955   0.00000  Uiso   1.00
C762   C     0.85255   0.28497   0.89945   0.00000  Uiso   1.00
C763   C     0.79001   0.23569   0.54916   0.00000  Uiso   1.00
C764   C     0.84832   0.28535   0.94924   0.00000  Uiso   1.00
H765   H     0.75490   0.22615   0.52743   0.00000  Uiso   1.00
H766   H     0.86180   0.31406   0.97039   0.00000  Uiso   1.00
C767   C     0.83245   0.24882   0.52707   0.00000  Uiso   1.00
C768   C     0.83052   0.24852   0.97261   0.00000  Uiso   1.00
N769   N     0.99840   0.19886   0.70694   0.00000  Uiso   1.00
O770   O     0.96090   0.19947   0.67228   0.00000  Uiso   1.00
O771   O     0.69471   0.16466   0.71058   0.00000  Uiso   1.00
N772   N     0.67117   0.29442   0.79430   0.00000  Uiso   1.00
O773   O     0.68574   0.28852   0.83990   0.00000  Uiso   1.00
O774   O     0.99276   0.33400   0.77892   0.00000  Uiso   1.00
N775   N     0.92073   0.11309   0.73103   0.00000  Uiso   1.00
O776   O     0.94001   0.14256   0.76213   0.00000  Uiso   1.00
O777   O     0.94943   0.09660   0.70087   0.00000  Uiso   1.00
N778   N     0.78631   0.38758   0.82736   0.00000  Uiso   1.00
O779   O     0.75737   0.35266   0.82060   0.00000  Uiso   1.00
O780   O     0.78662   0.40902   0.86777   0.00000  Uiso   1.00
N781   N     0.92199   0.27379   0.53714   0.00000  Uiso   1.00
H782   H     0.94566   0.29716   0.55517   0.00000  Uiso   1.00
C783   C     0.94926   0.23604   0.52186   0.00000  Uiso   1.00
H784   H     0.98628   0.24708   0.51050   0.00000  Uiso   1.00
H785   H     0.92703   0.21938   0.99067   0.00000  Uiso   1.00
H786   H     0.95656   0.21196   0.55174   0.00000  Uiso   1.00
N787   N     0.80196   0.17033   0.96394   0.00000  Uiso   1.00
H788   H     0.77180   0.17011   0.98401   0.00000  Uiso   1.00
C789   C     0.84541   0.14516   0.98466   0.00000  Uiso   1.00
H790   H     0.83249   0.11149   0.99374   0.00000  Uiso   1.00
H791   H     0.86377   0.16125   0.51811   0.00000  Uiso   1.00
H792   H     0.87369   0.14200   0.95847   0.00000  Uiso   1.00
N793   N     0.91625   0.28654   0.63754   0.00000  Uiso   1.00
H794   H     0.95135   0.27342   0.63341   0.00000  Uiso   1.00
C795   C     0.91706   0.33435   0.63891   0.00000  Uiso   1.00
H796   H     0.92259   0.34540   0.67702   0.00000  Uiso   1.00
H797   H     0.94953   0.34747   0.62113   0.00000  Uiso   1.00
H798   H     0.88118   0.34841   0.62038   0.00000  Uiso   1.00
N799   N     0.78747   0.17973   0.86410   0.00000  Uiso   1.00
H800   H     0.80353   0.14931   0.87225   0.00000  Uiso   1.00
C801   C     0.73235   0.17819   0.86152   0.00000  Uiso   1.00
H802   H     0.71684   0.15283   0.83488   0.00000  Uiso   1.00
H803   H     0.71594   0.21043   0.84985   0.00000  Uiso   1.00
H804   H     0.72027   0.16949   0.89703   0.00000  Uiso   1.00
N805   N     0.75187   0.21005   0.61852   0.00000  Uiso   1.00
O806   O     0.75909   0.16975   0.63366   0.00000  Uiso   1.00
O807   O     0.70545   0.22420   0.60867   0.00000  Uiso   1.00
N808   N     0.87908   0.32141   0.88068   0.00000  Uiso   1.00
O809   O     0.91961   0.31399   0.86001   0.00000  Uiso   1.00
O810   O     0.87329   0.36095   0.89734   0.00000  Uiso   1.00
O811   O     0.16667   0.68573   0.79072   0.00000  Uiso   1.00
O812   O     0.16666   0.81428   0.70929   0.00000  Uiso   1.00
O813   O     0.16667   0.68573   0.70928   0.00000  Uiso   1.00
O814   O     0.16666   0.81427   0.79072   0.00000  Uiso   1.00
C815   C     0.16639   0.66519   0.74999   0.00000  Uiso   1.00
C816   C     0.16354   0.83509   0.74980   0.00000  Uiso   1.00
O817   O     0.09161   0.75000   0.78132   0.00000  Uiso   1.00
O818   O     0.24172   0.75001   0.71868   0.00000  Uiso   1.00
O819   O     0.09161   0.75000   0.69989   0.00000  Uiso   1.00
O820   O     0.24172   0.75000   0.80012   0.00000  Uiso   1.00
C821   C     0.06828   0.74887   0.73823   0.00000  Uiso   1.00
C822   C     0.26508   0.74921   0.76162   0.00000  Uiso   1.00
Cu823  Cu    0.16667   0.75000   0.79822   0.00000  Uiso   1.00
Cu824  Cu    0.16667   0.75001   0.70179   0.00000  Uiso   1.00
C825   C     0.01455   0.73820   0.73405   0.00000  Uiso   1.00
C826   C     0.31908   0.75742   0.76520   0.00000  Uiso   1.00
C827   C     0.11652   0.54984   0.75852   0.00000  Uiso   1.00
C828   C     0.16944   0.95254   0.70659   0.00000  Uiso   1.00
H829   H     0.08190   0.53373   0.76720   0.00000  Uiso   1.00
H830   H     0.18043   0.96924   0.67511   0.00000  Uiso   1.00
C831   C     0.12045   0.59566   0.76094   0.00000  Uiso   1.00
C832   C     0.17051   0.90674   0.70848   0.00000  Uiso   1.00
H833   H     0.08873   0.61443   0.77108   0.00000  Uiso   1.00
H834   H     0.18200   0.88943   0.67800   0.00000  Uiso   1.00
C835   C     0.16481   0.61712   0.74985   0.00000  Uiso   1.00
C836   C     0.15763   0.88375   0.74904   0.00000  Uiso   1.00
C837   C     0.20611   0.59242   0.73703   0.00000  Uiso   1.00
C838   C     0.13984   0.90821   0.78725   0.00000  Uiso   1.00
C839   C     0.20138   0.54648   0.73368   0.00000  Uiso   1.00
C840   C     0.13956   0.95444   0.78482   0.00000  Uiso   1.00
H841   H     0.23344   0.52722   0.72495   0.00000  Uiso   1.00
H842   H     0.12735   0.97341   0.81415   0.00000  Uiso   1.00
C843   C     0.15696   0.52504   0.74475   0.00000  Uiso   1.00
C844   C     0.15468   0.97661   0.74505   0.00000  Uiso   1.00
C845   C     0.20956   0.76316   0.55749   0.00000  Uiso   1.00
C846   C     0.14733   0.71167   0.94348   0.00000  Uiso   1.00
C847   C     0.20775   0.76663   0.60833   0.00000  Uiso   1.00
C848   C     0.14505   0.71464   0.89249   0.00000  Uiso   1.00
N849   N     0.16667   0.75001   0.62935   0.00000  Uiso   1.00
N850   N     0.16667   0.74999   0.87066   0.00000  Uiso   1.00
C851   C     0.12569   0.73302   0.59955   0.00000  Uiso   1.00
C852   C     0.18588   0.78497   0.89945   0.00000  Uiso   1.00
C853   C     0.12334   0.73569   0.54916   0.00000  Uiso   1.00
C854   C     0.18165   0.78535   0.94924   0.00000  Uiso   1.00
H855   H     0.08824   0.72615   0.52743   0.00000  Uiso   1.00
H856   H     0.19513   0.81406   0.97039   0.00000  Uiso   1.00
C857   C     0.16579   0.74882   0.52707   0.00000  Uiso   1.00
C858   C     0.16386   0.74852   0.97261   0.00000  Uiso   1.00
N859   N     0.33173   0.69886   0.70694   0.00000  Uiso   1.00
O860   O     0.29424   0.69947   0.67228   0.00000  Uiso   1.00
O861   O     0.02804   0.66466   0.71058   0.00000  Uiso   1.00
N862   N     0.00451   0.79442   0.79430   0.00000  Uiso   1.00
O863   O     0.01908   0.78852   0.83990   0.00000  Uiso   1.00
O864   O     0.32609   0.83400   0.77892   0.00000  Uiso   1.00
N865   N     0.25406   0.61309   0.73103   0.00000  Uiso   1.00
O866   O     0.27334   0.64256   0.76213   0.00000  Uiso   1.00
O867   O     0.28276   0.59660   0.70087   0.00000  Uiso   1.00
N868   N     0.11964   0.88758   0.82736   0.00000  Uiso   1.00
O869   O     0.09071   0.85266   0.82060   0.00000  Uiso   1.00
O870   O     0.11996   0.90902   0.86777   0.00000  Uiso   1.00
N871   N     0.25532   0.77379   0.53714   0.00000  Uiso   1.00
H872   H     0.27899   0.79716   0.55517   0.00000  Uiso   1.00
C873   C     0.28259   0.73604   0.52186   0.00000  Uiso   1.00
H874   H     0.31962   0.74708   0.51050   0.00000  Uiso   1.00
H875   H     0.26037   0.71938   0.99067   0.00000  Uiso   1.00
H876   H     0.28990   0.71196   0.55174   0.00000  Uiso   1.00
N877   N     0.13529   0.67033   0.96394   0.00000  Uiso   1.00
H878   H     0.10513   0.67011   0.98401   0.00000  Uiso   1.00
C879   C     0.17874   0.64516   0.98466   0.00000  Uiso   1.00
H880   H     0.16583   0.61149   0.99374   0.00000  Uiso   1.00
H881   H     0.19710   0.66125   0.51811   0.00000  Uiso   1.00
H882   H     0.20703   0.64200   0.95847   0.00000  Uiso   1.00
N883   N     0.24959   0.78654   0.63754   0.00000  Uiso   1.00
H884   H     0.28469   0.77342   0.63341   0.00000  Uiso   1.00
C885   C     0.25039   0.83435   0.63891   0.00000  Uiso   1.00
H886   H     0.25592   0.84540   0.67702   0.00000  Uiso   1.00
H887   H     0.28287   0.84747   0.62113   0.00000  Uiso   1.00
H888   H     0.21452   0.84841   0.62038   0.00000  Uiso   1.00
N889   N     0.12081   0.67973   0.86410   0.00000  Uiso   1.00
H890   H     0.13686   0.64931   0.87225   0.00000  Uiso   1.00
C891   C     0.06568   0.67819   0.86152   0.00000  Uiso   1.00
H892   H     0.05018   0.65283   0.83488   0.00000  Uiso   1.00
H893   H     0.04928   0.71043   0.84985   0.00000  Uiso   1.00
H894   H     0.05360   0.66949   0.89703   0.00000  Uiso   1.00
N895   N     0.08520   0.71005   0.61852   0.00000  Uiso   1.00
O896   O     0.09243   0.66975   0.63366   0.00000  Uiso   1.00
O897   O     0.03878   0.72420   0.60867   0.00000  Uiso   1.00
N898   N     0.21241   0.82141   0.88068   0.00000  Uiso   1.00
O899   O     0.25294   0.81399   0.86001   0.00000  Uiso   1.00
O900   O     0.20663   0.86095   0.89734   0.00000  Uiso   1.00
O901   O     0.50000   0.68573   0.79072   0.00000  Uiso   1.00
O902   O     0.50000   0.81428   0.70929   0.00000  Uiso   1.00
O903   O     0.50000   0.68573   0.70928   0.00000  Uiso   1.00
O904   O     0.50000   0.81427   0.79072   0.00000  Uiso   1.00
C905   C     0.49972   0.66519   0.74999   0.00000  Uiso   1.00
C906   C     0.49688   0.83509   0.74980   0.00000  Uiso   1.00
O907   O     0.42495   0.75000   0.78132   0.00000  Uiso   1.00
O908   O     0.57505   0.75001   0.71868   0.00000  Uiso   1.00
O909   O     0.42495   0.75000   0.69989   0.00000  Uiso   1.00
O910   O     0.57505   0.75000   0.80012   0.00000  Uiso   1.00
C911   C     0.40161   0.74887   0.73823   0.00000  Uiso   1.00
C912   C     0.59841   0.74921   0.76162   0.00000  Uiso   1.00
Cu913  Cu    0.50000   0.75000   0.79822   0.00000  Uiso   1.00
Cu914  Cu    0.50000   0.75001   0.70179   0.00000  Uiso   1.00
C915   C     0.34788   0.73820   0.73405   0.00000  Uiso   1.00
C916   C     0.65241   0.75742   0.76520   0.00000  Uiso   1.00
C917   C     0.44985   0.54984   0.75852   0.00000  Uiso   1.00
C918   C     0.50278   0.95254   0.70659   0.00000  Uiso   1.00
H919   H     0.41524   0.53373   0.76720   0.00000  Uiso   1.00
H920   H     0.51376   0.96924   0.67511   0.00000  Uiso   1.00
C921   C     0.45379   0.59566   0.76094   0.00000  Uiso   1.00
C922   C     0.50384   0.90674   0.70848   0.00000  Uiso   1.00
H923   H     0.42206   0.61443   0.77108   0.00000  Uiso   1.00
H924   H     0.51533   0.88943   0.67800   0.00000  Uiso   1.00
C925   C     0.49815   0.61712   0.74985   0.00000  Uiso   1.00
C926   C     0.49096   0.88375   0.74904   0.00000  Uiso   1.00
C927   C     0.53944   0.59242   0.73703   0.00000  Uiso   1.00
C928   C     0.47317   0.90821   0.78725   0.00000  Uiso   1.00
C929   C     0.53471   0.54648   0.73368   0.00000  Uiso   1.00
C930   C     0.47289   0.95444   0.78482   0.00000  Uiso   1.00
H931   H     0.56677   0.52722   0.72495   0.00000  Uiso   1.00
H932   H     0.46068   0.97341   0.81415   0.00000  Uiso   1.00
C933   C     0.49029   0.52504   0.74475   0.00000  Uiso   1.00
C934   C     0.48802   0.97661   0.74505   0.00000  Uiso   1.00
C935   C     0.54289   0.76316   0.55749   0.00000  Uiso   1.00
C936   C     0.48067   0.71167   0.94348   0.00000  Uiso   1.00
C937   C     0.54108   0.76663   0.60833   0.00000  Uiso   1.00
C938   C     0.47839   0.71464   0.89249   0.00000  Uiso   1.00
N939   N     0.50000   0.75001   0.62935   0.00000  Uiso   1.00
N940   N     0.50000   0.74999   0.87066   0.00000  Uiso   1.00
C941   C     0.45902   0.73302   0.59955   0.00000  Uiso   1.00
C942   C     0.51922   0.78497   0.89945   0.00000  Uiso   1.00
C943   C     0.45668   0.73569   0.54916   0.00000  Uiso   1.00
C944   C     0.51498   0.78535   0.94924   0.00000  Uiso   1.00
H945   H     0.42157   0.72615   0.52743   0.00000  Uiso   1.00
H946   H     0.52847   0.81406   0.97039   0.00000  Uiso   1.00
C947   C     0.49912   0.74882   0.52707   0.00000  Uiso   1.00
C948   C     0.49719   0.74852   0.97261   0.00000  Uiso   1.00
N949   N     0.66506   0.69886   0.70694   0.00000  Uiso   1.00
O950   O     0.62757   0.69947   0.67228   0.00000  Uiso   1.00
O951   O     0.36137   0.66466   0.71058   0.00000  Uiso   1.00
N952   N     0.33784   0.79442   0.79430   0.00000  Uiso   1.00
O953   O     0.35241   0.78852   0.83990   0.00000  Uiso   1.00
O954   O     0.65943   0.83400   0.77892   0.00000  Uiso   1.00
N955   N     0.58739   0.61309   0.73103   0.00000  Uiso   1.00
O956   O     0.60668   0.64256   0.76213   0.00000  Uiso   1.00
O957   O     0.61609   0.59660   0.70087   0.00000  Uiso   1.00
N958   N     0.45297   0.88758   0.82736   0.00000  Uiso   1.00
O959   O     0.42404   0.85266   0.82060   0.00000  Uiso   1.00
O960   O     0.45329   0.90902   0.86777   0.00000  Uiso   1.00
N961   N     0.58865   0.77379   0.53714   0.00000  Uiso   1.00
H962   H     0.61232   0.79716   0.55517   0.00000  Uiso   1.00
C963   C     0.61593   0.73604   0.52186   0.00000  Uiso   1.00
H964   H     0.65295   0.74708   0.51050   0.00000  Uiso   1.00
H965   H     0.59370   0.71938   0.99067   0.00000  Uiso   1.00
H966   H     0.62323   0.71196   0.55174   0.00000  Uiso   1.00
N967   N     0.46862   0.67033   0.96394   0.00000  Uiso   1.00
H968   H     0.43846   0.67011   0.98401   0.00000  Uiso   1.00
C969   C     0.51207   0.64516   0.98466   0.00000  Uiso   1.00
H970   H     0.49916   0.61149   0.99374   0.00000  Uiso   1.00
H971   H     0.53044   0.66125   0.51811   0.00000  Uiso   1.00
H972   H     0.54036   0.64200   0.95847   0.00000  Uiso   1.00
N973   N     0.58292   0.78654   0.63754   0.00000  Uiso   1.00
H974   H     0.61802   0.77342   0.63341   0.00000  Uiso   1.00
C975   C     0.58373   0.83435   0.63891   0.00000  Uiso   1.00
H976   H     0.58926   0.84540   0.67702   0.00000  Uiso   1.00
H977   H     0.61620   0.84747   0.62113   0.00000  Uiso   1.00
H978   H     0.54785   0.84841   0.62038   0.00000  Uiso   1.00
N979   N     0.45414   0.67973   0.86410   0.00000  Uiso   1.00
H980   H     0.47020   0.64931   0.87225   0.00000  Uiso   1.00
C981   C     0.39902   0.67819   0.86152   0.00000  Uiso   1.00
H982   H     0.38351   0.65283   0.83488   0.00000  Uiso   1.00
H983   H     0.38261   0.71043   0.84985   0.00000  Uiso   1.00
H984   H     0.38694   0.66949   0.89703   0.00000  Uiso   1.00
N985   N     0.41853   0.71005   0.61852   0.00000  Uiso   1.00
O986   O     0.42576   0.66975   0.63366   0.00000  Uiso   1.00
O987   O     0.37211   0.72420   0.60867   0.00000  Uiso   1.00
N988   N     0.54574   0.82141   0.88068   0.00000  Uiso   1.00
O989   O     0.58628   0.81399   0.86001   0.00000  Uiso   1.00
O990   O     0.53996   0.86095   0.89734   0.00000  Uiso   1.00
O991   O     0.83334   0.68573   0.79072   0.00000  Uiso   1.00
O992   O     0.83333   0.81428   0.70929   0.00000  Uiso   1.00
O993   O     0.83334   0.68573   0.70928   0.00000  Uiso   1.00
O994   O     0.83333   0.81427   0.79072   0.00000  Uiso   1.00
C995   C     0.83306   0.66519   0.74999   0.00000  Uiso   1.00
C996   C     0.83021   0.83509   0.74980   0.00000  Uiso   1.00
O997   O     0.75828   0.75000   0.78132   0.00000  Uiso   1.00
O998   O     0.90839   0.75001   0.71868   0.00000  Uiso   1.00
O999   O     0.75828   0.75000   0.69989   0.00000  Uiso   1.00
O1000  O     0.90839   0.75000   0.80012   0.00000  Uiso   1.00
C1001  C     0.73495   0.74887   0.73823   0.00000  Uiso   1.00
C1002  C     0.93174   0.74921   0.76162   0.00000  Uiso   1.00
Cu1003 Cu    0.83333   0.75000   0.79822   0.00000  Uiso   1.00
Cu1004 Cu    0.83333   0.75001   0.70179   0.00000  Uiso   1.00
C1005  C     0.68122   0.73820   0.73405   0.00000  Uiso   1.00
C1006  C     0.98574   0.75742   0.76520   0.00000  Uiso   1.00
C1007  C     0.78319   0.54984   0.75852   0.00000  Uiso   1.00
C1008  C     0.83611   0.95254   0.70659   0.00000  Uiso   1.00
H1009  H     0.74857   0.53373   0.76720   0.00000  Uiso   1.00
H1010  H     0.84710   0.96924   0.67511   0.00000  Uiso   1.00
C1011  C     0.78712   0.59566   0.76094   0.00000  Uiso   1.00
C1012  C     0.83717   0.90674   0.70848   0.00000  Uiso   1.00
H1013  H     0.75539   0.61443   0.77108   0.00000  Uiso   1.00
H1014  H     0.84867   0.88943   0.67800   0.00000  Uiso   1.00
C1015  C     0.83148   0.61712   0.74985   0.00000  Uiso   1.00
C1016  C     0.82430   0.88375   0.74904   0.00000  Uiso   1.00
C1017  C     0.87277   0.59242   0.73703   0.00000  Uiso   1.00
C1018  C     0.80650   0.90821   0.78725   0.00000  Uiso   1.00
C1019  C     0.86805   0.54648   0.73368   0.00000  Uiso   1.00
C1020  C     0.80623   0.95444   0.78482   0.00000  Uiso   1.00
H1021  H     0.90011   0.52722   0.72495   0.00000  Uiso   1.00
H1022  H     0.79402   0.97341   0.81415   0.00000  Uiso   1.00
C1023  C     0.82362   0.52504   0.74475   0.00000  Uiso   1.00
C1024  C     0.82135   0.97661   0.74505   0.00000  Uiso   1.00
C1025  C     0.87623   0.76316   0.55749   0.00000  Uiso   1.00
C1026  C     0.81400   0.71167   0.94348   0.00000  Uiso   1.00
C1027  C     0.87441   0.76663   0.60833   0.00000  Uiso   1.00
C1028  C     0.81172   0.71464   0.89249   0.00000  Uiso   1.00
N1029  N     0.83333   0.75001   0.62935   0.00000  Uiso   1.00
N1030  N     0.83333   0.74999   0.87066   0.00000  Uiso   1.00
C1031  C     0.79235   0.73302   0.59955   0.00000  Uiso   1.00
C1032  C     0.85255   0.78497   0.89945   0.00000  Uiso   1.00
C1033  C     0.79001   0.73569   0.54916   0.00000  Uiso   1.00
C1034  C     0.84832   0.78535   0.94924   0.00000  Uiso   1.00
H1035  H     0.75490   0.72615   0.52743   0.00000  Uiso   1.00
H1036  H     0.86180   0.81406   0.97039   0.00000  Uiso   1.00
C1037  C     0.83245   0.74882   0.52707   0.00000  Uiso   1.00
C1038  C     0.83052   0.74852   0.97261   0.00000  Uiso   1.00
N1039  N     0.99840   0.69886   0.70694   0.00000  Uiso   1.00
O1040  O     0.96090   0.69947   0.67228   0.00000  Uiso   1.00
O1041  O     0.69471   0.66466   0.71058   0.00000  Uiso   1.00
N1042  N     0.67117   0.79442   0.79430   0.00000  Uiso   1.00
O1043  O     0.68574   0.78852   0.83990   0.00000  Uiso   1.00
O1044  O     0.99276   0.83400   0.77892   0.00000  Uiso   1.00
N1045  N     0.92073   0.61309   0.73103   0.00000  Uiso   1.00
O1046  O     0.94001   0.64256   0.76213   0.00000  Uiso   1.00
O1047  O     0.94943   0.59660   0.70087   0.00000  Uiso   1.00
N1048  N     0.78631   0.88758   0.82736   0.00000  Uiso   1.00
O1049  O     0.75737   0.85266   0.82060   0.00000  Uiso   1.00
O1050  O     0.78662   0.90902   0.86777   0.00000  Uiso   1.00
N1051  N     0.92199   0.77379   0.53714   0.00000  Uiso   1.00
H1052  H     0.94566   0.79716   0.55517   0.00000  Uiso   1.00
C1053  C     0.94926   0.73604   0.52186   0.00000  Uiso   1.00
H1054  H     0.98628   0.74708   0.51050   0.00000  Uiso   1.00
H1055  H     0.92703   0.71938   0.99067   0.00000  Uiso   1.00
H1056  H     0.95656   0.71196   0.55174   0.00000  Uiso   1.00
N1057  N     0.80196   0.67033   0.96394   0.00000  Uiso   1.00
H1058  H     0.77180   0.67011   0.98401   0.00000  Uiso   1.00
C1059  C     0.84541   0.64516   0.98466   0.00000  Uiso   1.00
H1060  H     0.83249   0.61149   0.99374   0.00000  Uiso   1.00
H1061  H     0.86377   0.66125   0.51811   0.00000  Uiso   1.00
H1062  H     0.87369   0.64200   0.95847   0.00000  Uiso   1.00
N1063  N     0.91625   0.78654   0.63754   0.00000  Uiso   1.00
H1064  H     0.95135   0.77342   0.63341   0.00000  Uiso   1.00
C1065  C     0.91706   0.83435   0.63891   0.00000  Uiso   1.00
H1066  H     0.92259   0.84540   0.67702   0.00000  Uiso   1.00
H1067  H     0.94953   0.84747   0.62113   0.00000  Uiso   1.00
H1068  H     0.88118   0.84841   0.62038   0.00000  Uiso   1.00
N1069  N     0.78747   0.67973   0.86410   0.00000  Uiso   1.00
H1070  H     0.80353   0.64931   0.87225   0.00000  Uiso   1.00
C1071  C     0.73235   0.67819   0.86152   0.00000  Uiso   1.00
H1072  H     0.71684   0.65283   0.83488   0.00000  Uiso   1.00
H1073  H     0.71594   0.71043   0.84985   0.00000  Uiso   1.00
H1074  H     0.72027   0.66949   0.89703   0.00000  Uiso   1.00
N1075  N     0.75187   0.71005   0.61852   0.00000  Uiso   1.00
O1076  O     0.75909   0.66975   0.63366   0.00000  Uiso   1.00
O1077  O     0.70545   0.72420   0.60867   0.00000  Uiso   1.00
N1078  N     0.87908   0.82141   0.88068   0.00000  Uiso   1.00
O1079  O     0.91961   0.81399   0.86001   0.00000  Uiso   1.00
O1080  O     0.87329   0.86095   0.89734   0.00000  Uiso   1.00
loop_
_geom_bond_atom_site_label_1
_geom_bond_atom_site_label_2
_geom_bond_distance
_geom_bond_site_symmetry_2
_ccdc_geom_bond_type
O1     C5      1.296   .     A
O1     Cu13    1.956   .     S
O2     C6      1.308   .     A
O2     Cu14    1.956   .     S
O3     Cu14    1.957   .     S
O3     C5      1.299   .     A
O4     Cu13    1.957   .     S
O4     C6      1.302   .     A
C5     C25     1.455   .     S
C6     C26     1.482   .     S
O7     C11     1.286   .     A
O7     Cu13    1.979   .     S
O8     C12     1.283   .     A
O8     Cu14    1.979   .     S
O9     Cu14    1.974   .     S
O9     C11     1.300   .     A
O10    C12     1.304   .     A
O10    Cu13    1.974   .     S
C11    C15     1.441   .     S
C12    C16     1.434   .     S
Cu13   N40     2.027   .     S
Cu13   Cu14    2.698   .     S
Cu14   N39     2.027   .     S
C15    C196    1.357   1_455 S
C15    N229    1.443   1_455 S
C16    C105    1.357   .     S
C16    N142    1.432   .     S
C17    C33     1.402   .     A
C17    C21     1.391   .     A
C17    H19     1.083   .     S
C18    C34     1.395   .     A
C18    C22     1.387   .     A
C18    H20     1.083   .     S
C21    H23     1.082   .     S
C21    C25     1.399   .     A
C22    H24     1.076   .     S
C22    C26     1.406   .     A
C25    C27     1.409   .     A
C26    C28     1.427   .     A
C27    C29     1.396   .     A
C27    N55     1.433   .     S
C28    N58     1.439   .     S
C28    C30     1.401   .     A
C29    C33     1.400   .     A
C29    H31     1.084   .     S
C30    H32     1.083   .     S
C30    C34     1.396   .     A
C33    C304    1.466   1_545 S
C34    C303    1.466   .     S
C35    C47     1.413   .     A
C35    C37     1.433   .     A
C35    N61     1.429   .     S
C36    N67     1.425   .     S
C36    C38     1.423   .     A
C36    C48     1.414   .     A
C37    N73     1.420   .     S
C37    N39     1.384   .     A
C38    N79     1.420   .     S
C38    N40     1.384   .     A
N39    C41     1.378   .     A
N40    C42     1.384   .     A
C41    C43     1.406   .     A
C41    N85     1.423   .     S
C42    C44     1.411   .     A
C42    N88     1.433   .     S
C43    H45     1.081   .     S
C43    C47     1.396   .     A
C44    H46     1.083   .     S
C44    C48     1.398   .     A
C47    C588    1.518   1_554 S
C48    C587    1.518   .     S
N49    O50     1.299   .     A
N49    C105    1.443   .     S
N49    O141    1.301   .     S
O51    N229    1.301   1_455 S
N52    O53     1.300   .     A
N52    C196    1.432   1_455 S
N52    O234    1.301   1_455 S
O54    N142    1.301   .     S
N55    O56     1.301   .     A
N55    O57     1.302   .     A
N58    O60     1.302   .     A
N58    O59     1.297   .     A
N61    C63     1.448   .     S
N61    H62     1.029   .     S
C63    H66     1.110   .     S
C63    H64     1.111   .     S
C63    H605    1.108   1_554 S
H65    C603    1.108   .     S
N67    H68     1.027   .     S
N67    C69     1.446   .     S
C69    H70     1.110   .     S
C69    H72     1.111   .     S
C69    H611    1.110   .     S
H71    C609    1.110   1_554 S
N73    C75     1.447   .     S
N73    H74     1.030   .     S
C75    H76     1.109   .     S
C75    H78     1.112   .     S
C75    H77     1.111   .     S
N79    C81     1.447   .     S
N79    H80     1.032   .     S
C81    H82     1.109   .     S
C81    H83     1.105   .     S
C81    H84     1.110   .     S
N85    O86     1.300   .     A
N85    O87     1.300   .     A
N88    O90     1.301   .     A
N88    O89     1.297   .     A
O91    C95     1.296   .     A
O91    Cu103   1.956   .     S
O92    C96     1.308   .     A
O92    Cu104   1.956   .     S
O93    Cu104   1.957   .     S
O93    C95     1.299   .     A
O94    Cu103   1.957   .     S
O94    C96     1.302   .     A
C95    C115    1.455   .     S
C96    C116    1.482   .     S
O97    C101    1.286   .     A
O97    Cu103   1.979   .     S
O98    C102    1.283   .     A
O98    Cu104   1.979   .     S
O99    Cu104   1.974   .     S
O99    C101    1.300   .     A
O100   C102    1.304   .     A
O100   Cu103   1.974   .     S
C101   C105    1.441   .     S
C102   C106    1.434   .     S
Cu103  N130    2.027   .     S
Cu103  Cu104   2.698   .     S
Cu104  N129    2.027   .     S
C106   C195    1.357   .     S
C106   N232    1.432   .     S
C107   C123    1.402   .     A
C107   C111    1.391   .     A
C107   H109    1.083   .     S
C108   C124    1.395   .     A
C108   C112    1.387   .     A
C108   H110    1.083   .     S
C111   H113    1.082   .     S
C111   C115    1.399   .     A
C112   H114    1.076   .     S
C112   C116    1.406   .     A
C115   C117    1.409   .     A
C116   C118    1.427   .     A
C117   C119    1.396   .     A
C117   N145    1.433   .     S
C118   N148    1.439   .     S
C118   C120    1.401   .     A
C119   C123    1.400   .     A
C119   H121    1.084   .     S
C120   H122    1.083   .     S
C120   C124    1.396   .     A
C123   C394    1.466   1_545 S
C124   C393    1.466   .     S
C125   C137    1.413   .     A
C125   C127    1.433   .     A
C125   N151    1.429   .     S
C126   N157    1.425   .     S
C126   C128    1.423   .     A
C126   C138    1.414   .     A
C127   N163    1.420   .     S
C127   N129    1.384   .     A
C128   N169    1.420   .     S
C128   N130    1.384   .     A
N129   C131    1.378   .     A
N130   C132    1.384   .     A
C131   C133    1.406   .     A
C131   N175    1.423   .     S
C132   C134    1.411   .     A
C132   N178    1.433   .     S
C133   H135    1.081   .     S
C133   C137    1.396   .     A
C134   H136    1.083   .     S
C134   C138    1.398   .     A
C137   C678    1.518   1_554 S
C138   C677    1.518   .     S
N139   O140    1.299   .     A
N139   C195    1.443   .     S
N139   O231    1.301   .     S
N142   O143    1.300   .     A
O144   N232    1.301   .     S
N145   O146    1.301   .     A
N145   O147    1.302   .     A
N148   O150    1.302   .     A
N148   O149    1.297   .     A
N151   C153    1.448   .     S
N151   H152    1.029   .     S
C153   H156    1.110   .     S
C153   H154    1.111   .     S
C153   H695    1.108   1_554 S
H155   C693    1.108   .     S
N157   H158    1.027   .     S
N157   C159    1.446   .     S
C159   H160    1.110   .     S
C159   H162    1.111   .     S
C159   H701    1.110   .     S
H161   C699    1.110   1_554 S
N163   C165    1.447   .     S
N163   H164    1.030   .     S
C165   H166    1.109   .     S
C165   H168    1.112   .     S
C165   H167    1.111   .     S
N169   C171    1.447   .     S
N169   H170    1.032   .     S
C171   H172    1.109   .     S
C171   H173    1.105   .     S
C171   H174    1.110   .     S
N175   O176    1.300   .     A
N175   O177    1.300   .     A
N178   O180    1.301   .     A
N178   O179    1.297   .     A
O181   C185    1.296   .     A
O181   Cu193   1.956   .     S
O182   C186    1.308   .     A
O182   Cu194   1.956   .     S
O183   Cu194   1.957   .     S
O183   C185    1.299   .     A
O184   Cu193   1.957   .     S
O184   C186    1.302   .     A
C185   C205    1.455   .     S
C186   C206    1.482   .     S
O187   C191    1.286   .     A
O187   Cu193   1.979   .     S
O188   C192    1.283   .     A
O188   Cu194   1.979   .     S
O189   Cu194   1.974   .     S
O189   C191    1.300   .     A
O190   C192    1.304   .     A
O190   Cu193   1.974   .     S
C191   C195    1.441   .     S
C192   C196    1.434   .     S
Cu193  N220    2.027   .     S
Cu193  Cu194   2.698   .     S
Cu194  N219    2.027   .     S
C196   C15     1.357   1_655 S
C196   N52     1.432   1_655 S
C197   C213    1.402   .     A
C197   C201    1.391   .     A
C197   H199    1.083   .     S
C198   C214    1.395   .     A
C198   C202    1.387   .     A
C198   H200    1.083   .     S
C201   H203    1.082   .     S
C201   C205    1.399   .     A
C202   H204    1.076   .     S
C202   C206    1.406   .     A
C205   C207    1.409   .     A
C206   C208    1.427   .     A
C207   C209    1.396   .     A
C207   N235    1.433   .     S
C208   N238    1.439   .     S
C208   C210    1.401   .     A
C209   C213    1.400   .     A
C209   H211    1.084   .     S
C210   H212    1.083   .     S
C210   C214    1.396   .     A
C213   C484    1.466   1_545 S
C214   C483    1.466   .     S
C215   C227    1.413   .     A
C215   C217    1.433   .     A
C215   N241    1.429   .     S
C216   N247    1.425   .     S
C216   C218    1.423   .     A
C216   C228    1.414   .     A
C217   N253    1.420   .     S
C217   N219    1.384   .     A
C218   N259    1.420   .     S
C218   N220    1.384   .     A
N219   C221    1.378   .     A
N220   C222    1.384   .     A
C221   C223    1.406   .     A
C221   N265    1.423   .     S
C222   C224    1.411   .     A
C222   N268    1.433   .     S
C223   H225    1.081   .     S
C223   C227    1.396   .     A
C224   H226    1.083   .     S
C224   C228    1.398   .     A
C227   C768    1.518   1_554 S
C228   C767    1.518   .     S
N229   O230    1.299   .     A
N229   C15     1.443   1_655 S
N229   O51     1.301   1_655 S
N232   O233    1.300   .     A
O234   N52     1.301   1_655 S
N235   O236    1.301   .     A
N235   O237    1.302   .     A
N238   O240    1.302   .     A
N238   O239    1.297   .     A
N241   C243    1.448   .     S
N241   H242    1.029   .     S
C243   H246    1.110   .     S
C243   H244    1.111   .     S
C243   H785    1.108   1_554 S
H245   C783    1.108   .     S
N247   H248    1.027   .     S
N247   C249    1.446   .     S
C249   H250    1.110   .     S
C249   H252    1.111   .     S
C249   H791    1.110   .     S
H251   C789    1.110   1_554 S
N253   C255    1.447   .     S
N253   H254    1.030   .     S
C255   H256    1.109   .     S
C255   H258    1.112   .     S
C255   H257    1.111   .     S
N259   C261    1.447   .     S
N259   H260    1.032   .     S
C261   H262    1.109   .     S
C261   H263    1.105   .     S
C261   H264    1.110   .     S
N265   O266    1.300   .     A
N265   O267    1.300   .     A
N268   O270    1.301   .     A
N268   O269    1.297   .     A
O271   C275    1.296   .     A
O271   Cu283   1.956   .     S
O272   C276    1.308   .     A
O272   Cu284   1.956   .     S
O273   Cu284   1.957   .     S
O273   C275    1.299   .     A
O274   Cu283   1.957   .     S
O274   C276    1.302   .     A
C275   C295    1.455   .     S
C276   C296    1.482   .     S
O277   C281    1.286   .     A
O277   Cu283   1.979   .     S
O278   C282    1.283   .     A
O278   Cu284   1.979   .     S
O279   Cu284   1.974   .     S
O279   C281    1.300   .     A
O280   C282    1.304   .     A
O280   Cu283   1.974   .     S
C281   C285    1.441   .     S
C282   C286    1.434   .     S
Cu283  N310    2.027   .     S
Cu283  Cu284   2.698   .     S
Cu284  N309    2.027   .     S
C285   C466    1.357   1_455 S
C285   N499    1.443   1_455 S
C286   C375    1.357   .     S
C286   N412    1.432   .     S
C287   C303    1.402   .     A
C287   C291    1.391   .     A
C287   H289    1.083   .     S
C288   C304    1.395   .     A
C288   C292    1.387   .     A
C288   H290    1.083   .     S
C291   H293    1.082   .     S
C291   C295    1.399   .     A
C292   H294    1.076   .     S
C292   C296    1.406   .     A
C295   C297    1.409   .     A
C296   C298    1.427   .     A
C297   C299    1.396   .     A
C297   N325    1.433   .     S
C298   N328    1.439   .     S
C298   C300    1.401   .     A
C299   C303    1.400   .     A
C299   H301    1.084   .     S
C300   H302    1.083   .     S
C300   C304    1.396   .     A
C304   C33     1.466   1_565 S
C305   C317    1.413   .     A
C305   C307    1.433   .     A
C305   N331    1.429   .     S
C306   N337    1.425   .     S
C306   C308    1.423   .     A
C306   C318    1.414   .     A
C307   N343    1.420   .     S
C307   N309    1.384   .     A
C308   N349    1.420   .     S
C308   N310    1.384   .     A
N309   C311    1.378   .     A
N310   C312    1.384   .     A
C311   C313    1.406   .     A
C311   N355    1.423   .     S
C312   C314    1.411   .     A
C312   N358    1.433   .     S
C313   H315    1.081   .     S
C313   C317    1.396   .     A
C314   H316    1.083   .     S
C314   C318    1.398   .     A
C317   C858    1.518   1_554 S
C318   C857    1.518   .     S
N319   O320    1.299   .     A
N319   C375    1.443   .     S
N319   O411    1.301   .     S
O321   N499    1.301   1_455 S
N322   O323    1.300   .     A
N322   C466    1.432   1_455 S
N322   O504    1.301   1_455 S
O324   N412    1.301   .     S
N325   O326    1.301   .     A
N325   O327    1.302   .     A
N328   O330    1.302   .     A
N328   O329    1.297   .     A
N331   C333    1.448   .     S
N331   H332    1.029   .     S
C333   H336    1.110   .     S
C333   H334    1.111   .     S
C333   H875    1.108   1_554 S
H335   C873    1.108   .     S
N337   H338    1.027   .     S
N337   C339    1.446   .     S
C339   H340    1.110   .     S
C339   H342    1.111   .     S
C339   H881    1.110   .     S
H341   C879    1.110   1_554 S
N343   C345    1.447   .     S
N343   H344    1.030   .     S
C345   H346    1.109   .     S
C345   H348    1.112   .     S
C345   H347    1.111   .     S
N349   C351    1.447   .     S
N349   H350    1.032   .     S
C351   H352    1.109   .     S
C351   H353    1.105   .     S
C351   H354    1.110   .     S
N355   O356    1.300   .     A
N355   O357    1.300   .     A
N358   O360    1.301   .     A
N358   O359    1.297   .     A
O361   C365    1.296   .     A
O361   Cu373   1.956   .     S
O362   C366    1.308   .     A
O362   Cu374   1.956   .     S
O363   Cu374   1.957   .     S
O363   C365    1.299   .     A
O364   Cu373   1.957   .     S
O364   C366    1.302   .     A
C365   C385    1.455   .     S
C366   C386    1.482   .     S
O367   C371    1.286   .     A
O367   Cu373   1.979   .     S
O368   C372    1.283   .     A
O368   Cu374   1.979   .     S
O369   Cu374   1.974   .     S
O369   C371    1.300   .     A
O370   C372    1.304   .     A
O370   Cu373   1.974   .     S
C371   C375    1.441   .     S
C372   C376    1.434   .     S
Cu373  N400    2.027   .     S
Cu373  Cu374   2.698   .     S
Cu374  N399    2.027   .     S
C376   C465    1.357   .     S
C376   N502    1.432   .     S
C377   C393    1.402   .     A
C377   C381    1.391   .     A
C377   H379    1.083   .     S
C378   C394    1.395   .     A
C378   C382    1.387   .     A
C378   H380    1.083   .     S
C381   H383    1.082   .     S
C381   C385    1.399   .     A
C382   H384    1.076   .     S
C382   C386    1.406   .     A
C385   C387    1.409   .     A
C386   C388    1.427   .     A
C387   C389    1.396   .     A
C387   N415    1.433   .     S
C388   N418    1.439   .     S
C388   C390    1.401   .     A
C389   C393    1.400   .     A
C389   H391    1.084   .     S
C390   H392    1.083   .     S
C390   C394    1.396   .     A
C394   C123    1.466   1_565 S
C395   C407    1.413   .     A
C395   C397    1.433   .     A
C395   N421    1.429   .     S
C396   N427    1.425   .     S
C396   C398    1.423   .     A
C396   C408    1.414   .     A
C397   N433    1.420   .     S
C397   N399    1.384   .     A
C398   N439    1.420   .     S
C398   N400    1.384   .     A
N399   C401    1.378   .     A
N400   C402    1.384   .     A
C401   C403    1.406   .     A
C401   N445    1.423   .     S
C402   C404    1.411   .     A
C402   N448    1.433   .     S
C403   H405    1.081   .     S
C403   C407    1.396   .     A
C404   H406    1.083   .     S
C404   C408    1.398   .     A
C407   C948    1.518   1_554 S
C408   C947    1.518   .     S
N409   O410    1.299   .     A
N409   C465    1.443   .     S
N409   O501    1.301   .     S
N412   O413    1.300   .     A
O414   N502    1.301   .     S
N415   O416    1.301   .     A
N415   O417    1.302   .     A
N418   O420    1.302   .     A
N418   O419    1.297   .     A
N421   C423    1.448   .     S
N421   H422    1.029   .     S
C423   H426    1.110   .     S
C423   H424    1.111   .     S
C423   H965    1.108   1_554 S
H425   C963    1.108   .     S
N427   H428    1.027   .     S
N427   C429    1.446   .     S
C429   H430    1.110   .     S
C429   H432    1.111   .     S
C429   H971    1.110   .     S
H431   C969    1.110   1_554 S
N433   C435    1.447   .     S
N433   H434    1.030   .     S
C435   H436    1.109   .     S
C435   H438    1.112   .     S
C435   H437    1.111   .     S
N439   C441    1.447   .     S
N439   H440    1.032   .     S
C441   H442    1.109   .     S
C441   H443    1.105   .     S
C441   H444    1.110   .     S
N445   O446    1.300   .     A
N445   O447    1.300   .     A
N448   O450    1.301   .     A
N448   O449    1.297   .     A
O451   C455    1.296   .     A
O451   Cu463   1.956   .     S
O452   C456    1.308   .     A
O452   Cu464   1.956   .     S
O453   Cu464   1.957   .     S
O453   C455    1.299   .     A
O454   Cu463   1.957   .     S
O454   C456    1.302   .     A
C455   C475    1.455   .     S
C456   C476    1.482   .     S
O457   C461    1.286   .     A
O457   Cu463   1.979   .     S
O458   C462    1.283   .     A
O458   Cu464   1.979   .     S
O459   Cu464   1.974   .     S
O459   C461    1.300   .     A
O460   C462    1.304   .     A
O460   Cu463   1.974   .     S
C461   C465    1.441   .     S
C462   C466    1.434   .     S
Cu463  N490    2.027   .     S
Cu463  Cu464   2.698   .     S
Cu464  N489    2.027   .     S
C466   C285    1.357   1_655 S
C466   N322    1.432   1_655 S
C467   C483    1.402   .     A
C467   C471    1.391   .     A
C467   H469    1.083   .     S
C468   C484    1.395   .     A
C468   C472    1.387   .     A
C468   H470    1.083   .     S
C471   H473    1.082   .     S
C471   C475    1.399   .     A
C472   H474    1.076   .     S
C472   C476    1.406   .     A
C475   C477    1.409   .     A
C476   C478    1.427   .     A
C477   C479    1.396   .     A
C477   N505    1.433   .     S
C478   N508    1.439   .     S
C478   C480    1.401   .     A
C479   C483    1.400   .     A
C479   H481    1.084   .     S
C480   H482    1.083   .     S
C480   C484    1.396   .     A
C484   C213    1.466   1_565 S
C485   C497    1.413   .     A
C485   C487    1.433   .     A
C485   N511    1.429   .     S
C486   N517    1.425   .     S
C486   C488    1.423   .     A
C486   C498    1.414   .     A
C487   N523    1.420   .     S
C487   N489    1.384   .     A
C488   N529    1.420   .     S
C488   N490    1.384   .     A
N489   C491    1.378   .     A
N490   C492    1.384   .     A
C491   C493    1.406   .     A
C491   N535    1.423   .     S
C492   C494    1.411   .     A
C492   N538    1.433   .     S
C493   H495    1.081   .     S
C493   C497    1.396   .     A
C494   H496    1.083   .     S
C494   C498    1.398   .     A
C497   C1038   1.518   1_554 S
C498   C1037   1.518   .     S
N499   O500    1.299   .     A
N499   C285    1.443   1_655 S
N499   O321    1.301   1_655 S
N502   O503    1.300   .     A
O504   N322    1.301   1_655 S
N505   O506    1.301   .     A
N505   O507    1.302   .     A
N508   O510    1.302   .     A
N508   O509    1.297   .     A
N511   C513    1.448   .     S
N511   H512    1.029   .     S
C513   H516    1.110   .     S
C513   H514    1.111   .     S
C513   H1055   1.108   1_554 S
H515   C1053   1.108   .     S
N517   H518    1.027   .     S
N517   C519    1.446   .     S
C519   H520    1.110   .     S
C519   H522    1.111   .     S
C519   H1061   1.110   .     S
H521   C1059   1.110   1_554 S
N523   C525    1.447   .     S
N523   H524    1.030   .     S
C525   H526    1.109   .     S
C525   H528    1.112   .     S
C525   H527    1.111   .     S
N529   C531    1.447   .     S
N529   H530    1.032   .     S
C531   H532    1.109   .     S
C531   H533    1.105   .     S
C531   H534    1.110   .     S
N535   O536    1.300   .     A
N535   O537    1.300   .     A
N538   O540    1.301   .     A
N538   O539    1.297   .     A
O541   C545    1.296   .     A
O541   Cu553   1.956   .     S
O542   C546    1.308   .     A
O542   Cu554   1.956   .     S
O543   Cu554   1.957   .     S
O543   C545    1.299   .     A
O544   Cu553   1.957   .     S
O544   C546    1.302   .     A
C545   C565    1.455   .     S
C546   C566    1.482   .     S
O547   C551    1.286   .     A
O547   Cu553   1.979   .     S
O548   C552    1.283   .     A
O548   Cu554   1.979   .     S
O549   Cu554   1.974   .     S
O549   C551    1.300   .     A
O550   C552    1.304   .     A
O550   Cu553   1.974   .     S
C551   C555    1.441   .     S
C552   C556    1.434   .     S
Cu553  N580    2.027   .     S
Cu553  Cu554   2.698   .     S
Cu554  N579    2.027   .     S
C555   C736    1.357   1_455 S
C555   N769    1.443   1_455 S
C556   C645    1.357   .     S
C556   N682    1.432   .     S
C557   C573    1.402   .     A
C557   C561    1.391   .     A
C557   H559    1.083   .     S
C558   C574    1.395   .     A
C558   C562    1.387   .     A
C558   H560    1.083   .     S
C561   H563    1.082   .     S
C561   C565    1.399   .     A
C562   H564    1.076   .     S
C562   C566    1.406   .     A
C565   C567    1.409   .     A
C566   C568    1.427   .     A
C567   C569    1.396   .     A
C567   N595    1.433   .     S
C568   N598    1.439   .     S
C568   C570    1.401   .     A
C569   C573    1.400   .     A
C569   H571    1.084   .     S
C570   H572    1.083   .     S
C570   C574    1.396   .     A
C573   C844    1.466   1_545 S
C574   C843    1.466   .     S
C575   C587    1.413   .     A
C575   C577    1.433   .     A
C575   N601    1.429   .     S
C576   N607    1.425   .     S
C576   C578    1.423   .     A
C576   C588    1.414   .     A
C577   N613    1.420   .     S
C577   N579    1.384   .     A
C578   N619    1.420   .     S
C578   N580    1.384   .     A
N579   C581    1.378   .     A
N580   C582    1.384   .     A
C581   C583    1.406   .     A
C581   N625    1.423   .     S
C582   C584    1.411   .     A
C582   N628    1.433   .     S
C583   H585    1.081   .     S
C583   C587    1.396   .     A
C584   H586    1.083   .     S
C584   C588    1.398   .     A
C588   C47     1.518   1_556 S
N589   O590    1.299   .     A
N589   C645    1.443   .     S
N589   O681    1.301   .     S
O591   N769    1.301   1_455 S
N592   O593    1.300   .     A
N592   C736    1.432   1_455 S
N592   O774    1.301   1_455 S
O594   N682    1.301   .     S
N595   O596    1.301   .     A
N595   O597    1.302   .     A
N598   O600    1.302   .     A
N598   O599    1.297   .     A
N601   C603    1.448   .     S
N601   H602    1.029   .     S
C603   H606    1.110   .     S
C603   H604    1.111   .     S
H605   C63     1.108   1_556 S
N607   H608    1.027   .     S
N607   C609    1.446   .     S
C609   H610    1.110   .     S
C609   H612    1.111   .     S
C609   H71     1.110   1_556 S
N613   C615    1.447   .     S
N613   H614    1.030   .     S
C615   H616    1.109   .     S
C615   H618    1.112   .     S
C615   H617    1.111   .     S
N619   C621    1.447   .     S
N619   H620    1.032   .     S
C621   H622    1.109   .     S
C621   H623    1.105   .     S
C621   H624    1.110   .     S
N625   O626    1.300   .     A
N625   O627    1.300   .     A
N628   O630    1.301   .     A
N628   O629    1.297   .     A
O631   C635    1.296   .     A
O631   Cu643   1.956   .     S
O632   C636    1.308   .     A
O632   Cu644   1.956   .     S
O633   Cu644   1.957   .     S
O633   C635    1.299   .     A
O634   Cu643   1.957   .     S
O634   C636    1.302   .     A
C635   C655    1.455   .     S
C636   C656    1.482   .     S
O637   C641    1.286   .     A
O637   Cu643   1.979   .     S
O638   C642    1.283   .     A
O638   Cu644   1.979   .     S
O639   Cu644   1.974   .     S
O639   C641    1.300   .     A
O640   C642    1.304   .     A
O640   Cu643   1.974   .     S
C641   C645    1.441   .     S
C642   C646    1.434   .     S
Cu643  N670    2.027   .     S
Cu643  Cu644   2.698   .     S
Cu644  N669    2.027   .     S
C646   C735    1.357   .     S
C646   N772    1.432   .     S
C647   C663    1.402   .     A
C647   C651    1.391   .     A
C647   H649    1.083   .     S
C648   C664    1.395   .     A
C648   C652    1.387   .     A
C648   H650    1.083   .     S
C651   H653    1.082   .     S
C651   C655    1.399   .     A
C652   H654    1.076   .     S
C652   C656    1.406   .     A
C655   C657    1.409   .     A
C656   C658    1.427   .     A
C657   C659    1.396   .     A
C657   N685    1.433   .     S
C658   N688    1.439   .     S
C658   C660    1.401   .     A
C659   C663    1.400   .     A
C659   H661    1.084   .     S
C660   H662    1.083   .     S
C660   C664    1.396   .     A
C663   C934    1.466   1_545 S
C664   C933    1.466   .     S
C665   C677    1.413   .     A
C665   C667    1.433   .     A
C665   N691    1.429   .     S
C666   N697    1.425   .     S
C666   C668    1.423   .     A
C666   C678    1.414   .     A
C667   N703    1.420   .     S
C667   N669    1.384   .     A
C668   N709    1.420   .     S
C668   N670    1.384   .     A
N669   C671    1.378   .     A
N670   C672    1.384   .     A
C671   C673    1.406   .     A
C671   N715    1.423   .     S
C672   C674    1.411   .     A
C672   N718    1.433   .     S
C673   H675    1.081   .     S
C673   C677    1.396   .     A
C674   H676    1.083   .     S
C674   C678    1.398   .     A
C678   C137    1.518   1_556 S
N679   O680    1.299   .     A
N679   C735    1.443   .     S
N679   O771    1.301   .     S
N682   O683    1.300   .     A
O684   N772    1.301   .     S
N685   O686    1.301   .     A
N685   O687    1.302   .     A
N688   O690    1.302   .     A
N688   O689    1.297   .     A
N691   C693    1.448   .     S
N691   H692    1.029   .     S
C693   H696    1.110   .     S
C693   H694    1.111   .     S
H695   C153    1.108   1_556 S
N697   H698    1.027   .     S
N697   C699    1.446   .     S
C699   H700    1.110   .     S
C699   H702    1.111   .     S
C699   H161    1.110   1_556 S
N703   C705    1.447   .     S
N703   H704    1.030   .     S
C705   H706    1.109   .     S
C705   H708    1.112   .     S
C705   H707    1.111   .     S
N709   C711    1.447   .     S
N709   H710    1.032   .     S
C711   H712    1.109   .     S
C711   H713    1.105   .     S
C711   H714    1.110   .     S
N715   O716    1.300   .     A
N715   O717    1.300   .     A
N718   O720    1.301   .     A
N718   O719    1.297   .     A
O721   C725    1.296   .     A
O721   Cu733   1.956   .     S
O722   C726    1.308   .     A
O722   Cu734   1.956   .     S
O723   Cu734   1.957   .     S
O723   C725    1.299   .     A
O724   Cu733   1.957   .     S
O724   C726    1.302   .     A
C725   C745    1.455   .     S
C726   C746    1.482   .     S
O727   C731    1.286   .     A
O727   Cu733   1.979   .     S
O728   C732    1.283   .     A
O728   Cu734   1.979   .     S
O729   Cu734   1.974   .     S
O729   C731    1.300   .     A
O730   C732    1.304   .     A
O730   Cu733   1.974   .     S
C731   C735    1.441   .     S
C732   C736    1.434   .     S
Cu733  N760    2.027   .     S
Cu733  Cu734   2.698   .     S
Cu734  N759    2.027   .     S
C736   C555    1.357   1_655 S
C736   N592    1.432   1_655 S
C737   C753    1.402   .     A
C737   C741    1.391   .     A
C737   H739    1.083   .     S
C738   C754    1.395   .     A
C738   C742    1.387   .     A
C738   H740    1.083   .     S
C741   H743    1.082   .     S
C741   C745    1.399   .     A
C742   H744    1.076   .     S
C742   C746    1.406   .     A
C745   C747    1.409   .     A
C746   C748    1.427   .     A
C747   C749    1.396   .     A
C747   N775    1.433   .     S
C748   N778    1.439   .     S
C748   C750    1.401   .     A
C749   C753    1.400   .     A
C749   H751    1.084   .     S
C750   H752    1.083   .     S
C750   C754    1.396   .     A
C753   C1024   1.466   1_545 S
C754   C1023   1.466   .     S
C755   C767    1.413   .     A
C755   C757    1.433   .     A
C755   N781    1.429   .     S
C756   N787    1.425   .     S
C756   C758    1.423   .     A
C756   C768    1.414   .     A
C757   N793    1.420   .     S
C757   N759    1.384   .     A
C758   N799    1.420   .     S
C758   N760    1.384   .     A
N759   C761    1.378   .     A
N760   C762    1.384   .     A
C761   C763    1.406   .     A
C761   N805    1.423   .     S
C762   C764    1.411   .     A
C762   N808    1.433   .     S
C763   H765    1.081   .     S
C763   C767    1.396   .     A
C764   H766    1.083   .     S
C764   C768    1.398   .     A
C768   C227    1.518   1_556 S
N769   O770    1.299   .     A
N769   C555    1.443   1_655 S
N769   O591    1.301   1_655 S
N772   O773    1.300   .     A
O774   N592    1.301   1_655 S
N775   O776    1.301   .     A
N775   O777    1.302   .     A
N778   O780    1.302   .     A
N778   O779    1.297   .     A
N781   C783    1.448   .     S
N781   H782    1.029   .     S
C783   H786    1.110   .     S
C783   H784    1.111   .     S
H785   C243    1.108   1_556 S
N787   H788    1.027   .     S
N787   C789    1.446   .     S
C789   H790    1.110   .     S
C789   H792    1.111   .     S
C789   H251    1.110   1_556 S
N793   C795    1.447   .     S
N793   H794    1.030   .     S
C795   H796    1.109   .     S
C795   H798    1.112   .     S
C795   H797    1.111   .     S
N799   C801    1.447   .     S
N799   H800    1.032   .     S
C801   H802    1.109   .     S
C801   H803    1.105   .     S
C801   H804    1.110   .     S
N805   O806    1.300   .     A
N805   O807    1.300   .     A
N808   O810    1.301   .     A
N808   O809    1.297   .     A
O811   C815    1.296   .     A
O811   Cu823   1.956   .     S
O812   C816    1.308   .     A
O812   Cu824   1.956   .     S
O813   Cu824   1.957   .     S
O813   C815    1.299   .     A
O814   Cu823   1.957   .     S
O814   C816    1.302   .     A
C815   C835    1.455   .     S
C816   C836    1.482   .     S
O817   C821    1.286   .     A
O817   Cu823   1.979   .     S
O818   C822    1.283   .     A
O818   Cu824   1.979   .     S
O819   Cu824   1.974   .     S
O819   C821    1.300   .     A
O820   C822    1.304   .     A
O820   Cu823   1.974   .     S
C821   C825    1.441   .     S
C822   C826    1.434   .     S
Cu823  N850    2.027   .     S
Cu823  Cu824   2.698   .     S
Cu824  N849    2.027   .     S
C825   C1006   1.357   1_455 S
C825   N1039   1.443   1_455 S
C826   C915    1.357   .     S
C826   N952    1.432   .     S
C827   C843    1.402   .     A
C827   C831    1.391   .     A
C827   H829    1.083   .     S
C828   C844    1.395   .     A
C828   C832    1.387   .     A
C828   H830    1.083   .     S
C831   H833    1.082   .     S
C831   C835    1.399   .     A
C832   H834    1.076   .     S
C832   C836    1.406   .     A
C835   C837    1.409   .     A
C836   C838    1.427   .     A
C837   C839    1.396   .     A
C837   N865    1.433   .     S
C838   N868    1.439   .     S
C838   C840    1.401   .     A
C839   C843    1.400   .     A
C839   H841    1.084   .     S
C840   H842    1.083   .     S
C840   C844    1.396   .     A
C844   C573    1.466   1_565 S
C845   C857    1.413   .     A
C845   C847    1.433   .     A
C845   N871    1.429   .     S
C846   N877    1.425   .     S
C846   C848    1.423   .     A
C846   C858    1.414   .     A
C847   N883    1.420   .     S
C847   N849    1.384   .     A
C848   N889    1.420   .     S
C848   N850    1.384   .     A
N849   C851    1.378   .     A
N850   C852    1.384   .     A
C851   C853    1.406   .     A
C851   N895    1.423   .     S
C852   C854    1.411   .     A
C852   N898    1.433   .     S
C853   H855    1.081   .     S
C853   C857    1.396   .     A
C854   H856    1.083   .     S
C854   C858    1.398   .     A
C858   C317    1.518   1_556 S
N859   O860    1.299   .     A
N859   C915    1.443   .     S
N859   O951    1.301   .     S
O861   N1039   1.301   1_455 S
N862   O863    1.300   .     A
N862   C1006   1.432   1_455 S
N862   O1044   1.301   1_455 S
O864   N952    1.301   .     S
N865   O866    1.301   .     A
N865   O867    1.302   .     A
N868   O870    1.302   .     A
N868   O869    1.297   .     A
N871   C873    1.448   .     S
N871   H872    1.029   .     S
C873   H876    1.110   .     S
C873   H874    1.111   .     S
H875   C333    1.108   1_556 S
N877   H878    1.027   .     S
N877   C879    1.446   .     S
C879   H880    1.110   .     S
C879   H882    1.111   .     S
C879   H341    1.110   1_556 S
N883   C885    1.447   .     S
N883   H884    1.030   .     S
C885   H886    1.109   .     S
C885   H888    1.112   .     S
C885   H887    1.111   .     S
N889   C891    1.447   .     S
N889   H890    1.032   .     S
C891   H892    1.109   .     S
C891   H893    1.105   .     S
C891   H894    1.110   .     S
N895   O896    1.300   .     A
N895   O897    1.300   .     A
N898   O900    1.301   .     A
N898   O899    1.297   .     A
O901   C905    1.296   .     A
O901   Cu913   1.956   .     S
O902   C906    1.308   .     A
O902   Cu914   1.956   .     S
O903   Cu914   1.957   .     S
O903   C905    1.299   .     A
O904   Cu913   1.957   .     S
O904   C906    1.302   .     A
C905   C925    1.455   .     S
C906   C926    1.482   .     S
O907   C911    1.286   .     A
O907   Cu913   1.979   .     S
O908   C912    1.283   .     A
O908   Cu914   1.979   .     S
O909   Cu914   1.974   .     S
O909   C911    1.300   .     A
O910   C912    1.304   .     A
O910   Cu913   1.974   .     S
C911   C915    1.441   .     S
C912   C916    1.434   .     S
Cu913  N940    2.027   .     S
Cu913  Cu914   2.698   .     S
Cu914  N939    2.027   .     S
C916   C1005   1.357   .     S
C916   N1042   1.432   .     S
C917   C933    1.402   .     A
C917   C921    1.391   .     A
C917   H919    1.083   .     S
C918   C934    1.395   .     A
C918   C922    1.387   .     A
C918   H920    1.083   .     S
C921   H923    1.082   .     S
C921   C925    1.399   .     A
C922   H924    1.076   .     S
C922   C926    1.406   .     A
C925   C927    1.409   .     A
C926   C928    1.427   .     A
C927   C929    1.396   .     A
C927   N955    1.433   .     S
C928   N958    1.439   .     S
C928   C930    1.401   .     A
C929   C933    1.400   .     A
C929   H931    1.084   .     S
C930   H932    1.083   .     S
C930   C934    1.396   .     A
C934   C663    1.466   1_565 S
C935   C947    1.413   .     A
C935   C937    1.433   .     A
C935   N961    1.429   .     S
C936   N967    1.425   .     S
C936   C938    1.423   .     A
C936   C948    1.414   .     A
C937   N973    1.420   .     S
C937   N939    1.384   .     A
C938   N979    1.420   .     S
C938   N940    1.384   .     A
N939   C941    1.378   .     A
N940   C942    1.384   .     A
C941   C943    1.406   .     A
C941   N985    1.423   .     S
C942   C944    1.411   .     A
C942   N988    1.433   .     S
C943   H945    1.081   .     S
C943   C947    1.396   .     A
C944   H946    1.083   .     S
C944   C948    1.398   .     A
C948   C407    1.518   1_556 S
N949   O950    1.299   .     A
N949   C1005   1.443   .     S
N949   O1041   1.301   .     S
N952   O953    1.300   .     A
O954   N1042   1.301   .     S
N955   O956    1.301   .     A
N955   O957    1.302   .     A
N958   O960    1.302   .     A
N958   O959    1.297   .     A
N961   C963    1.448   .     S
N961   H962    1.029   .     S
C963   H966    1.110   .     S
C963   H964    1.111   .     S
H965   C423    1.108   1_556 S
N967   H968    1.027   .     S
N967   C969    1.446   .     S
C969   H970    1.110   .     S
C969   H972    1.111   .     S
C969   H431    1.110   1_556 S
N973   C975    1.447   .     S
N973   H974    1.030   .     S
C975   H976    1.109   .     S
C975   H978    1.112   .     S
C975   H977    1.111   .     S
N979   C981    1.447   .     S
N979   H980    1.032   .     S
C981   H982    1.109   .     S
C981   H983    1.105   .     S
C981   H984    1.110   .     S
N985   O986    1.300   .     A
N985   O987    1.300   .     A
N988   O990    1.301   .     A
N988   O989    1.297   .     A
O991   C995    1.296   .     A
O991   Cu1003  1.956   .     S
O992   C996    1.308   .     A
O992   Cu1004  1.956   .     S
O993   Cu1004  1.957   .     S
O993   C995    1.299   .     A
O994   Cu1003  1.957   .     S
O994   C996    1.302   .     A
C995   C1015   1.455   .     S
C996   C1016   1.482   .     S
O997   C1001   1.286   .     A
O997   Cu1003  1.979   .     S
O998   C1002   1.283   .     A
O998   Cu1004  1.979   .     S
O999   Cu1004  1.974   .     S
O999   C1001   1.300   .     A
O1000  C1002   1.304   .     A
O1000  Cu1003  1.974   .     S
C1001  C1005   1.441   .     S
C1002  C1006   1.434   .     S
Cu1003 N1030   2.027   .     S
Cu1003 Cu1004  2.698   .     S
Cu1004 N1029   2.027   .     S
C1006  C825    1.357   1_655 S
C1006  N862    1.432   1_655 S
C1007  C1023   1.402   .     A
C1007  C1011   1.391   .     A
C1007  H1009   1.083   .     S
C1008  C1024   1.395   .     A
C1008  C1012   1.387   .     A
C1008  H1010   1.083   .     S
C1011  H1013   1.082   .     S
C1011  C1015   1.399   .     A
C1012  H1014   1.076   .     S
C1012  C1016   1.406   .     A
C1015  C1017   1.409   .     A
C1016  C1018   1.427   .     A
C1017  C1019   1.396   .     A
C1017  N1045   1.433   .     S
C1018  N1048   1.439   .     S
C1018  C1020   1.401   .     A
C1019  C1023   1.400   .     A
C1019  H1021   1.084   .     S
C1020  H1022   1.083   .     S
C1020  C1024   1.396   .     A
C1024  C753    1.466   1_565 S
C1025  C1037   1.413   .     A
C1025  C1027   1.433   .     A
C1025  N1051   1.429   .     S
C1026  N1057   1.425   .     S
C1026  C1028   1.423   .     A
C1026  C1038   1.414   .     A
C1027  N1063   1.420   .     S
C1027  N1029   1.384   .     A
C1028  N1069   1.420   .     S
C1028  N1030   1.384   .     A
N1029  C1031   1.378   .     A
N1030  C1032   1.384   .     A
C1031  C1033   1.406   .     A
C1031  N1075   1.423   .     S
C1032  C1034   1.411   .     A
C1032  N1078   1.433   .     S
C1033  H1035   1.081   .     S
C1033  C1037   1.396   .     A
C1034  H1036   1.083   .     S
C1034  C1038   1.398   .     A
C1038  C497    1.518   1_556 S
N1039  O1040   1.299   .     A
N1039  C825    1.443   1_655 S
N1039  O861    1.301   1_655 S
N1042  O1043   1.300   .     A
O1044  N862    1.301   1_655 S
N1045  O1046   1.301   .     A
N1045  O1047   1.302   .     A
N1048  O1050   1.302   .     A
N1048  O1049   1.297   .     A
N1051  C1053   1.448   .     S
N1051  H1052   1.029   .     S
C1053  H1056   1.110   .     S
C1053  H1054   1.111   .     S
H1055  C513    1.108   1_556 S
N1057  H1058   1.027   .     S
N1057  C1059   1.446   .     S
C1059  H1060   1.110   .     S
C1059  H1062   1.111   .     S
C1059  H521    1.110   1_556 S
N1063  C1065   1.447   .     S
N1063  H1064   1.030   .     S
C1065  H1066   1.109   .     S
C1065  H1068   1.112   .     S
C1065  H1067   1.111   .     S
N1069  C1071   1.447   .     S
N1069  H1070   1.032   .     S
C1071  H1072   1.109   .     S
C1071  H1073   1.105   .     S
C1071  H1074   1.110   .     S
N1075  O1076   1.300   .     A
N1075  O1077   1.300   .     A
N1078  O1080   1.301   .     A
N1078  O1079   1.297   .     A
