data_str_m1_o10_o16_pcu_sym.78
_audit_creation_date              2020-01-03
_audit_creation_method            'Materials Studio'
_symmetry_space_group_name_H-M    'P1'
_symmetry_Int_Tables_number       1
_symmetry_cell_setting            triclinic
loop_
_symmetry_equiv_pos_as_xyz
  x,y,z
_cell_length_a                    32.5775
_cell_length_b                    32.5058
_cell_length_c                    30.7274
_cell_angle_alpha                 96.0906
_cell_angle_beta                  75.1623
_cell_angle_gamma                 98.5738
loop_
_atom_site_label
_atom_site_type_symbol
_atom_site_fract_x
_atom_site_fract_y
_atom_site_fract_z
_atom_site_U_iso_or_equiv
_atom_site_adp_type
_atom_site_occupancy
C1     C     0.05268   0.15897   0.26036   0.00000  Uiso   1.00
C2     C     0.17151   0.15968   0.05731   0.00000  Uiso   1.00
C3     C     0.21073   0.10272   0.06019   0.00000  Uiso   1.00
C4     C     0.28078   0.17506   0.24100   0.00000  Uiso   1.00
C5     C     0.13435   0.18660   0.42234   0.00000  Uiso   1.00
C6     C     0.32598   0.18309   0.24145   0.00000  Uiso   1.00
C7     C     0.00795   0.15609   0.26140   0.00000  Uiso   1.00
C8     C     0.18189   0.32325   0.23685   0.00000  Uiso   1.00
C9     C     0.15223   0.01161   0.26365   0.00000  Uiso   1.00
C10    C     0.15566   0.05585   0.26078   0.00000  Uiso   1.00
C11    C     0.17696   0.27807   0.24017   0.00000  Uiso   1.00
C12    C     0.09588   0.21893   0.49386   0.00000  Uiso   1.00
C13    C     0.18496   0.14841   0.12906   0.00000  Uiso   1.00
C14    C     0.14747   0.18363   0.37166   0.00000  Uiso   1.00
C15    C     0.20220   0.08441   0.01881   0.00000  Uiso   1.00
C16    C     0.19260   0.13880   0.08025   0.00000  Uiso   1.00
C17    C     0.11274   0.22044   0.44682   0.00000  Uiso   1.00
C18    C     0.10867   0.19072   0.01776   0.00000  Uiso   1.00
C19    C     0.13924   0.16406   0.49439   0.00000  Uiso   1.00
C20    C     0.14372   0.15598   0.44753   0.00000  Uiso   1.00
C21    C     0.16332   0.14328   0.01592   0.00000  Uiso   1.00
C22    C     0.18186   0.10710   0.49437   0.00000  Uiso   1.00
C23    C     0.17936   0.09514   0.44926   0.00000  Uiso   1.00
C24    C     0.15580   0.11680   0.42837   0.00000  Uiso   1.00
H25    H     0.32158   0.12747   0.27312   0.00000  Uiso   1.00
H26    H     0.04636   0.24655   0.49851   0.00000  Uiso   1.00
H27    H     0.14032   0.06717   0.39132   0.00000  Uiso   1.00
H28    H     0.00654   0.22828   0.15675   0.00000  Uiso   1.00
H29    H     0.12442   0.33018   0.28711   0.00000  Uiso   1.00
H30    H     0.16096   0.18891   0.07278   0.00000  Uiso   1.00
H31    H     0.28482   0.14261   0.09064   0.00000  Uiso   1.00
H32    H     0.23528   0.32344   0.19013   0.00000  Uiso   1.00
H33    H     0.20797   0.06884   0.39157   0.00000  Uiso   1.00
H34    H     0.14165   0.01176   0.00476   0.00000  Uiso   1.00
H35    H     0.09059   0.32771   0.44023   0.00000  Uiso   1.00
H36    H     0.06969   0.13846   0.12389   0.00000  Uiso   1.00
O37    O     0.16667   0.16667   0.25000   0.00000  Uiso   1.00
O38    O     0.15451   0.12637   0.15459   0.00000  Uiso   1.00
O39    O     0.12940   0.20391   0.34968   0.00000  Uiso   1.00
O40    O     0.20824   0.17759   0.14606   0.00000  Uiso   1.00
O41    O     0.17451   0.15880   0.34968   0.00000  Uiso   1.00
O42    O     0.22010   0.05349   0.12091   0.00000  Uiso   1.00
O43    O     0.27891   0.06098   0.05286   0.00000  Uiso   1.00
O44    O     0.27160   0.12237   0.11374   0.00000  Uiso   1.00
O45    O     0.21621   0.01052   0.20699   0.00000  Uiso   1.00
O46    O     0.20355   0.06539   0.42419   0.00000  Uiso   1.00
O47    O     0.24993   0.02684   0.46974   0.00000  Uiso   1.00
O48    O     0.17930   0.08019   0.28214   0.00000  Uiso   1.00
O49    O     0.20643   0.00692   0.04364   0.00000  Uiso   1.00
O50    O     0.16789   0.00737   0.48093   0.00000  Uiso   1.00
O51    O     0.14769   0.27994   0.38835   0.00000  Uiso   1.00
O52    O     0.07190   0.25294   0.39524   0.00000  Uiso   1.00
O53    O     0.09180   0.30472   0.45844   0.00000  Uiso   1.00
O54    O     0.09143   0.21781   0.10476   0.00000  Uiso   1.00
O55    O     0.03100   0.18357   0.07551   0.00000  Uiso   1.00
O56    O     0.08234   0.13667   0.09090   0.00000  Uiso   1.00
O57    O     0.06632   0.24456   0.01751   0.00000  Uiso   1.00
O58    O     0.13950   0.09767   0.39285   0.00000  Uiso   1.00
O59    O     0.14632   0.26085   0.27014   0.00000  Uiso   1.00
O60    O     0.02463   0.26171   0.25924   0.00000  Uiso   1.00
O61    O     0.06928   0.22235   0.19786   0.00000  Uiso   1.00
O62    O     0.00313   0.24898   0.18308   0.00000  Uiso   1.00
O63    O     0.07412   0.13291   0.23413   0.00000  Uiso   1.00
O64    O     0.26693   0.19272   0.21361   0.00000  Uiso   1.00
O65    O     0.07071   0.18878   0.28213   0.00000  Uiso   1.00
O66    O     0.25491   0.15226   0.27014   0.00000  Uiso   1.00
O67    O     0.13760   0.06944   0.23413   0.00000  Uiso   1.00
O68    O     0.20345   0.25620   0.21361   0.00000  Uiso   1.00
S69    S     0.24589   0.08314   0.08677   0.00000  Uiso   1.00
S70    S     0.20797   0.03042   0.00360   0.00000  Uiso   1.00
S71    S     0.10624   0.26498   0.42057   0.00000  Uiso   1.00
S72    S     0.07740   0.18275   0.07372   0.00000  Uiso   1.00
S73    S     0.02400   0.22979   0.22021   0.00000  Uiso   1.00
Zn74   Zn    0.19338   0.13994   0.28734   0.00000  Uiso   1.00
Zn75   Zn    0.13379   0.12458   0.21876   0.00000  Uiso   1.00
Zn76   Zn    0.21056   0.19775   0.20657   0.00000  Uiso   1.00
Zn77   Zn    0.12893   0.20439   0.28734   0.00000  Uiso   1.00
C78    C     0.38601   0.15897   0.26036   0.00000  Uiso   1.00
C79    C     0.50485   0.15968   0.05731   0.00000  Uiso   1.00
C80    C     0.54407   0.10272   0.06019   0.00000  Uiso   1.00
C81    C     0.61412   0.17506   0.24100   0.00000  Uiso   1.00
C82    C     0.46768   0.18660   0.42234   0.00000  Uiso   1.00
C83    C     0.65932   0.18309   0.24145   0.00000  Uiso   1.00
C84    C     0.34129   0.15609   0.26140   0.00000  Uiso   1.00
C85    C     0.51522   0.32325   0.23685   0.00000  Uiso   1.00
C86    C     0.48556   0.01161   0.26365   0.00000  Uiso   1.00
C87    C     0.48899   0.05585   0.26078   0.00000  Uiso   1.00
C88    C     0.51029   0.27807   0.24017   0.00000  Uiso   1.00
C89    C     0.42921   0.21893   0.49386   0.00000  Uiso   1.00
C90    C     0.51830   0.14841   0.12906   0.00000  Uiso   1.00
C91    C     0.48080   0.18363   0.37166   0.00000  Uiso   1.00
C92    C     0.53553   0.08441   0.01881   0.00000  Uiso   1.00
C93    C     0.52594   0.13880   0.08025   0.00000  Uiso   1.00
C94    C     0.44607   0.22044   0.44682   0.00000  Uiso   1.00
C95    C     0.44200   0.19072   0.01776   0.00000  Uiso   1.00
C96    C     0.47257   0.16406   0.49439   0.00000  Uiso   1.00
C97    C     0.47705   0.15598   0.44753   0.00000  Uiso   1.00
C98    C     0.49666   0.14328   0.01592   0.00000  Uiso   1.00
C99    C     0.51519   0.10710   0.49437   0.00000  Uiso   1.00
C100   C     0.51270   0.09514   0.44926   0.00000  Uiso   1.00
C101   C     0.48913   0.11680   0.42837   0.00000  Uiso   1.00
H102   H     0.65492   0.12747   0.27312   0.00000  Uiso   1.00
H103   H     0.37969   0.24655   0.49851   0.00000  Uiso   1.00
H104   H     0.47365   0.06717   0.39132   0.00000  Uiso   1.00
H105   H     0.33987   0.22828   0.15675   0.00000  Uiso   1.00
H106   H     0.45775   0.33018   0.28711   0.00000  Uiso   1.00
H107   H     0.49430   0.18891   0.07278   0.00000  Uiso   1.00
H108   H     0.61815   0.14261   0.09064   0.00000  Uiso   1.00
H109   H     0.56862   0.32344   0.19013   0.00000  Uiso   1.00
H110   H     0.54131   0.06884   0.39157   0.00000  Uiso   1.00
H111   H     0.47498   0.01176   0.00476   0.00000  Uiso   1.00
H112   H     0.42392   0.32771   0.44023   0.00000  Uiso   1.00
H113   H     0.40302   0.13846   0.12389   0.00000  Uiso   1.00
O114   O     0.50000   0.16667   0.25000   0.00000  Uiso   1.00
O115   O     0.48784   0.12637   0.15459   0.00000  Uiso   1.00
O116   O     0.46274   0.20391   0.34968   0.00000  Uiso   1.00
O117   O     0.54157   0.17759   0.14606   0.00000  Uiso   1.00
O118   O     0.50785   0.15880   0.34968   0.00000  Uiso   1.00
O119   O     0.55343   0.05349   0.12091   0.00000  Uiso   1.00
O120   O     0.61224   0.06098   0.05286   0.00000  Uiso   1.00
O121   O     0.60493   0.12237   0.11374   0.00000  Uiso   1.00
O122   O     0.54954   0.01052   0.20699   0.00000  Uiso   1.00
O123   O     0.53689   0.06539   0.42419   0.00000  Uiso   1.00
O124   O     0.58326   0.02684   0.46974   0.00000  Uiso   1.00
O125   O     0.51264   0.08019   0.28214   0.00000  Uiso   1.00
O126   O     0.53976   0.00692   0.04364   0.00000  Uiso   1.00
O127   O     0.50123   0.00737   0.48093   0.00000  Uiso   1.00
O128   O     0.48103   0.27994   0.38835   0.00000  Uiso   1.00
O129   O     0.40523   0.25294   0.39524   0.00000  Uiso   1.00
O130   O     0.42513   0.30472   0.45844   0.00000  Uiso   1.00
O131   O     0.42477   0.21781   0.10476   0.00000  Uiso   1.00
O132   O     0.36433   0.18357   0.07551   0.00000  Uiso   1.00
O133   O     0.41567   0.13667   0.09090   0.00000  Uiso   1.00
O134   O     0.39965   0.24456   0.01751   0.00000  Uiso   1.00
O135   O     0.47283   0.09767   0.39285   0.00000  Uiso   1.00
O136   O     0.47965   0.26085   0.27014   0.00000  Uiso   1.00
O137   O     0.35796   0.26171   0.25924   0.00000  Uiso   1.00
O138   O     0.40261   0.22235   0.19786   0.00000  Uiso   1.00
O139   O     0.33647   0.24898   0.18308   0.00000  Uiso   1.00
O140   O     0.40745   0.13291   0.23413   0.00000  Uiso   1.00
O141   O     0.60026   0.19272   0.21361   0.00000  Uiso   1.00
O142   O     0.40405   0.18878   0.28213   0.00000  Uiso   1.00
O143   O     0.58824   0.15226   0.27014   0.00000  Uiso   1.00
O144   O     0.47093   0.06944   0.23413   0.00000  Uiso   1.00
O145   O     0.53678   0.25620   0.21361   0.00000  Uiso   1.00
S146   S     0.57923   0.08314   0.08677   0.00000  Uiso   1.00
S147   S     0.54130   0.03042   0.00360   0.00000  Uiso   1.00
S148   S     0.43957   0.26498   0.42057   0.00000  Uiso   1.00
S149   S     0.41073   0.18275   0.07372   0.00000  Uiso   1.00
S150   S     0.35734   0.22979   0.22021   0.00000  Uiso   1.00
Zn151  Zn    0.52672   0.13994   0.28734   0.00000  Uiso   1.00
Zn152  Zn    0.46713   0.12458   0.21876   0.00000  Uiso   1.00
Zn153  Zn    0.54389   0.19775   0.20657   0.00000  Uiso   1.00
Zn154  Zn    0.46226   0.20439   0.28734   0.00000  Uiso   1.00
C155   C     0.71935   0.15897   0.26036   0.00000  Uiso   1.00
C156   C     0.83818   0.15968   0.05731   0.00000  Uiso   1.00
C157   C     0.87740   0.10272   0.06019   0.00000  Uiso   1.00
C158   C     0.94745   0.17506   0.24100   0.00000  Uiso   1.00
C159   C     0.80101   0.18660   0.42234   0.00000  Uiso   1.00
C160   C     0.99265   0.18309   0.24145   0.00000  Uiso   1.00
C161   C     0.67462   0.15609   0.26140   0.00000  Uiso   1.00
C162   C     0.84856   0.32325   0.23685   0.00000  Uiso   1.00
C163   C     0.81890   0.01161   0.26365   0.00000  Uiso   1.00
C164   C     0.82232   0.05585   0.26078   0.00000  Uiso   1.00
C165   C     0.84363   0.27807   0.24017   0.00000  Uiso   1.00
C166   C     0.76254   0.21893   0.49386   0.00000  Uiso   1.00
C167   C     0.85163   0.14841   0.12906   0.00000  Uiso   1.00
C168   C     0.81413   0.18363   0.37166   0.00000  Uiso   1.00
C169   C     0.86887   0.08441   0.01881   0.00000  Uiso   1.00
C170   C     0.85927   0.13880   0.08025   0.00000  Uiso   1.00
C171   C     0.77940   0.22044   0.44682   0.00000  Uiso   1.00
C172   C     0.77533   0.19072   0.01776   0.00000  Uiso   1.00
C173   C     0.80591   0.16406   0.49439   0.00000  Uiso   1.00
C174   C     0.81039   0.15598   0.44753   0.00000  Uiso   1.00
C175   C     0.82999   0.14328   0.01592   0.00000  Uiso   1.00
C176   C     0.84852   0.10710   0.49437   0.00000  Uiso   1.00
C177   C     0.84603   0.09514   0.44926   0.00000  Uiso   1.00
C178   C     0.82247   0.11680   0.42837   0.00000  Uiso   1.00
H179   H     0.98825   0.12747   0.27312   0.00000  Uiso   1.00
H180   H     0.71303   0.24655   0.49851   0.00000  Uiso   1.00
H181   H     0.80699   0.06717   0.39132   0.00000  Uiso   1.00
H182   H     0.67321   0.22828   0.15675   0.00000  Uiso   1.00
H183   H     0.79108   0.33018   0.28711   0.00000  Uiso   1.00
H184   H     0.82763   0.18891   0.07278   0.00000  Uiso   1.00
H185   H     0.95149   0.14261   0.09064   0.00000  Uiso   1.00
H186   H     0.90195   0.32344   0.19013   0.00000  Uiso   1.00
H187   H     0.87464   0.06884   0.39157   0.00000  Uiso   1.00
H188   H     0.80831   0.01176   0.00476   0.00000  Uiso   1.00
H189   H     0.75725   0.32771   0.44023   0.00000  Uiso   1.00
H190   H     0.73635   0.13846   0.12389   0.00000  Uiso   1.00
O191   O     0.83333   0.16667   0.25000   0.00000  Uiso   1.00
O192   O     0.82118   0.12637   0.15459   0.00000  Uiso   1.00
O193   O     0.79607   0.20391   0.34968   0.00000  Uiso   1.00
O194   O     0.87491   0.17759   0.14606   0.00000  Uiso   1.00
O195   O     0.84118   0.15880   0.34968   0.00000  Uiso   1.00
O196   O     0.88677   0.05349   0.12091   0.00000  Uiso   1.00
O197   O     0.94557   0.06098   0.05286   0.00000  Uiso   1.00
O198   O     0.93827   0.12237   0.11374   0.00000  Uiso   1.00
O199   O     0.88287   0.01052   0.20699   0.00000  Uiso   1.00
O200   O     0.87022   0.06539   0.42419   0.00000  Uiso   1.00
O201   O     0.91660   0.02684   0.46974   0.00000  Uiso   1.00
O202   O     0.84597   0.08019   0.28214   0.00000  Uiso   1.00
O203   O     0.87310   0.00692   0.04364   0.00000  Uiso   1.00
O204   O     0.83456   0.00737   0.48093   0.00000  Uiso   1.00
O205   O     0.81436   0.27994   0.38835   0.00000  Uiso   1.00
O206   O     0.73857   0.25294   0.39524   0.00000  Uiso   1.00
O207   O     0.75846   0.30472   0.45844   0.00000  Uiso   1.00
O208   O     0.75810   0.21781   0.10476   0.00000  Uiso   1.00
O209   O     0.69766   0.18357   0.07551   0.00000  Uiso   1.00
O210   O     0.74900   0.13667   0.09090   0.00000  Uiso   1.00
O211   O     0.73298   0.24456   0.01751   0.00000  Uiso   1.00
O212   O     0.80617   0.09767   0.39285   0.00000  Uiso   1.00
O213   O     0.81298   0.26085   0.27014   0.00000  Uiso   1.00
O214   O     0.69129   0.26171   0.25924   0.00000  Uiso   1.00
O215   O     0.73594   0.22235   0.19786   0.00000  Uiso   1.00
O216   O     0.66980   0.24898   0.18308   0.00000  Uiso   1.00
O217   O     0.74078   0.13291   0.23413   0.00000  Uiso   1.00
O218   O     0.93360   0.19272   0.21361   0.00000  Uiso   1.00
O219   O     0.73738   0.18878   0.28213   0.00000  Uiso   1.00
O220   O     0.92158   0.15226   0.27014   0.00000  Uiso   1.00
O221   O     0.80426   0.06944   0.23413   0.00000  Uiso   1.00
O222   O     0.87012   0.25620   0.21361   0.00000  Uiso   1.00
S223   S     0.91256   0.08314   0.08677   0.00000  Uiso   1.00
S224   S     0.87463   0.03042   0.00360   0.00000  Uiso   1.00
S225   S     0.77290   0.26498   0.42057   0.00000  Uiso   1.00
S226   S     0.74407   0.18275   0.07372   0.00000  Uiso   1.00
S227   S     0.69067   0.22979   0.22021   0.00000  Uiso   1.00
Zn228  Zn    0.86005   0.13994   0.28734   0.00000  Uiso   1.00
Zn229  Zn    0.80046   0.12458   0.21876   0.00000  Uiso   1.00
Zn230  Zn    0.87723   0.19775   0.20657   0.00000  Uiso   1.00
Zn231  Zn    0.79560   0.20439   0.28734   0.00000  Uiso   1.00
C232   C     0.05268   0.49230   0.26036   0.00000  Uiso   1.00
C233   C     0.17151   0.49301   0.05731   0.00000  Uiso   1.00
C234   C     0.21073   0.43605   0.06019   0.00000  Uiso   1.00
C235   C     0.28078   0.50839   0.24100   0.00000  Uiso   1.00
C236   C     0.13435   0.51994   0.42234   0.00000  Uiso   1.00
C237   C     0.32598   0.51642   0.24145   0.00000  Uiso   1.00
C238   C     0.00795   0.48942   0.26140   0.00000  Uiso   1.00
C239   C     0.18189   0.65658   0.23685   0.00000  Uiso   1.00
C240   C     0.15223   0.34494   0.26365   0.00000  Uiso   1.00
C241   C     0.15566   0.38918   0.26078   0.00000  Uiso   1.00
C242   C     0.17696   0.61140   0.24017   0.00000  Uiso   1.00
C243   C     0.09588   0.55226   0.49386   0.00000  Uiso   1.00
C244   C     0.18496   0.48174   0.12906   0.00000  Uiso   1.00
C245   C     0.14747   0.51696   0.37166   0.00000  Uiso   1.00
C246   C     0.20220   0.41774   0.01881   0.00000  Uiso   1.00
C247   C     0.19260   0.47213   0.08025   0.00000  Uiso   1.00
C248   C     0.11274   0.55378   0.44682   0.00000  Uiso   1.00
C249   C     0.10867   0.52405   0.01776   0.00000  Uiso   1.00
C250   C     0.13924   0.49740   0.49439   0.00000  Uiso   1.00
C251   C     0.14372   0.48931   0.44753   0.00000  Uiso   1.00
C252   C     0.16332   0.47662   0.01592   0.00000  Uiso   1.00
C253   C     0.18186   0.44044   0.49437   0.00000  Uiso   1.00
C254   C     0.17936   0.42847   0.44926   0.00000  Uiso   1.00
C255   C     0.15580   0.45013   0.42837   0.00000  Uiso   1.00
H256   H     0.32158   0.46080   0.27312   0.00000  Uiso   1.00
H257   H     0.04636   0.57988   0.49851   0.00000  Uiso   1.00
H258   H     0.14032   0.40051   0.39132   0.00000  Uiso   1.00
H259   H     0.00654   0.56161   0.15675   0.00000  Uiso   1.00
H260   H     0.12442   0.66351   0.28711   0.00000  Uiso   1.00
H261   H     0.16096   0.52224   0.07278   0.00000  Uiso   1.00
H262   H     0.28482   0.47595   0.09064   0.00000  Uiso   1.00
H263   H     0.23528   0.65677   0.19013   0.00000  Uiso   1.00
H264   H     0.20797   0.40218   0.39157   0.00000  Uiso   1.00
H265   H     0.14165   0.34510   0.00476   0.00000  Uiso   1.00
H266   H     0.09059   0.66104   0.44023   0.00000  Uiso   1.00
H267   H     0.06969   0.47179   0.12389   0.00000  Uiso   1.00
O268   O     0.16667   0.50000   0.25000   0.00000  Uiso   1.00
O269   O     0.15451   0.45970   0.15459   0.00000  Uiso   1.00
O270   O     0.12940   0.53724   0.34968   0.00000  Uiso   1.00
O271   O     0.20824   0.51092   0.14606   0.00000  Uiso   1.00
O272   O     0.17451   0.49213   0.34968   0.00000  Uiso   1.00
O273   O     0.22010   0.38683   0.12091   0.00000  Uiso   1.00
O274   O     0.27891   0.39431   0.05286   0.00000  Uiso   1.00
O275   O     0.27160   0.45570   0.11374   0.00000  Uiso   1.00
O276   O     0.21621   0.34385   0.20699   0.00000  Uiso   1.00
O277   O     0.20355   0.39872   0.42419   0.00000  Uiso   1.00
O278   O     0.24993   0.36017   0.46974   0.00000  Uiso   1.00
O279   O     0.17930   0.41352   0.28214   0.00000  Uiso   1.00
O280   O     0.20643   0.34026   0.04364   0.00000  Uiso   1.00
O281   O     0.16789   0.34071   0.48093   0.00000  Uiso   1.00
O282   O     0.14769   0.61327   0.38835   0.00000  Uiso   1.00
O283   O     0.07190   0.58628   0.39524   0.00000  Uiso   1.00
O284   O     0.09180   0.63805   0.45844   0.00000  Uiso   1.00
O285   O     0.09143   0.55115   0.10476   0.00000  Uiso   1.00
O286   O     0.03100   0.51690   0.07551   0.00000  Uiso   1.00
O287   O     0.08234   0.47000   0.09090   0.00000  Uiso   1.00
O288   O     0.06632   0.57790   0.01751   0.00000  Uiso   1.00
O289   O     0.13950   0.43100   0.39285   0.00000  Uiso   1.00
O290   O     0.14632   0.59418   0.27014   0.00000  Uiso   1.00
O291   O     0.02463   0.59504   0.25924   0.00000  Uiso   1.00
O292   O     0.06928   0.55568   0.19786   0.00000  Uiso   1.00
O293   O     0.00313   0.58231   0.18308   0.00000  Uiso   1.00
O294   O     0.07412   0.46625   0.23413   0.00000  Uiso   1.00
O295   O     0.26693   0.52605   0.21361   0.00000  Uiso   1.00
O296   O     0.07071   0.52211   0.28213   0.00000  Uiso   1.00
O297   O     0.25491   0.48559   0.27014   0.00000  Uiso   1.00
O298   O     0.13760   0.40277   0.23413   0.00000  Uiso   1.00
O299   O     0.20345   0.58953   0.21361   0.00000  Uiso   1.00
S300   S     0.24589   0.41648   0.08677   0.00000  Uiso   1.00
S301   S     0.20797   0.36375   0.00360   0.00000  Uiso   1.00
S302   S     0.10624   0.59831   0.42057   0.00000  Uiso   1.00
S303   S     0.07740   0.51608   0.07372   0.00000  Uiso   1.00
S304   S     0.02400   0.56312   0.22021   0.00000  Uiso   1.00
Zn305  Zn    0.19338   0.47327   0.28734   0.00000  Uiso   1.00
Zn306  Zn    0.13379   0.45791   0.21876   0.00000  Uiso   1.00
Zn307  Zn    0.21056   0.53109   0.20657   0.00000  Uiso   1.00
Zn308  Zn    0.12893   0.53773   0.28734   0.00000  Uiso   1.00
C309   C     0.38601   0.49230   0.26036   0.00000  Uiso   1.00
C310   C     0.50485   0.49301   0.05731   0.00000  Uiso   1.00
C311   C     0.54407   0.43605   0.06019   0.00000  Uiso   1.00
C312   C     0.61412   0.50839   0.24100   0.00000  Uiso   1.00
C313   C     0.46768   0.51994   0.42234   0.00000  Uiso   1.00
C314   C     0.65932   0.51642   0.24145   0.00000  Uiso   1.00
C315   C     0.34129   0.48942   0.26140   0.00000  Uiso   1.00
C316   C     0.51522   0.65658   0.23685   0.00000  Uiso   1.00
C317   C     0.48556   0.34494   0.26365   0.00000  Uiso   1.00
C318   C     0.48899   0.38918   0.26078   0.00000  Uiso   1.00
C319   C     0.51029   0.61140   0.24017   0.00000  Uiso   1.00
C320   C     0.42921   0.55226   0.49386   0.00000  Uiso   1.00
C321   C     0.51830   0.48174   0.12906   0.00000  Uiso   1.00
C322   C     0.48080   0.51696   0.37166   0.00000  Uiso   1.00
C323   C     0.53553   0.41774   0.01881   0.00000  Uiso   1.00
C324   C     0.52594   0.47213   0.08025   0.00000  Uiso   1.00
C325   C     0.44607   0.55378   0.44682   0.00000  Uiso   1.00
C326   C     0.44200   0.52405   0.01776   0.00000  Uiso   1.00
C327   C     0.47257   0.49740   0.49439   0.00000  Uiso   1.00
C328   C     0.47705   0.48931   0.44753   0.00000  Uiso   1.00
C329   C     0.49666   0.47662   0.01592   0.00000  Uiso   1.00
C330   C     0.51519   0.44044   0.49437   0.00000  Uiso   1.00
C331   C     0.51270   0.42847   0.44926   0.00000  Uiso   1.00
C332   C     0.48913   0.45013   0.42837   0.00000  Uiso   1.00
H333   H     0.65492   0.46080   0.27312   0.00000  Uiso   1.00
H334   H     0.37969   0.57988   0.49851   0.00000  Uiso   1.00
H335   H     0.47365   0.40051   0.39132   0.00000  Uiso   1.00
H336   H     0.33987   0.56161   0.15675   0.00000  Uiso   1.00
H337   H     0.45775   0.66351   0.28711   0.00000  Uiso   1.00
H338   H     0.49430   0.52224   0.07278   0.00000  Uiso   1.00
H339   H     0.61815   0.47595   0.09064   0.00000  Uiso   1.00
H340   H     0.56862   0.65677   0.19013   0.00000  Uiso   1.00
H341   H     0.54131   0.40218   0.39157   0.00000  Uiso   1.00
H342   H     0.47498   0.34510   0.00476   0.00000  Uiso   1.00
H343   H     0.42392   0.66104   0.44023   0.00000  Uiso   1.00
H344   H     0.40302   0.47179   0.12389   0.00000  Uiso   1.00
O345   O     0.50000   0.50000   0.25000   0.00000  Uiso   1.00
O346   O     0.48784   0.45970   0.15459   0.00000  Uiso   1.00
O347   O     0.46274   0.53724   0.34968   0.00000  Uiso   1.00
O348   O     0.54157   0.51092   0.14606   0.00000  Uiso   1.00
O349   O     0.50785   0.49213   0.34968   0.00000  Uiso   1.00
O350   O     0.55343   0.38683   0.12091   0.00000  Uiso   1.00
O351   O     0.61224   0.39431   0.05286   0.00000  Uiso   1.00
O352   O     0.60493   0.45570   0.11374   0.00000  Uiso   1.00
O353   O     0.54954   0.34385   0.20699   0.00000  Uiso   1.00
O354   O     0.53689   0.39872   0.42419   0.00000  Uiso   1.00
O355   O     0.58326   0.36017   0.46974   0.00000  Uiso   1.00
O356   O     0.51264   0.41352   0.28214   0.00000  Uiso   1.00
O357   O     0.53976   0.34026   0.04364   0.00000  Uiso   1.00
O358   O     0.50123   0.34071   0.48093   0.00000  Uiso   1.00
O359   O     0.48103   0.61327   0.38835   0.00000  Uiso   1.00
O360   O     0.40523   0.58628   0.39524   0.00000  Uiso   1.00
O361   O     0.42513   0.63805   0.45844   0.00000  Uiso   1.00
O362   O     0.42477   0.55115   0.10476   0.00000  Uiso   1.00
O363   O     0.36433   0.51690   0.07551   0.00000  Uiso   1.00
O364   O     0.41567   0.47000   0.09090   0.00000  Uiso   1.00
O365   O     0.39965   0.57790   0.01751   0.00000  Uiso   1.00
O366   O     0.47283   0.43100   0.39285   0.00000  Uiso   1.00
O367   O     0.47965   0.59418   0.27014   0.00000  Uiso   1.00
O368   O     0.35796   0.59504   0.25924   0.00000  Uiso   1.00
O369   O     0.40261   0.55568   0.19786   0.00000  Uiso   1.00
O370   O     0.33647   0.58231   0.18308   0.00000  Uiso   1.00
O371   O     0.40745   0.46625   0.23413   0.00000  Uiso   1.00
O372   O     0.60026   0.52605   0.21361   0.00000  Uiso   1.00
O373   O     0.40405   0.52211   0.28213   0.00000  Uiso   1.00
O374   O     0.58824   0.48559   0.27014   0.00000  Uiso   1.00
O375   O     0.47093   0.40277   0.23413   0.00000  Uiso   1.00
O376   O     0.53678   0.58953   0.21361   0.00000  Uiso   1.00
S377   S     0.57923   0.41648   0.08677   0.00000  Uiso   1.00
S378   S     0.54130   0.36375   0.00360   0.00000  Uiso   1.00
S379   S     0.43957   0.59831   0.42057   0.00000  Uiso   1.00
S380   S     0.41073   0.51608   0.07372   0.00000  Uiso   1.00
S381   S     0.35734   0.56312   0.22021   0.00000  Uiso   1.00
Zn382  Zn    0.52672   0.47327   0.28734   0.00000  Uiso   1.00
Zn383  Zn    0.46713   0.45791   0.21876   0.00000  Uiso   1.00
Zn384  Zn    0.54389   0.53109   0.20657   0.00000  Uiso   1.00
Zn385  Zn    0.46226   0.53773   0.28734   0.00000  Uiso   1.00
C386   C     0.71935   0.49230   0.26036   0.00000  Uiso   1.00
C387   C     0.83818   0.49301   0.05731   0.00000  Uiso   1.00
C388   C     0.87740   0.43605   0.06019   0.00000  Uiso   1.00
C389   C     0.94745   0.50839   0.24100   0.00000  Uiso   1.00
C390   C     0.80101   0.51994   0.42234   0.00000  Uiso   1.00
C391   C     0.99265   0.51642   0.24145   0.00000  Uiso   1.00
C392   C     0.67462   0.48942   0.26140   0.00000  Uiso   1.00
C393   C     0.84856   0.65658   0.23685   0.00000  Uiso   1.00
C394   C     0.81890   0.34494   0.26365   0.00000  Uiso   1.00
C395   C     0.82232   0.38918   0.26078   0.00000  Uiso   1.00
C396   C     0.84363   0.61140   0.24017   0.00000  Uiso   1.00
C397   C     0.76254   0.55226   0.49386   0.00000  Uiso   1.00
C398   C     0.85163   0.48174   0.12906   0.00000  Uiso   1.00
C399   C     0.81413   0.51696   0.37166   0.00000  Uiso   1.00
C400   C     0.86887   0.41774   0.01881   0.00000  Uiso   1.00
C401   C     0.85927   0.47213   0.08025   0.00000  Uiso   1.00
C402   C     0.77940   0.55378   0.44682   0.00000  Uiso   1.00
C403   C     0.77533   0.52405   0.01776   0.00000  Uiso   1.00
C404   C     0.80591   0.49740   0.49439   0.00000  Uiso   1.00
C405   C     0.81039   0.48931   0.44753   0.00000  Uiso   1.00
C406   C     0.82999   0.47662   0.01592   0.00000  Uiso   1.00
C407   C     0.84852   0.44044   0.49437   0.00000  Uiso   1.00
C408   C     0.84603   0.42847   0.44926   0.00000  Uiso   1.00
C409   C     0.82247   0.45013   0.42837   0.00000  Uiso   1.00
H410   H     0.98825   0.46080   0.27312   0.00000  Uiso   1.00
H411   H     0.71303   0.57988   0.49851   0.00000  Uiso   1.00
H412   H     0.80699   0.40051   0.39132   0.00000  Uiso   1.00
H413   H     0.67321   0.56161   0.15675   0.00000  Uiso   1.00
H414   H     0.79108   0.66351   0.28711   0.00000  Uiso   1.00
H415   H     0.82763   0.52224   0.07278   0.00000  Uiso   1.00
H416   H     0.95149   0.47595   0.09064   0.00000  Uiso   1.00
H417   H     0.90195   0.65677   0.19013   0.00000  Uiso   1.00
H418   H     0.87464   0.40218   0.39157   0.00000  Uiso   1.00
H419   H     0.80831   0.34510   0.00476   0.00000  Uiso   1.00
H420   H     0.75725   0.66104   0.44023   0.00000  Uiso   1.00
H421   H     0.73635   0.47179   0.12389   0.00000  Uiso   1.00
O422   O     0.83333   0.50000   0.25000   0.00000  Uiso   1.00
O423   O     0.82118   0.45970   0.15459   0.00000  Uiso   1.00
O424   O     0.79607   0.53724   0.34968   0.00000  Uiso   1.00
O425   O     0.87491   0.51092   0.14606   0.00000  Uiso   1.00
O426   O     0.84118   0.49213   0.34968   0.00000  Uiso   1.00
O427   O     0.88677   0.38683   0.12091   0.00000  Uiso   1.00
O428   O     0.94557   0.39431   0.05286   0.00000  Uiso   1.00
O429   O     0.93827   0.45570   0.11374   0.00000  Uiso   1.00
O430   O     0.88287   0.34385   0.20699   0.00000  Uiso   1.00
O431   O     0.87022   0.39872   0.42419   0.00000  Uiso   1.00
O432   O     0.91660   0.36017   0.46974   0.00000  Uiso   1.00
O433   O     0.84597   0.41352   0.28214   0.00000  Uiso   1.00
O434   O     0.87310   0.34026   0.04364   0.00000  Uiso   1.00
O435   O     0.83456   0.34071   0.48093   0.00000  Uiso   1.00
O436   O     0.81436   0.61327   0.38835   0.00000  Uiso   1.00
O437   O     0.73857   0.58628   0.39524   0.00000  Uiso   1.00
O438   O     0.75846   0.63805   0.45844   0.00000  Uiso   1.00
O439   O     0.75810   0.55115   0.10476   0.00000  Uiso   1.00
O440   O     0.69766   0.51690   0.07551   0.00000  Uiso   1.00
O441   O     0.74900   0.47000   0.09090   0.00000  Uiso   1.00
O442   O     0.73298   0.57790   0.01751   0.00000  Uiso   1.00
O443   O     0.80617   0.43100   0.39285   0.00000  Uiso   1.00
O444   O     0.81298   0.59418   0.27014   0.00000  Uiso   1.00
O445   O     0.69129   0.59504   0.25924   0.00000  Uiso   1.00
O446   O     0.73594   0.55568   0.19786   0.00000  Uiso   1.00
O447   O     0.66980   0.58231   0.18308   0.00000  Uiso   1.00
O448   O     0.74078   0.46625   0.23413   0.00000  Uiso   1.00
O449   O     0.93360   0.52605   0.21361   0.00000  Uiso   1.00
O450   O     0.73738   0.52211   0.28213   0.00000  Uiso   1.00
O451   O     0.92158   0.48559   0.27014   0.00000  Uiso   1.00
O452   O     0.80426   0.40277   0.23413   0.00000  Uiso   1.00
O453   O     0.87012   0.58953   0.21361   0.00000  Uiso   1.00
S454   S     0.91256   0.41648   0.08677   0.00000  Uiso   1.00
S455   S     0.87463   0.36375   0.00360   0.00000  Uiso   1.00
S456   S     0.77290   0.59831   0.42057   0.00000  Uiso   1.00
S457   S     0.74407   0.51608   0.07372   0.00000  Uiso   1.00
S458   S     0.69067   0.56312   0.22021   0.00000  Uiso   1.00
Zn459  Zn    0.86005   0.47327   0.28734   0.00000  Uiso   1.00
Zn460  Zn    0.80046   0.45791   0.21876   0.00000  Uiso   1.00
Zn461  Zn    0.87723   0.53109   0.20657   0.00000  Uiso   1.00
Zn462  Zn    0.79560   0.53773   0.28734   0.00000  Uiso   1.00
C463   C     0.05268   0.82563   0.26036   0.00000  Uiso   1.00
C464   C     0.17151   0.82634   0.05731   0.00000  Uiso   1.00
C465   C     0.21073   0.76939   0.06019   0.00000  Uiso   1.00
C466   C     0.28078   0.84172   0.24100   0.00000  Uiso   1.00
C467   C     0.13435   0.85327   0.42234   0.00000  Uiso   1.00
C468   C     0.32598   0.84975   0.24145   0.00000  Uiso   1.00
C469   C     0.00795   0.82276   0.26140   0.00000  Uiso   1.00
C470   C     0.18189   0.98992   0.23685   0.00000  Uiso   1.00
C471   C     0.15223   0.67828   0.26365   0.00000  Uiso   1.00
C472   C     0.15566   0.72251   0.26078   0.00000  Uiso   1.00
C473   C     0.17696   0.94473   0.24017   0.00000  Uiso   1.00
C474   C     0.09588   0.88560   0.49386   0.00000  Uiso   1.00
C475   C     0.18496   0.81507   0.12906   0.00000  Uiso   1.00
C476   C     0.14747   0.85029   0.37166   0.00000  Uiso   1.00
C477   C     0.20220   0.75107   0.01881   0.00000  Uiso   1.00
C478   C     0.19260   0.80546   0.08025   0.00000  Uiso   1.00
C479   C     0.11274   0.88711   0.44682   0.00000  Uiso   1.00
C480   C     0.10867   0.85739   0.01776   0.00000  Uiso   1.00
C481   C     0.13924   0.83073   0.49439   0.00000  Uiso   1.00
C482   C     0.14372   0.82265   0.44753   0.00000  Uiso   1.00
C483   C     0.16332   0.80995   0.01592   0.00000  Uiso   1.00
C484   C     0.18186   0.77377   0.49437   0.00000  Uiso   1.00
C485   C     0.17936   0.76181   0.44926   0.00000  Uiso   1.00
C486   C     0.15580   0.78347   0.42837   0.00000  Uiso   1.00
H487   H     0.32158   0.79414   0.27312   0.00000  Uiso   1.00
H488   H     0.04636   0.91321   0.49851   0.00000  Uiso   1.00
H489   H     0.14032   0.73384   0.39132   0.00000  Uiso   1.00
H490   H     0.00654   0.89495   0.15675   0.00000  Uiso   1.00
H491   H     0.12442   0.99684   0.28711   0.00000  Uiso   1.00
H492   H     0.16096   0.85558   0.07278   0.00000  Uiso   1.00
H493   H     0.28482   0.80928   0.09064   0.00000  Uiso   1.00
H494   H     0.23528   0.99011   0.19013   0.00000  Uiso   1.00
H495   H     0.20797   0.73551   0.39157   0.00000  Uiso   1.00
H496   H     0.14165   0.67843   0.00476   0.00000  Uiso   1.00
H497   H     0.09059   0.99437   0.44023   0.00000  Uiso   1.00
H498   H     0.06969   0.80513   0.12389   0.00000  Uiso   1.00
O499   O     0.16667   0.83333   0.25000   0.00000  Uiso   1.00
O500   O     0.15451   0.79304   0.15459   0.00000  Uiso   1.00
O501   O     0.12940   0.87058   0.34968   0.00000  Uiso   1.00
O502   O     0.20824   0.84425   0.14606   0.00000  Uiso   1.00
O503   O     0.17451   0.82546   0.34968   0.00000  Uiso   1.00
O504   O     0.22010   0.72016   0.12091   0.00000  Uiso   1.00
O505   O     0.27891   0.72764   0.05286   0.00000  Uiso   1.00
O506   O     0.27160   0.78904   0.11374   0.00000  Uiso   1.00
O507   O     0.21621   0.67718   0.20699   0.00000  Uiso   1.00
O508   O     0.20355   0.73206   0.42419   0.00000  Uiso   1.00
O509   O     0.24993   0.69351   0.46974   0.00000  Uiso   1.00
O510   O     0.17930   0.74686   0.28214   0.00000  Uiso   1.00
O511   O     0.20643   0.67359   0.04364   0.00000  Uiso   1.00
O512   O     0.16789   0.67404   0.48093   0.00000  Uiso   1.00
O513   O     0.14769   0.94660   0.38835   0.00000  Uiso   1.00
O514   O     0.07190   0.91961   0.39524   0.00000  Uiso   1.00
O515   O     0.09180   0.97139   0.45844   0.00000  Uiso   1.00
O516   O     0.09143   0.88448   0.10476   0.00000  Uiso   1.00
O517   O     0.03100   0.85024   0.07551   0.00000  Uiso   1.00
O518   O     0.08234   0.80333   0.09090   0.00000  Uiso   1.00
O519   O     0.06632   0.91123   0.01751   0.00000  Uiso   1.00
O520   O     0.13950   0.76433   0.39285   0.00000  Uiso   1.00
O521   O     0.14632   0.92751   0.27014   0.00000  Uiso   1.00
O522   O     0.02463   0.92837   0.25924   0.00000  Uiso   1.00
O523   O     0.06928   0.88901   0.19786   0.00000  Uiso   1.00
O524   O     0.00313   0.91564   0.18308   0.00000  Uiso   1.00
O525   O     0.07412   0.79958   0.23413   0.00000  Uiso   1.00
O526   O     0.26693   0.85939   0.21361   0.00000  Uiso   1.00
O527   O     0.07071   0.85544   0.28213   0.00000  Uiso   1.00
O528   O     0.25491   0.81892   0.27014   0.00000  Uiso   1.00
O529   O     0.13760   0.73610   0.23413   0.00000  Uiso   1.00
O530   O     0.20345   0.92286   0.21361   0.00000  Uiso   1.00
S531   S     0.24589   0.74981   0.08677   0.00000  Uiso   1.00
S532   S     0.20797   0.69709   0.00360   0.00000  Uiso   1.00
S533   S     0.10624   0.93164   0.42057   0.00000  Uiso   1.00
S534   S     0.07740   0.84941   0.07372   0.00000  Uiso   1.00
S535   S     0.02400   0.89645   0.22021   0.00000  Uiso   1.00
Zn536  Zn    0.19338   0.80661   0.28734   0.00000  Uiso   1.00
Zn537  Zn    0.13379   0.79124   0.21876   0.00000  Uiso   1.00
Zn538  Zn    0.21056   0.86442   0.20657   0.00000  Uiso   1.00
Zn539  Zn    0.12893   0.87106   0.28734   0.00000  Uiso   1.00
C540   C     0.38601   0.82563   0.26036   0.00000  Uiso   1.00
C541   C     0.50485   0.82634   0.05731   0.00000  Uiso   1.00
C542   C     0.54407   0.76939   0.06019   0.00000  Uiso   1.00
C543   C     0.61412   0.84172   0.24100   0.00000  Uiso   1.00
C544   C     0.46768   0.85327   0.42234   0.00000  Uiso   1.00
C545   C     0.65932   0.84975   0.24145   0.00000  Uiso   1.00
C546   C     0.34129   0.82276   0.26140   0.00000  Uiso   1.00
C547   C     0.51522   0.98992   0.23685   0.00000  Uiso   1.00
C548   C     0.48556   0.67828   0.26365   0.00000  Uiso   1.00
C549   C     0.48899   0.72251   0.26078   0.00000  Uiso   1.00
C550   C     0.51029   0.94473   0.24017   0.00000  Uiso   1.00
C551   C     0.42921   0.88560   0.49386   0.00000  Uiso   1.00
C552   C     0.51830   0.81507   0.12906   0.00000  Uiso   1.00
C553   C     0.48080   0.85029   0.37166   0.00000  Uiso   1.00
C554   C     0.53553   0.75107   0.01881   0.00000  Uiso   1.00
C555   C     0.52594   0.80546   0.08025   0.00000  Uiso   1.00
C556   C     0.44607   0.88711   0.44682   0.00000  Uiso   1.00
C557   C     0.44200   0.85739   0.01776   0.00000  Uiso   1.00
C558   C     0.47257   0.83073   0.49439   0.00000  Uiso   1.00
C559   C     0.47705   0.82265   0.44753   0.00000  Uiso   1.00
C560   C     0.49666   0.80995   0.01592   0.00000  Uiso   1.00
C561   C     0.51519   0.77377   0.49437   0.00000  Uiso   1.00
C562   C     0.51270   0.76181   0.44926   0.00000  Uiso   1.00
C563   C     0.48913   0.78347   0.42837   0.00000  Uiso   1.00
H564   H     0.65492   0.79414   0.27312   0.00000  Uiso   1.00
H565   H     0.37969   0.91321   0.49851   0.00000  Uiso   1.00
H566   H     0.47365   0.73384   0.39132   0.00000  Uiso   1.00
H567   H     0.33987   0.89495   0.15675   0.00000  Uiso   1.00
H568   H     0.45775   0.99684   0.28711   0.00000  Uiso   1.00
H569   H     0.49430   0.85558   0.07278   0.00000  Uiso   1.00
H570   H     0.61815   0.80928   0.09064   0.00000  Uiso   1.00
H571   H     0.56862   0.99011   0.19013   0.00000  Uiso   1.00
H572   H     0.54131   0.73551   0.39157   0.00000  Uiso   1.00
H573   H     0.47498   0.67843   0.00476   0.00000  Uiso   1.00
H574   H     0.42392   0.99437   0.44023   0.00000  Uiso   1.00
H575   H     0.40302   0.80513   0.12389   0.00000  Uiso   1.00
O576   O     0.50000   0.83333   0.25000   0.00000  Uiso   1.00
O577   O     0.48784   0.79304   0.15459   0.00000  Uiso   1.00
O578   O     0.46274   0.87058   0.34968   0.00000  Uiso   1.00
O579   O     0.54157   0.84425   0.14606   0.00000  Uiso   1.00
O580   O     0.50785   0.82546   0.34968   0.00000  Uiso   1.00
O581   O     0.55343   0.72016   0.12091   0.00000  Uiso   1.00
O582   O     0.61224   0.72764   0.05286   0.00000  Uiso   1.00
O583   O     0.60493   0.78904   0.11374   0.00000  Uiso   1.00
O584   O     0.54954   0.67718   0.20699   0.00000  Uiso   1.00
O585   O     0.53689   0.73206   0.42419   0.00000  Uiso   1.00
O586   O     0.58326   0.69351   0.46974   0.00000  Uiso   1.00
O587   O     0.51264   0.74686   0.28214   0.00000  Uiso   1.00
O588   O     0.53976   0.67359   0.04364   0.00000  Uiso   1.00
O589   O     0.50123   0.67404   0.48093   0.00000  Uiso   1.00
O590   O     0.48103   0.94660   0.38835   0.00000  Uiso   1.00
O591   O     0.40523   0.91961   0.39524   0.00000  Uiso   1.00
O592   O     0.42513   0.97139   0.45844   0.00000  Uiso   1.00
O593   O     0.42477   0.88448   0.10476   0.00000  Uiso   1.00
O594   O     0.36433   0.85024   0.07551   0.00000  Uiso   1.00
O595   O     0.41567   0.80333   0.09090   0.00000  Uiso   1.00
O596   O     0.39965   0.91123   0.01751   0.00000  Uiso   1.00
O597   O     0.47283   0.76433   0.39285   0.00000  Uiso   1.00
O598   O     0.47965   0.92751   0.27014   0.00000  Uiso   1.00
O599   O     0.35796   0.92837   0.25924   0.00000  Uiso   1.00
O600   O     0.40261   0.88901   0.19786   0.00000  Uiso   1.00
O601   O     0.33647   0.91564   0.18308   0.00000  Uiso   1.00
O602   O     0.40745   0.79958   0.23413   0.00000  Uiso   1.00
O603   O     0.60026   0.85939   0.21361   0.00000  Uiso   1.00
O604   O     0.40405   0.85544   0.28213   0.00000  Uiso   1.00
O605   O     0.58824   0.81892   0.27014   0.00000  Uiso   1.00
O606   O     0.47093   0.73610   0.23413   0.00000  Uiso   1.00
O607   O     0.53678   0.92286   0.21361   0.00000  Uiso   1.00
S608   S     0.57923   0.74981   0.08677   0.00000  Uiso   1.00
S609   S     0.54130   0.69709   0.00360   0.00000  Uiso   1.00
S610   S     0.43957   0.93164   0.42057   0.00000  Uiso   1.00
S611   S     0.41073   0.84941   0.07372   0.00000  Uiso   1.00
S612   S     0.35734   0.89645   0.22021   0.00000  Uiso   1.00
Zn613  Zn    0.52672   0.80661   0.28734   0.00000  Uiso   1.00
Zn614  Zn    0.46713   0.79124   0.21876   0.00000  Uiso   1.00
Zn615  Zn    0.54389   0.86442   0.20657   0.00000  Uiso   1.00
Zn616  Zn    0.46226   0.87106   0.28734   0.00000  Uiso   1.00
C617   C     0.71935   0.82563   0.26036   0.00000  Uiso   1.00
C618   C     0.83818   0.82634   0.05731   0.00000  Uiso   1.00
C619   C     0.87740   0.76939   0.06019   0.00000  Uiso   1.00
C620   C     0.94745   0.84172   0.24100   0.00000  Uiso   1.00
C621   C     0.80101   0.85327   0.42234   0.00000  Uiso   1.00
C622   C     0.99265   0.84975   0.24145   0.00000  Uiso   1.00
C623   C     0.67462   0.82276   0.26140   0.00000  Uiso   1.00
C624   C     0.84856   0.98992   0.23685   0.00000  Uiso   1.00
C625   C     0.81890   0.67828   0.26365   0.00000  Uiso   1.00
C626   C     0.82232   0.72251   0.26078   0.00000  Uiso   1.00
C627   C     0.84363   0.94473   0.24017   0.00000  Uiso   1.00
C628   C     0.76254   0.88560   0.49386   0.00000  Uiso   1.00
C629   C     0.85163   0.81507   0.12906   0.00000  Uiso   1.00
C630   C     0.81413   0.85029   0.37166   0.00000  Uiso   1.00
C631   C     0.86887   0.75107   0.01881   0.00000  Uiso   1.00
C632   C     0.85927   0.80546   0.08025   0.00000  Uiso   1.00
C633   C     0.77940   0.88711   0.44682   0.00000  Uiso   1.00
C634   C     0.77533   0.85739   0.01776   0.00000  Uiso   1.00
C635   C     0.80591   0.83073   0.49439   0.00000  Uiso   1.00
C636   C     0.81039   0.82265   0.44753   0.00000  Uiso   1.00
C637   C     0.82999   0.80995   0.01592   0.00000  Uiso   1.00
C638   C     0.84852   0.77377   0.49437   0.00000  Uiso   1.00
C639   C     0.84603   0.76181   0.44926   0.00000  Uiso   1.00
C640   C     0.82247   0.78347   0.42837   0.00000  Uiso   1.00
H641   H     0.98825   0.79414   0.27312   0.00000  Uiso   1.00
H642   H     0.71303   0.91321   0.49851   0.00000  Uiso   1.00
H643   H     0.80699   0.73384   0.39132   0.00000  Uiso   1.00
H644   H     0.67321   0.89495   0.15675   0.00000  Uiso   1.00
H645   H     0.79108   0.99684   0.28711   0.00000  Uiso   1.00
H646   H     0.82763   0.85558   0.07278   0.00000  Uiso   1.00
H647   H     0.95149   0.80928   0.09064   0.00000  Uiso   1.00
H648   H     0.90195   0.99011   0.19013   0.00000  Uiso   1.00
H649   H     0.87464   0.73551   0.39157   0.00000  Uiso   1.00
H650   H     0.80831   0.67843   0.00476   0.00000  Uiso   1.00
H651   H     0.75725   0.99437   0.44023   0.00000  Uiso   1.00
H652   H     0.73635   0.80513   0.12389   0.00000  Uiso   1.00
O653   O     0.83333   0.83333   0.25000   0.00000  Uiso   1.00
O654   O     0.82118   0.79304   0.15459   0.00000  Uiso   1.00
O655   O     0.79607   0.87058   0.34968   0.00000  Uiso   1.00
O656   O     0.87491   0.84425   0.14606   0.00000  Uiso   1.00
O657   O     0.84118   0.82546   0.34968   0.00000  Uiso   1.00
O658   O     0.88677   0.72016   0.12091   0.00000  Uiso   1.00
O659   O     0.94557   0.72764   0.05286   0.00000  Uiso   1.00
O660   O     0.93827   0.78904   0.11374   0.00000  Uiso   1.00
O661   O     0.88287   0.67718   0.20699   0.00000  Uiso   1.00
O662   O     0.87022   0.73206   0.42419   0.00000  Uiso   1.00
O663   O     0.91660   0.69351   0.46974   0.00000  Uiso   1.00
O664   O     0.84597   0.74686   0.28214   0.00000  Uiso   1.00
O665   O     0.87310   0.67359   0.04364   0.00000  Uiso   1.00
O666   O     0.83456   0.67404   0.48093   0.00000  Uiso   1.00
O667   O     0.81436   0.94660   0.38835   0.00000  Uiso   1.00
O668   O     0.73857   0.91961   0.39524   0.00000  Uiso   1.00
O669   O     0.75846   0.97139   0.45844   0.00000  Uiso   1.00
O670   O     0.75810   0.88448   0.10476   0.00000  Uiso   1.00
O671   O     0.69766   0.85024   0.07551   0.00000  Uiso   1.00
O672   O     0.74900   0.80333   0.09090   0.00000  Uiso   1.00
O673   O     0.73298   0.91123   0.01751   0.00000  Uiso   1.00
O674   O     0.80617   0.76433   0.39285   0.00000  Uiso   1.00
O675   O     0.81298   0.92751   0.27014   0.00000  Uiso   1.00
O676   O     0.69129   0.92837   0.25924   0.00000  Uiso   1.00
O677   O     0.73594   0.88901   0.19786   0.00000  Uiso   1.00
O678   O     0.66980   0.91564   0.18308   0.00000  Uiso   1.00
O679   O     0.74078   0.79958   0.23413   0.00000  Uiso   1.00
O680   O     0.93360   0.85939   0.21361   0.00000  Uiso   1.00
O681   O     0.73738   0.85544   0.28213   0.00000  Uiso   1.00
O682   O     0.92158   0.81892   0.27014   0.00000  Uiso   1.00
O683   O     0.80426   0.73610   0.23413   0.00000  Uiso   1.00
O684   O     0.87012   0.92286   0.21361   0.00000  Uiso   1.00
S685   S     0.91256   0.74981   0.08677   0.00000  Uiso   1.00
S686   S     0.87463   0.69709   0.00360   0.00000  Uiso   1.00
S687   S     0.77290   0.93164   0.42057   0.00000  Uiso   1.00
S688   S     0.74407   0.84941   0.07372   0.00000  Uiso   1.00
S689   S     0.69067   0.89645   0.22021   0.00000  Uiso   1.00
Zn690  Zn    0.86005   0.80661   0.28734   0.00000  Uiso   1.00
Zn691  Zn    0.80046   0.79124   0.21876   0.00000  Uiso   1.00
Zn692  Zn    0.87723   0.86442   0.20657   0.00000  Uiso   1.00
Zn693  Zn    0.79560   0.87106   0.28734   0.00000  Uiso   1.00
C694   C     0.05268   0.15897   0.76036   0.00000  Uiso   1.00
C695   C     0.17151   0.15968   0.55731   0.00000  Uiso   1.00
C696   C     0.21073   0.10272   0.56019   0.00000  Uiso   1.00
C697   C     0.28078   0.17506   0.74100   0.00000  Uiso   1.00
C698   C     0.13435   0.18660   0.92234   0.00000  Uiso   1.00
C699   C     0.32598   0.18309   0.74145   0.00000  Uiso   1.00
C700   C     0.00795   0.15609   0.76140   0.00000  Uiso   1.00
C701   C     0.18189   0.32325   0.73685   0.00000  Uiso   1.00
C702   C     0.15223   0.01161   0.76365   0.00000  Uiso   1.00
C703   C     0.15566   0.05585   0.76078   0.00000  Uiso   1.00
C704   C     0.17696   0.27807   0.74017   0.00000  Uiso   1.00
C705   C     0.09588   0.21893   0.99386   0.00000  Uiso   1.00
C706   C     0.18496   0.14841   0.62906   0.00000  Uiso   1.00
C707   C     0.14747   0.18363   0.87166   0.00000  Uiso   1.00
C708   C     0.20220   0.08441   0.51881   0.00000  Uiso   1.00
C709   C     0.19260   0.13880   0.58025   0.00000  Uiso   1.00
C710   C     0.11274   0.22044   0.94682   0.00000  Uiso   1.00
C711   C     0.10867   0.19072   0.51776   0.00000  Uiso   1.00
C712   C     0.13924   0.16406   0.99439   0.00000  Uiso   1.00
C713   C     0.14372   0.15598   0.94753   0.00000  Uiso   1.00
C714   C     0.16332   0.14328   0.51592   0.00000  Uiso   1.00
C715   C     0.18186   0.10710   0.99437   0.00000  Uiso   1.00
C716   C     0.17936   0.09514   0.94926   0.00000  Uiso   1.00
C717   C     0.15580   0.11680   0.92837   0.00000  Uiso   1.00
H718   H     0.32158   0.12747   0.77312   0.00000  Uiso   1.00
H719   H     0.04636   0.24655   0.99851   0.00000  Uiso   1.00
H720   H     0.14032   0.06717   0.89132   0.00000  Uiso   1.00
H721   H     0.00654   0.22828   0.65675   0.00000  Uiso   1.00
H722   H     0.12442   0.33018   0.78711   0.00000  Uiso   1.00
H723   H     0.16096   0.18891   0.57278   0.00000  Uiso   1.00
H724   H     0.28482   0.14261   0.59064   0.00000  Uiso   1.00
H725   H     0.23528   0.32344   0.69013   0.00000  Uiso   1.00
H726   H     0.20797   0.06884   0.89157   0.00000  Uiso   1.00
H727   H     0.14165   0.01176   0.50476   0.00000  Uiso   1.00
H728   H     0.09059   0.32771   0.94023   0.00000  Uiso   1.00
H729   H     0.06969   0.13846   0.62389   0.00000  Uiso   1.00
O730   O     0.16667   0.16667   0.75000   0.00000  Uiso   1.00
O731   O     0.15451   0.12637   0.65459   0.00000  Uiso   1.00
O732   O     0.12940   0.20391   0.84968   0.00000  Uiso   1.00
O733   O     0.20824   0.17759   0.64606   0.00000  Uiso   1.00
O734   O     0.17451   0.15880   0.84968   0.00000  Uiso   1.00
O735   O     0.22010   0.05349   0.62091   0.00000  Uiso   1.00
O736   O     0.27891   0.06098   0.55286   0.00000  Uiso   1.00
O737   O     0.27160   0.12237   0.61374   0.00000  Uiso   1.00
O738   O     0.21621   0.01052   0.70699   0.00000  Uiso   1.00
O739   O     0.20355   0.06539   0.92419   0.00000  Uiso   1.00
O740   O     0.24993   0.02684   0.96974   0.00000  Uiso   1.00
O741   O     0.17930   0.08019   0.78214   0.00000  Uiso   1.00
O742   O     0.20643   0.00692   0.54364   0.00000  Uiso   1.00
O743   O     0.16789   0.00737   0.98093   0.00000  Uiso   1.00
O744   O     0.14769   0.27994   0.88835   0.00000  Uiso   1.00
O745   O     0.07190   0.25294   0.89524   0.00000  Uiso   1.00
O746   O     0.09180   0.30472   0.95844   0.00000  Uiso   1.00
O747   O     0.09143   0.21781   0.60476   0.00000  Uiso   1.00
O748   O     0.03100   0.18357   0.57551   0.00000  Uiso   1.00
O749   O     0.08234   0.13667   0.59090   0.00000  Uiso   1.00
O750   O     0.06632   0.24456   0.51751   0.00000  Uiso   1.00
O751   O     0.13950   0.09767   0.89285   0.00000  Uiso   1.00
O752   O     0.14632   0.26085   0.77014   0.00000  Uiso   1.00
O753   O     0.02463   0.26171   0.75924   0.00000  Uiso   1.00
O754   O     0.06928   0.22235   0.69786   0.00000  Uiso   1.00
O755   O     0.00313   0.24898   0.68308   0.00000  Uiso   1.00
O756   O     0.07412   0.13291   0.73413   0.00000  Uiso   1.00
O757   O     0.26693   0.19272   0.71361   0.00000  Uiso   1.00
O758   O     0.07071   0.18878   0.78213   0.00000  Uiso   1.00
O759   O     0.25491   0.15226   0.77014   0.00000  Uiso   1.00
O760   O     0.13760   0.06944   0.73413   0.00000  Uiso   1.00
O761   O     0.20345   0.25620   0.71361   0.00000  Uiso   1.00
S762   S     0.24589   0.08314   0.58677   0.00000  Uiso   1.00
S763   S     0.20797   0.03042   0.50360   0.00000  Uiso   1.00
S764   S     0.10624   0.26498   0.92057   0.00000  Uiso   1.00
S765   S     0.07740   0.18275   0.57372   0.00000  Uiso   1.00
S766   S     0.02400   0.22979   0.72021   0.00000  Uiso   1.00
Zn767  Zn    0.19338   0.13994   0.78734   0.00000  Uiso   1.00
Zn768  Zn    0.13379   0.12458   0.71876   0.00000  Uiso   1.00
Zn769  Zn    0.21056   0.19775   0.70657   0.00000  Uiso   1.00
Zn770  Zn    0.12893   0.20439   0.78734   0.00000  Uiso   1.00
C771   C     0.38601   0.15897   0.76036   0.00000  Uiso   1.00
C772   C     0.50485   0.15968   0.55731   0.00000  Uiso   1.00
C773   C     0.54407   0.10272   0.56019   0.00000  Uiso   1.00
C774   C     0.61412   0.17506   0.74100   0.00000  Uiso   1.00
C775   C     0.46768   0.18660   0.92234   0.00000  Uiso   1.00
C776   C     0.65932   0.18309   0.74145   0.00000  Uiso   1.00
C777   C     0.34129   0.15609   0.76140   0.00000  Uiso   1.00
C778   C     0.51522   0.32325   0.73685   0.00000  Uiso   1.00
C779   C     0.48556   0.01161   0.76365   0.00000  Uiso   1.00
C780   C     0.48899   0.05585   0.76078   0.00000  Uiso   1.00
C781   C     0.51029   0.27807   0.74017   0.00000  Uiso   1.00
C782   C     0.42921   0.21893   0.99386   0.00000  Uiso   1.00
C783   C     0.51830   0.14841   0.62906   0.00000  Uiso   1.00
C784   C     0.48080   0.18363   0.87166   0.00000  Uiso   1.00
C785   C     0.53553   0.08441   0.51881   0.00000  Uiso   1.00
C786   C     0.52594   0.13880   0.58025   0.00000  Uiso   1.00
C787   C     0.44607   0.22044   0.94682   0.00000  Uiso   1.00
C788   C     0.44200   0.19072   0.51776   0.00000  Uiso   1.00
C789   C     0.47257   0.16406   0.99439   0.00000  Uiso   1.00
C790   C     0.47705   0.15598   0.94753   0.00000  Uiso   1.00
C791   C     0.49666   0.14328   0.51592   0.00000  Uiso   1.00
C792   C     0.51519   0.10710   0.99437   0.00000  Uiso   1.00
C793   C     0.51270   0.09514   0.94926   0.00000  Uiso   1.00
C794   C     0.48913   0.11680   0.92837   0.00000  Uiso   1.00
H795   H     0.65492   0.12747   0.77312   0.00000  Uiso   1.00
H796   H     0.37969   0.24655   0.99851   0.00000  Uiso   1.00
H797   H     0.47365   0.06717   0.89132   0.00000  Uiso   1.00
H798   H     0.33987   0.22828   0.65675   0.00000  Uiso   1.00
H799   H     0.45775   0.33018   0.78711   0.00000  Uiso   1.00
H800   H     0.49430   0.18891   0.57278   0.00000  Uiso   1.00
H801   H     0.61815   0.14261   0.59064   0.00000  Uiso   1.00
H802   H     0.56862   0.32344   0.69013   0.00000  Uiso   1.00
H803   H     0.54131   0.06884   0.89157   0.00000  Uiso   1.00
H804   H     0.47498   0.01176   0.50476   0.00000  Uiso   1.00
H805   H     0.42392   0.32771   0.94023   0.00000  Uiso   1.00
H806   H     0.40302   0.13846   0.62389   0.00000  Uiso   1.00
O807   O     0.50000   0.16667   0.75000   0.00000  Uiso   1.00
O808   O     0.48784   0.12637   0.65459   0.00000  Uiso   1.00
O809   O     0.46274   0.20391   0.84968   0.00000  Uiso   1.00
O810   O     0.54157   0.17759   0.64606   0.00000  Uiso   1.00
O811   O     0.50785   0.15880   0.84968   0.00000  Uiso   1.00
O812   O     0.55343   0.05349   0.62091   0.00000  Uiso   1.00
O813   O     0.61224   0.06098   0.55286   0.00000  Uiso   1.00
O814   O     0.60493   0.12237   0.61374   0.00000  Uiso   1.00
O815   O     0.54954   0.01052   0.70699   0.00000  Uiso   1.00
O816   O     0.53689   0.06539   0.92419   0.00000  Uiso   1.00
O817   O     0.58326   0.02684   0.96974   0.00000  Uiso   1.00
O818   O     0.51264   0.08019   0.78214   0.00000  Uiso   1.00
O819   O     0.53976   0.00692   0.54364   0.00000  Uiso   1.00
O820   O     0.50123   0.00737   0.98093   0.00000  Uiso   1.00
O821   O     0.48103   0.27994   0.88835   0.00000  Uiso   1.00
O822   O     0.40523   0.25294   0.89524   0.00000  Uiso   1.00
O823   O     0.42513   0.30472   0.95844   0.00000  Uiso   1.00
O824   O     0.42477   0.21781   0.60476   0.00000  Uiso   1.00
O825   O     0.36433   0.18357   0.57551   0.00000  Uiso   1.00
O826   O     0.41567   0.13667   0.59090   0.00000  Uiso   1.00
O827   O     0.39965   0.24456   0.51751   0.00000  Uiso   1.00
O828   O     0.47283   0.09767   0.89285   0.00000  Uiso   1.00
O829   O     0.47965   0.26085   0.77014   0.00000  Uiso   1.00
O830   O     0.35796   0.26171   0.75924   0.00000  Uiso   1.00
O831   O     0.40261   0.22235   0.69786   0.00000  Uiso   1.00
O832   O     0.33647   0.24898   0.68308   0.00000  Uiso   1.00
O833   O     0.40745   0.13291   0.73413   0.00000  Uiso   1.00
O834   O     0.60026   0.19272   0.71361   0.00000  Uiso   1.00
O835   O     0.40405   0.18878   0.78213   0.00000  Uiso   1.00
O836   O     0.58824   0.15226   0.77014   0.00000  Uiso   1.00
O837   O     0.47093   0.06944   0.73413   0.00000  Uiso   1.00
O838   O     0.53678   0.25620   0.71361   0.00000  Uiso   1.00
S839   S     0.57923   0.08314   0.58677   0.00000  Uiso   1.00
S840   S     0.54130   0.03042   0.50360   0.00000  Uiso   1.00
S841   S     0.43957   0.26498   0.92057   0.00000  Uiso   1.00
S842   S     0.41073   0.18275   0.57372   0.00000  Uiso   1.00
S843   S     0.35734   0.22979   0.72021   0.00000  Uiso   1.00
Zn844  Zn    0.52672   0.13994   0.78734   0.00000  Uiso   1.00
Zn845  Zn    0.46713   0.12458   0.71876   0.00000  Uiso   1.00
Zn846  Zn    0.54389   0.19775   0.70657   0.00000  Uiso   1.00
Zn847  Zn    0.46226   0.20439   0.78734   0.00000  Uiso   1.00
C848   C     0.71935   0.15897   0.76036   0.00000  Uiso   1.00
C849   C     0.83818   0.15968   0.55731   0.00000  Uiso   1.00
C850   C     0.87740   0.10272   0.56019   0.00000  Uiso   1.00
C851   C     0.94745   0.17506   0.74100   0.00000  Uiso   1.00
C852   C     0.80101   0.18660   0.92234   0.00000  Uiso   1.00
C853   C     0.99265   0.18309   0.74145   0.00000  Uiso   1.00
C854   C     0.67462   0.15609   0.76140   0.00000  Uiso   1.00
C855   C     0.84856   0.32325   0.73685   0.00000  Uiso   1.00
C856   C     0.81890   0.01161   0.76365   0.00000  Uiso   1.00
C857   C     0.82232   0.05585   0.76078   0.00000  Uiso   1.00
C858   C     0.84363   0.27807   0.74017   0.00000  Uiso   1.00
C859   C     0.76254   0.21893   0.99386   0.00000  Uiso   1.00
C860   C     0.85163   0.14841   0.62906   0.00000  Uiso   1.00
C861   C     0.81413   0.18363   0.87166   0.00000  Uiso   1.00
C862   C     0.86887   0.08441   0.51881   0.00000  Uiso   1.00
C863   C     0.85927   0.13880   0.58025   0.00000  Uiso   1.00
C864   C     0.77940   0.22044   0.94682   0.00000  Uiso   1.00
C865   C     0.77533   0.19072   0.51776   0.00000  Uiso   1.00
C866   C     0.80591   0.16406   0.99439   0.00000  Uiso   1.00
C867   C     0.81039   0.15598   0.94753   0.00000  Uiso   1.00
C868   C     0.82999   0.14328   0.51592   0.00000  Uiso   1.00
C869   C     0.84852   0.10710   0.99437   0.00000  Uiso   1.00
C870   C     0.84603   0.09514   0.94926   0.00000  Uiso   1.00
C871   C     0.82247   0.11680   0.92837   0.00000  Uiso   1.00
H872   H     0.98825   0.12747   0.77312   0.00000  Uiso   1.00
H873   H     0.71303   0.24655   0.99851   0.00000  Uiso   1.00
H874   H     0.80699   0.06717   0.89132   0.00000  Uiso   1.00
H875   H     0.67321   0.22828   0.65675   0.00000  Uiso   1.00
H876   H     0.79108   0.33018   0.78711   0.00000  Uiso   1.00
H877   H     0.82763   0.18891   0.57278   0.00000  Uiso   1.00
H878   H     0.95149   0.14261   0.59064   0.00000  Uiso   1.00
H879   H     0.90195   0.32344   0.69013   0.00000  Uiso   1.00
H880   H     0.87464   0.06884   0.89157   0.00000  Uiso   1.00
H881   H     0.80831   0.01176   0.50476   0.00000  Uiso   1.00
H882   H     0.75725   0.32771   0.94023   0.00000  Uiso   1.00
H883   H     0.73635   0.13846   0.62389   0.00000  Uiso   1.00
O884   O     0.83333   0.16667   0.75000   0.00000  Uiso   1.00
O885   O     0.82118   0.12637   0.65459   0.00000  Uiso   1.00
O886   O     0.79607   0.20391   0.84968   0.00000  Uiso   1.00
O887   O     0.87491   0.17759   0.64606   0.00000  Uiso   1.00
O888   O     0.84118   0.15880   0.84968   0.00000  Uiso   1.00
O889   O     0.88677   0.05349   0.62091   0.00000  Uiso   1.00
O890   O     0.94557   0.06098   0.55286   0.00000  Uiso   1.00
O891   O     0.93827   0.12237   0.61374   0.00000  Uiso   1.00
O892   O     0.88287   0.01052   0.70699   0.00000  Uiso   1.00
O893   O     0.87022   0.06539   0.92419   0.00000  Uiso   1.00
O894   O     0.91660   0.02684   0.96974   0.00000  Uiso   1.00
O895   O     0.84597   0.08019   0.78214   0.00000  Uiso   1.00
O896   O     0.87310   0.00692   0.54364   0.00000  Uiso   1.00
O897   O     0.83456   0.00737   0.98093   0.00000  Uiso   1.00
O898   O     0.81436   0.27994   0.88835   0.00000  Uiso   1.00
O899   O     0.73857   0.25294   0.89524   0.00000  Uiso   1.00
O900   O     0.75846   0.30472   0.95844   0.00000  Uiso   1.00
O901   O     0.75810   0.21781   0.60476   0.00000  Uiso   1.00
O902   O     0.69766   0.18357   0.57551   0.00000  Uiso   1.00
O903   O     0.74900   0.13667   0.59090   0.00000  Uiso   1.00
O904   O     0.73298   0.24456   0.51751   0.00000  Uiso   1.00
O905   O     0.80617   0.09767   0.89285   0.00000  Uiso   1.00
O906   O     0.81298   0.26085   0.77014   0.00000  Uiso   1.00
O907   O     0.69129   0.26171   0.75924   0.00000  Uiso   1.00
O908   O     0.73594   0.22235   0.69786   0.00000  Uiso   1.00
O909   O     0.66980   0.24898   0.68308   0.00000  Uiso   1.00
O910   O     0.74078   0.13291   0.73413   0.00000  Uiso   1.00
O911   O     0.93360   0.19272   0.71361   0.00000  Uiso   1.00
O912   O     0.73738   0.18878   0.78213   0.00000  Uiso   1.00
O913   O     0.92158   0.15226   0.77014   0.00000  Uiso   1.00
O914   O     0.80426   0.06944   0.73413   0.00000  Uiso   1.00
O915   O     0.87012   0.25620   0.71361   0.00000  Uiso   1.00
S916   S     0.91256   0.08314   0.58677   0.00000  Uiso   1.00
S917   S     0.87463   0.03042   0.50360   0.00000  Uiso   1.00
S918   S     0.77290   0.26498   0.92057   0.00000  Uiso   1.00
S919   S     0.74407   0.18275   0.57372   0.00000  Uiso   1.00
S920   S     0.69067   0.22979   0.72021   0.00000  Uiso   1.00
Zn921  Zn    0.86005   0.13994   0.78734   0.00000  Uiso   1.00
Zn922  Zn    0.80046   0.12458   0.71876   0.00000  Uiso   1.00
Zn923  Zn    0.87723   0.19775   0.70657   0.00000  Uiso   1.00
Zn924  Zn    0.79560   0.20439   0.78734   0.00000  Uiso   1.00
C925   C     0.05268   0.49230   0.76036   0.00000  Uiso   1.00
C926   C     0.17151   0.49301   0.55731   0.00000  Uiso   1.00
C927   C     0.21073   0.43605   0.56019   0.00000  Uiso   1.00
C928   C     0.28078   0.50839   0.74100   0.00000  Uiso   1.00
C929   C     0.13435   0.51994   0.92234   0.00000  Uiso   1.00
C930   C     0.32598   0.51642   0.74145   0.00000  Uiso   1.00
C931   C     0.00795   0.48942   0.76140   0.00000  Uiso   1.00
C932   C     0.18189   0.65658   0.73685   0.00000  Uiso   1.00
C933   C     0.15223   0.34494   0.76365   0.00000  Uiso   1.00
C934   C     0.15566   0.38918   0.76078   0.00000  Uiso   1.00
C935   C     0.17696   0.61140   0.74017   0.00000  Uiso   1.00
C936   C     0.09588   0.55226   0.99386   0.00000  Uiso   1.00
C937   C     0.18496   0.48174   0.62906   0.00000  Uiso   1.00
C938   C     0.14747   0.51696   0.87166   0.00000  Uiso   1.00
C939   C     0.20220   0.41774   0.51881   0.00000  Uiso   1.00
C940   C     0.19260   0.47213   0.58025   0.00000  Uiso   1.00
C941   C     0.11274   0.55378   0.94682   0.00000  Uiso   1.00
C942   C     0.10867   0.52405   0.51776   0.00000  Uiso   1.00
C943   C     0.13924   0.49740   0.99439   0.00000  Uiso   1.00
C944   C     0.14372   0.48931   0.94753   0.00000  Uiso   1.00
C945   C     0.16332   0.47662   0.51592   0.00000  Uiso   1.00
C946   C     0.18186   0.44044   0.99437   0.00000  Uiso   1.00
C947   C     0.17936   0.42847   0.94926   0.00000  Uiso   1.00
C948   C     0.15580   0.45013   0.92837   0.00000  Uiso   1.00
H949   H     0.32158   0.46080   0.77312   0.00000  Uiso   1.00
H950   H     0.04636   0.57988   0.99851   0.00000  Uiso   1.00
H951   H     0.14032   0.40051   0.89132   0.00000  Uiso   1.00
H952   H     0.00654   0.56161   0.65675   0.00000  Uiso   1.00
H953   H     0.12442   0.66351   0.78711   0.00000  Uiso   1.00
H954   H     0.16096   0.52224   0.57278   0.00000  Uiso   1.00
H955   H     0.28482   0.47595   0.59064   0.00000  Uiso   1.00
H956   H     0.23528   0.65677   0.69013   0.00000  Uiso   1.00
H957   H     0.20797   0.40218   0.89157   0.00000  Uiso   1.00
H958   H     0.14165   0.34510   0.50476   0.00000  Uiso   1.00
H959   H     0.09059   0.66104   0.94023   0.00000  Uiso   1.00
H960   H     0.06969   0.47179   0.62389   0.00000  Uiso   1.00
O961   O     0.16667   0.50000   0.75000   0.00000  Uiso   1.00
O962   O     0.15451   0.45970   0.65459   0.00000  Uiso   1.00
O963   O     0.12940   0.53724   0.84968   0.00000  Uiso   1.00
O964   O     0.20824   0.51092   0.64606   0.00000  Uiso   1.00
O965   O     0.17451   0.49213   0.84968   0.00000  Uiso   1.00
O966   O     0.22010   0.38683   0.62091   0.00000  Uiso   1.00
O967   O     0.27891   0.39431   0.55286   0.00000  Uiso   1.00
O968   O     0.27160   0.45570   0.61374   0.00000  Uiso   1.00
O969   O     0.21621   0.34385   0.70699   0.00000  Uiso   1.00
O970   O     0.20355   0.39872   0.92419   0.00000  Uiso   1.00
O971   O     0.24993   0.36017   0.96974   0.00000  Uiso   1.00
O972   O     0.17930   0.41352   0.78214   0.00000  Uiso   1.00
O973   O     0.20643   0.34026   0.54364   0.00000  Uiso   1.00
O974   O     0.16789   0.34071   0.98093   0.00000  Uiso   1.00
O975   O     0.14769   0.61327   0.88835   0.00000  Uiso   1.00
O976   O     0.07190   0.58628   0.89524   0.00000  Uiso   1.00
O977   O     0.09180   0.63805   0.95844   0.00000  Uiso   1.00
O978   O     0.09143   0.55115   0.60476   0.00000  Uiso   1.00
O979   O     0.03100   0.51690   0.57551   0.00000  Uiso   1.00
O980   O     0.08234   0.47000   0.59090   0.00000  Uiso   1.00
O981   O     0.06632   0.57790   0.51751   0.00000  Uiso   1.00
O982   O     0.13950   0.43100   0.89285   0.00000  Uiso   1.00
O983   O     0.14632   0.59418   0.77014   0.00000  Uiso   1.00
O984   O     0.02463   0.59504   0.75924   0.00000  Uiso   1.00
O985   O     0.06928   0.55568   0.69786   0.00000  Uiso   1.00
O986   O     0.00313   0.58231   0.68308   0.00000  Uiso   1.00
O987   O     0.07412   0.46625   0.73413   0.00000  Uiso   1.00
O988   O     0.26693   0.52605   0.71361   0.00000  Uiso   1.00
O989   O     0.07071   0.52211   0.78213   0.00000  Uiso   1.00
O990   O     0.25491   0.48559   0.77014   0.00000  Uiso   1.00
O991   O     0.13760   0.40277   0.73413   0.00000  Uiso   1.00
O992   O     0.20345   0.58953   0.71361   0.00000  Uiso   1.00
S993   S     0.24589   0.41648   0.58677   0.00000  Uiso   1.00
S994   S     0.20797   0.36375   0.50360   0.00000  Uiso   1.00
S995   S     0.10624   0.59831   0.92057   0.00000  Uiso   1.00
S996   S     0.07740   0.51608   0.57372   0.00000  Uiso   1.00
S997   S     0.02400   0.56312   0.72021   0.00000  Uiso   1.00
Zn998  Zn    0.19338   0.47327   0.78734   0.00000  Uiso   1.00
Zn999  Zn    0.13379   0.45791   0.71876   0.00000  Uiso   1.00
Zn1000 Zn    0.21056   0.53109   0.70657   0.00000  Uiso   1.00
Zn1001 Zn    0.12893   0.53773   0.78734   0.00000  Uiso   1.00
C1002  C     0.38601   0.49230   0.76036   0.00000  Uiso   1.00
C1003  C     0.50485   0.49301   0.55731   0.00000  Uiso   1.00
C1004  C     0.54407   0.43605   0.56019   0.00000  Uiso   1.00
C1005  C     0.61412   0.50839   0.74100   0.00000  Uiso   1.00
C1006  C     0.46768   0.51994   0.92234   0.00000  Uiso   1.00
C1007  C     0.65932   0.51642   0.74145   0.00000  Uiso   1.00
C1008  C     0.34129   0.48942   0.76140   0.00000  Uiso   1.00
C1009  C     0.51522   0.65658   0.73685   0.00000  Uiso   1.00
C1010  C     0.48556   0.34494   0.76365   0.00000  Uiso   1.00
C1011  C     0.48899   0.38918   0.76078   0.00000  Uiso   1.00
C1012  C     0.51029   0.61140   0.74017   0.00000  Uiso   1.00
C1013  C     0.42921   0.55226   0.99386   0.00000  Uiso   1.00
C1014  C     0.51830   0.48174   0.62906   0.00000  Uiso   1.00
C1015  C     0.48080   0.51696   0.87166   0.00000  Uiso   1.00
C1016  C     0.53553   0.41774   0.51881   0.00000  Uiso   1.00
C1017  C     0.52594   0.47213   0.58025   0.00000  Uiso   1.00
C1018  C     0.44607   0.55378   0.94682   0.00000  Uiso   1.00
C1019  C     0.44200   0.52405   0.51776   0.00000  Uiso   1.00
C1020  C     0.47257   0.49740   0.99439   0.00000  Uiso   1.00
C1021  C     0.47705   0.48931   0.94753   0.00000  Uiso   1.00
C1022  C     0.49666   0.47662   0.51592   0.00000  Uiso   1.00
C1023  C     0.51519   0.44044   0.99437   0.00000  Uiso   1.00
C1024  C     0.51270   0.42847   0.94926   0.00000  Uiso   1.00
C1025  C     0.48913   0.45013   0.92837   0.00000  Uiso   1.00
H1026  H     0.65492   0.46080   0.77312   0.00000  Uiso   1.00
H1027  H     0.37969   0.57988   0.99851   0.00000  Uiso   1.00
H1028  H     0.47365   0.40051   0.89132   0.00000  Uiso   1.00
H1029  H     0.33987   0.56161   0.65675   0.00000  Uiso   1.00
H1030  H     0.45775   0.66351   0.78711   0.00000  Uiso   1.00
H1031  H     0.49430   0.52224   0.57278   0.00000  Uiso   1.00
H1032  H     0.61815   0.47595   0.59064   0.00000  Uiso   1.00
H1033  H     0.56862   0.65677   0.69013   0.00000  Uiso   1.00
H1034  H     0.54131   0.40218   0.89157   0.00000  Uiso   1.00
H1035  H     0.47498   0.34510   0.50476   0.00000  Uiso   1.00
H1036  H     0.42392   0.66104   0.94023   0.00000  Uiso   1.00
H1037  H     0.40302   0.47179   0.62389   0.00000  Uiso   1.00
O1038  O     0.50000   0.50000   0.75000   0.00000  Uiso   1.00
O1039  O     0.48784   0.45970   0.65459   0.00000  Uiso   1.00
O1040  O     0.46274   0.53724   0.84968   0.00000  Uiso   1.00
O1041  O     0.54157   0.51092   0.64606   0.00000  Uiso   1.00
O1042  O     0.50785   0.49213   0.84968   0.00000  Uiso   1.00
O1043  O     0.55343   0.38683   0.62091   0.00000  Uiso   1.00
O1044  O     0.61224   0.39431   0.55286   0.00000  Uiso   1.00
O1045  O     0.60493   0.45570   0.61374   0.00000  Uiso   1.00
O1046  O     0.54954   0.34385   0.70699   0.00000  Uiso   1.00
O1047  O     0.53689   0.39872   0.92419   0.00000  Uiso   1.00
O1048  O     0.58326   0.36017   0.96974   0.00000  Uiso   1.00
O1049  O     0.51264   0.41352   0.78214   0.00000  Uiso   1.00
O1050  O     0.53976   0.34026   0.54364   0.00000  Uiso   1.00
O1051  O     0.50123   0.34071   0.98093   0.00000  Uiso   1.00
O1052  O     0.48103   0.61327   0.88835   0.00000  Uiso   1.00
O1053  O     0.40523   0.58628   0.89524   0.00000  Uiso   1.00
O1054  O     0.42513   0.63805   0.95844   0.00000  Uiso   1.00
O1055  O     0.42477   0.55115   0.60476   0.00000  Uiso   1.00
O1056  O     0.36433   0.51690   0.57551   0.00000  Uiso   1.00
O1057  O     0.41567   0.47000   0.59090   0.00000  Uiso   1.00
O1058  O     0.39965   0.57790   0.51751   0.00000  Uiso   1.00
O1059  O     0.47283   0.43100   0.89285   0.00000  Uiso   1.00
O1060  O     0.47965   0.59418   0.77014   0.00000  Uiso   1.00
O1061  O     0.35796   0.59504   0.75924   0.00000  Uiso   1.00
O1062  O     0.40261   0.55568   0.69786   0.00000  Uiso   1.00
O1063  O     0.33647   0.58231   0.68308   0.00000  Uiso   1.00
O1064  O     0.40745   0.46625   0.73413   0.00000  Uiso   1.00
O1065  O     0.60026   0.52605   0.71361   0.00000  Uiso   1.00
O1066  O     0.40405   0.52211   0.78213   0.00000  Uiso   1.00
O1067  O     0.58824   0.48559   0.77014   0.00000  Uiso   1.00
O1068  O     0.47093   0.40277   0.73413   0.00000  Uiso   1.00
O1069  O     0.53678   0.58953   0.71361   0.00000  Uiso   1.00
S1070  S     0.57923   0.41648   0.58677   0.00000  Uiso   1.00
S1071  S     0.54130   0.36375   0.50360   0.00000  Uiso   1.00
S1072  S     0.43957   0.59831   0.92057   0.00000  Uiso   1.00
S1073  S     0.41073   0.51608   0.57372   0.00000  Uiso   1.00
S1074  S     0.35734   0.56312   0.72021   0.00000  Uiso   1.00
Zn1075 Zn    0.52672   0.47327   0.78734   0.00000  Uiso   1.00
Zn1076 Zn    0.46713   0.45791   0.71876   0.00000  Uiso   1.00
Zn1077 Zn    0.54389   0.53109   0.70657   0.00000  Uiso   1.00
Zn1078 Zn    0.46226   0.53773   0.78734   0.00000  Uiso   1.00
C1079  C     0.71935   0.49230   0.76036   0.00000  Uiso   1.00
C1080  C     0.83818   0.49301   0.55731   0.00000  Uiso   1.00
C1081  C     0.87740   0.43605   0.56019   0.00000  Uiso   1.00
C1082  C     0.94745   0.50839   0.74100   0.00000  Uiso   1.00
C1083  C     0.80101   0.51994   0.92234   0.00000  Uiso   1.00
C1084  C     0.99265   0.51642   0.74145   0.00000  Uiso   1.00
C1085  C     0.67462   0.48942   0.76140   0.00000  Uiso   1.00
C1086  C     0.84856   0.65658   0.73685   0.00000  Uiso   1.00
C1087  C     0.81890   0.34494   0.76365   0.00000  Uiso   1.00
C1088  C     0.82232   0.38918   0.76078   0.00000  Uiso   1.00
C1089  C     0.84363   0.61140   0.74017   0.00000  Uiso   1.00
C1090  C     0.76254   0.55226   0.99386   0.00000  Uiso   1.00
C1091  C     0.85163   0.48174   0.62906   0.00000  Uiso   1.00
C1092  C     0.81413   0.51696   0.87166   0.00000  Uiso   1.00
C1093  C     0.86887   0.41774   0.51881   0.00000  Uiso   1.00
C1094  C     0.85927   0.47213   0.58025   0.00000  Uiso   1.00
C1095  C     0.77940   0.55378   0.94682   0.00000  Uiso   1.00
C1096  C     0.77533   0.52405   0.51776   0.00000  Uiso   1.00
C1097  C     0.80591   0.49740   0.99439   0.00000  Uiso   1.00
C1098  C     0.81039   0.48931   0.94753   0.00000  Uiso   1.00
C1099  C     0.82999   0.47662   0.51592   0.00000  Uiso   1.00
C1100  C     0.84852   0.44044   0.99437   0.00000  Uiso   1.00
C1101  C     0.84603   0.42847   0.94926   0.00000  Uiso   1.00
C1102  C     0.82247   0.45013   0.92837   0.00000  Uiso   1.00
H1103  H     0.98825   0.46080   0.77312   0.00000  Uiso   1.00
H1104  H     0.71303   0.57988   0.99851   0.00000  Uiso   1.00
H1105  H     0.80699   0.40051   0.89132   0.00000  Uiso   1.00
H1106  H     0.67321   0.56161   0.65675   0.00000  Uiso   1.00
H1107  H     0.79108   0.66351   0.78711   0.00000  Uiso   1.00
H1108  H     0.82763   0.52224   0.57278   0.00000  Uiso   1.00
H1109  H     0.95149   0.47595   0.59064   0.00000  Uiso   1.00
H1110  H     0.90195   0.65677   0.69013   0.00000  Uiso   1.00
H1111  H     0.87464   0.40218   0.89157   0.00000  Uiso   1.00
H1112  H     0.80831   0.34510   0.50476   0.00000  Uiso   1.00
H1113  H     0.75725   0.66104   0.94023   0.00000  Uiso   1.00
H1114  H     0.73635   0.47179   0.62389   0.00000  Uiso   1.00
O1115  O     0.83333   0.50000   0.75000   0.00000  Uiso   1.00
O1116  O     0.82118   0.45970   0.65459   0.00000  Uiso   1.00
O1117  O     0.79607   0.53724   0.84968   0.00000  Uiso   1.00
O1118  O     0.87491   0.51092   0.64606   0.00000  Uiso   1.00
O1119  O     0.84118   0.49213   0.84968   0.00000  Uiso   1.00
O1120  O     0.88677   0.38683   0.62091   0.00000  Uiso   1.00
O1121  O     0.94557   0.39431   0.55286   0.00000  Uiso   1.00
O1122  O     0.93827   0.45570   0.61374   0.00000  Uiso   1.00
O1123  O     0.88287   0.34385   0.70699   0.00000  Uiso   1.00
O1124  O     0.87022   0.39872   0.92419   0.00000  Uiso   1.00
O1125  O     0.91660   0.36017   0.96974   0.00000  Uiso   1.00
O1126  O     0.84597   0.41352   0.78214   0.00000  Uiso   1.00
O1127  O     0.87310   0.34026   0.54364   0.00000  Uiso   1.00
O1128  O     0.83456   0.34071   0.98093   0.00000  Uiso   1.00
O1129  O     0.81436   0.61327   0.88835   0.00000  Uiso   1.00
O1130  O     0.73857   0.58628   0.89524   0.00000  Uiso   1.00
O1131  O     0.75846   0.63805   0.95844   0.00000  Uiso   1.00
O1132  O     0.75810   0.55115   0.60476   0.00000  Uiso   1.00
O1133  O     0.69766   0.51690   0.57551   0.00000  Uiso   1.00
O1134  O     0.74900   0.47000   0.59090   0.00000  Uiso   1.00
O1135  O     0.73298   0.57790   0.51751   0.00000  Uiso   1.00
O1136  O     0.80617   0.43100   0.89285   0.00000  Uiso   1.00
O1137  O     0.81298   0.59418   0.77014   0.00000  Uiso   1.00
O1138  O     0.69129   0.59504   0.75924   0.00000  Uiso   1.00
O1139  O     0.73594   0.55568   0.69786   0.00000  Uiso   1.00
O1140  O     0.66980   0.58231   0.68308   0.00000  Uiso   1.00
O1141  O     0.74078   0.46625   0.73413   0.00000  Uiso   1.00
O1142  O     0.93360   0.52605   0.71361   0.00000  Uiso   1.00
O1143  O     0.73738   0.52211   0.78213   0.00000  Uiso   1.00
O1144  O     0.92158   0.48559   0.77014   0.00000  Uiso   1.00
O1145  O     0.80426   0.40277   0.73413   0.00000  Uiso   1.00
O1146  O     0.87012   0.58953   0.71361   0.00000  Uiso   1.00
S1147  S     0.91256   0.41648   0.58677   0.00000  Uiso   1.00
S1148  S     0.87463   0.36375   0.50360   0.00000  Uiso   1.00
S1149  S     0.77290   0.59831   0.92057   0.00000  Uiso   1.00
S1150  S     0.74407   0.51608   0.57372   0.00000  Uiso   1.00
S1151  S     0.69067   0.56312   0.72021   0.00000  Uiso   1.00
Zn1152 Zn    0.86005   0.47327   0.78734   0.00000  Uiso   1.00
Zn1153 Zn    0.80046   0.45791   0.71876   0.00000  Uiso   1.00
Zn1154 Zn    0.87723   0.53109   0.70657   0.00000  Uiso   1.00
Zn1155 Zn    0.79560   0.53773   0.78734   0.00000  Uiso   1.00
C1156  C     0.05268   0.82563   0.76036   0.00000  Uiso   1.00
C1157  C     0.17151   0.82634   0.55731   0.00000  Uiso   1.00
C1158  C     0.21073   0.76939   0.56019   0.00000  Uiso   1.00
C1159  C     0.28078   0.84172   0.74100   0.00000  Uiso   1.00
C1160  C     0.13435   0.85327   0.92234   0.00000  Uiso   1.00
C1161  C     0.32598   0.84975   0.74145   0.00000  Uiso   1.00
C1162  C     0.00795   0.82276   0.76140   0.00000  Uiso   1.00
C1163  C     0.18189   0.98992   0.73685   0.00000  Uiso   1.00
C1164  C     0.15223   0.67828   0.76365   0.00000  Uiso   1.00
C1165  C     0.15566   0.72251   0.76078   0.00000  Uiso   1.00
C1166  C     0.17696   0.94473   0.74017   0.00000  Uiso   1.00
C1167  C     0.09588   0.88560   0.99386   0.00000  Uiso   1.00
C1168  C     0.18496   0.81507   0.62906   0.00000  Uiso   1.00
C1169  C     0.14747   0.85029   0.87166   0.00000  Uiso   1.00
C1170  C     0.20220   0.75107   0.51881   0.00000  Uiso   1.00
C1171  C     0.19260   0.80546   0.58025   0.00000  Uiso   1.00
C1172  C     0.11274   0.88711   0.94682   0.00000  Uiso   1.00
C1173  C     0.10867   0.85739   0.51776   0.00000  Uiso   1.00
C1174  C     0.13924   0.83073   0.99439   0.00000  Uiso   1.00
C1175  C     0.14372   0.82265   0.94753   0.00000  Uiso   1.00
C1176  C     0.16332   0.80995   0.51592   0.00000  Uiso   1.00
C1177  C     0.18186   0.77377   0.99437   0.00000  Uiso   1.00
C1178  C     0.17936   0.76181   0.94926   0.00000  Uiso   1.00
C1179  C     0.15580   0.78347   0.92837   0.00000  Uiso   1.00
H1180  H     0.32158   0.79414   0.77312   0.00000  Uiso   1.00
H1181  H     0.04636   0.91321   0.99851   0.00000  Uiso   1.00
H1182  H     0.14032   0.73384   0.89132   0.00000  Uiso   1.00
H1183  H     0.00654   0.89495   0.65675   0.00000  Uiso   1.00
H1184  H     0.12442   0.99684   0.78711   0.00000  Uiso   1.00
H1185  H     0.16096   0.85558   0.57278   0.00000  Uiso   1.00
H1186  H     0.28482   0.80928   0.59064   0.00000  Uiso   1.00
H1187  H     0.23528   0.99011   0.69013   0.00000  Uiso   1.00
H1188  H     0.20797   0.73551   0.89157   0.00000  Uiso   1.00
H1189  H     0.14165   0.67843   0.50476   0.00000  Uiso   1.00
H1190  H     0.09059   0.99437   0.94023   0.00000  Uiso   1.00
H1191  H     0.06969   0.80513   0.62389   0.00000  Uiso   1.00
O1192  O     0.16667   0.83333   0.75000   0.00000  Uiso   1.00
O1193  O     0.15451   0.79304   0.65459   0.00000  Uiso   1.00
O1194  O     0.12940   0.87058   0.84968   0.00000  Uiso   1.00
O1195  O     0.20824   0.84425   0.64606   0.00000  Uiso   1.00
O1196  O     0.17451   0.82546   0.84968   0.00000  Uiso   1.00
O1197  O     0.22010   0.72016   0.62091   0.00000  Uiso   1.00
O1198  O     0.27891   0.72764   0.55286   0.00000  Uiso   1.00
O1199  O     0.27160   0.78904   0.61374   0.00000  Uiso   1.00
O1200  O     0.21621   0.67718   0.70699   0.00000  Uiso   1.00
O1201  O     0.20355   0.73206   0.92419   0.00000  Uiso   1.00
O1202  O     0.24993   0.69351   0.96974   0.00000  Uiso   1.00
O1203  O     0.17930   0.74686   0.78214   0.00000  Uiso   1.00
O1204  O     0.20643   0.67359   0.54364   0.00000  Uiso   1.00
O1205  O     0.16789   0.67404   0.98093   0.00000  Uiso   1.00
O1206  O     0.14769   0.94660   0.88835   0.00000  Uiso   1.00
O1207  O     0.07190   0.91961   0.89524   0.00000  Uiso   1.00
O1208  O     0.09180   0.97139   0.95844   0.00000  Uiso   1.00
O1209  O     0.09143   0.88448   0.60476   0.00000  Uiso   1.00
O1210  O     0.03100   0.85024   0.57551   0.00000  Uiso   1.00
O1211  O     0.08234   0.80333   0.59090   0.00000  Uiso   1.00
O1212  O     0.06632   0.91123   0.51751   0.00000  Uiso   1.00
O1213  O     0.13950   0.76433   0.89285   0.00000  Uiso   1.00
O1214  O     0.14632   0.92751   0.77014   0.00000  Uiso   1.00
O1215  O     0.02463   0.92837   0.75924   0.00000  Uiso   1.00
O1216  O     0.06928   0.88901   0.69786   0.00000  Uiso   1.00
O1217  O     0.00313   0.91564   0.68308   0.00000  Uiso   1.00
O1218  O     0.07412   0.79958   0.73413   0.00000  Uiso   1.00
O1219  O     0.26693   0.85939   0.71361   0.00000  Uiso   1.00
O1220  O     0.07071   0.85544   0.78213   0.00000  Uiso   1.00
O1221  O     0.25491   0.81892   0.77014   0.00000  Uiso   1.00
O1222  O     0.13760   0.73610   0.73413   0.00000  Uiso   1.00
O1223  O     0.20345   0.92286   0.71361   0.00000  Uiso   1.00
S1224  S     0.24589   0.74981   0.58677   0.00000  Uiso   1.00
S1225  S     0.20797   0.69709   0.50360   0.00000  Uiso   1.00
S1226  S     0.10624   0.93164   0.92057   0.00000  Uiso   1.00
S1227  S     0.07740   0.84941   0.57372   0.00000  Uiso   1.00
S1228  S     0.02400   0.89645   0.72021   0.00000  Uiso   1.00
Zn1229 Zn    0.19338   0.80661   0.78734   0.00000  Uiso   1.00
Zn1230 Zn    0.13379   0.79124   0.71876   0.00000  Uiso   1.00
Zn1231 Zn    0.21056   0.86442   0.70657   0.00000  Uiso   1.00
Zn1232 Zn    0.12893   0.87106   0.78734   0.00000  Uiso   1.00
C1233  C     0.38601   0.82563   0.76036   0.00000  Uiso   1.00
C1234  C     0.50485   0.82634   0.55731   0.00000  Uiso   1.00
C1235  C     0.54407   0.76939   0.56019   0.00000  Uiso   1.00
C1236  C     0.61412   0.84172   0.74100   0.00000  Uiso   1.00
C1237  C     0.46768   0.85327   0.92234   0.00000  Uiso   1.00
C1238  C     0.65932   0.84975   0.74145   0.00000  Uiso   1.00
C1239  C     0.34129   0.82276   0.76140   0.00000  Uiso   1.00
C1240  C     0.51522   0.98992   0.73685   0.00000  Uiso   1.00
C1241  C     0.48556   0.67828   0.76365   0.00000  Uiso   1.00
C1242  C     0.48899   0.72251   0.76078   0.00000  Uiso   1.00
C1243  C     0.51029   0.94473   0.74017   0.00000  Uiso   1.00
C1244  C     0.42921   0.88560   0.99386   0.00000  Uiso   1.00
C1245  C     0.51830   0.81507   0.62906   0.00000  Uiso   1.00
C1246  C     0.48080   0.85029   0.87166   0.00000  Uiso   1.00
C1247  C     0.53553   0.75107   0.51881   0.00000  Uiso   1.00
C1248  C     0.52594   0.80546   0.58025   0.00000  Uiso   1.00
C1249  C     0.44607   0.88711   0.94682   0.00000  Uiso   1.00
C1250  C     0.44200   0.85739   0.51776   0.00000  Uiso   1.00
C1251  C     0.47257   0.83073   0.99439   0.00000  Uiso   1.00
C1252  C     0.47705   0.82265   0.94753   0.00000  Uiso   1.00
C1253  C     0.49666   0.80995   0.51592   0.00000  Uiso   1.00
C1254  C     0.51519   0.77377   0.99437   0.00000  Uiso   1.00
C1255  C     0.51270   0.76181   0.94926   0.00000  Uiso   1.00
C1256  C     0.48913   0.78347   0.92837   0.00000  Uiso   1.00
H1257  H     0.65492   0.79414   0.77312   0.00000  Uiso   1.00
H1258  H     0.37969   0.91321   0.99851   0.00000  Uiso   1.00
H1259  H     0.47365   0.73384   0.89132   0.00000  Uiso   1.00
H1260  H     0.33987   0.89495   0.65675   0.00000  Uiso   1.00
H1261  H     0.45775   0.99684   0.78711   0.00000  Uiso   1.00
H1262  H     0.49430   0.85558   0.57278   0.00000  Uiso   1.00
H1263  H     0.61815   0.80928   0.59064   0.00000  Uiso   1.00
H1264  H     0.56862   0.99011   0.69013   0.00000  Uiso   1.00
H1265  H     0.54131   0.73551   0.89157   0.00000  Uiso   1.00
H1266  H     0.47498   0.67843   0.50476   0.00000  Uiso   1.00
H1267  H     0.42392   0.99437   0.94023   0.00000  Uiso   1.00
H1268  H     0.40302   0.80513   0.62389   0.00000  Uiso   1.00
O1269  O     0.50000   0.83333   0.75000   0.00000  Uiso   1.00
O1270  O     0.48784   0.79304   0.65459   0.00000  Uiso   1.00
O1271  O     0.46274   0.87058   0.84968   0.00000  Uiso   1.00
O1272  O     0.54157   0.84425   0.64606   0.00000  Uiso   1.00
O1273  O     0.50785   0.82546   0.84968   0.00000  Uiso   1.00
O1274  O     0.55343   0.72016   0.62091   0.00000  Uiso   1.00
O1275  O     0.61224   0.72764   0.55286   0.00000  Uiso   1.00
O1276  O     0.60493   0.78904   0.61374   0.00000  Uiso   1.00
O1277  O     0.54954   0.67718   0.70699   0.00000  Uiso   1.00
O1278  O     0.53689   0.73206   0.92419   0.00000  Uiso   1.00
O1279  O     0.58326   0.69351   0.96974   0.00000  Uiso   1.00
O1280  O     0.51264   0.74686   0.78214   0.00000  Uiso   1.00
O1281  O     0.53976   0.67359   0.54364   0.00000  Uiso   1.00
O1282  O     0.50123   0.67404   0.98093   0.00000  Uiso   1.00
O1283  O     0.48103   0.94660   0.88835   0.00000  Uiso   1.00
O1284  O     0.40523   0.91961   0.89524   0.00000  Uiso   1.00
O1285  O     0.42513   0.97139   0.95844   0.00000  Uiso   1.00
O1286  O     0.42477   0.88448   0.60476   0.00000  Uiso   1.00
O1287  O     0.36433   0.85024   0.57551   0.00000  Uiso   1.00
O1288  O     0.41567   0.80333   0.59090   0.00000  Uiso   1.00
O1289  O     0.39965   0.91123   0.51751   0.00000  Uiso   1.00
O1290  O     0.47283   0.76433   0.89285   0.00000  Uiso   1.00
O1291  O     0.47965   0.92751   0.77014   0.00000  Uiso   1.00
O1292  O     0.35796   0.92837   0.75924   0.00000  Uiso   1.00
O1293  O     0.40261   0.88901   0.69786   0.00000  Uiso   1.00
O1294  O     0.33647   0.91564   0.68308   0.00000  Uiso   1.00
O1295  O     0.40745   0.79958   0.73413   0.00000  Uiso   1.00
O1296  O     0.60026   0.85939   0.71361   0.00000  Uiso   1.00
O1297  O     0.40405   0.85544   0.78213   0.00000  Uiso   1.00
O1298  O     0.58824   0.81892   0.77014   0.00000  Uiso   1.00
O1299  O     0.47093   0.73610   0.73413   0.00000  Uiso   1.00
O1300  O     0.53678   0.92286   0.71361   0.00000  Uiso   1.00
S1301  S     0.57923   0.74981   0.58677   0.00000  Uiso   1.00
S1302  S     0.54130   0.69709   0.50360   0.00000  Uiso   1.00
S1303  S     0.43957   0.93164   0.92057   0.00000  Uiso   1.00
S1304  S     0.41073   0.84941   0.57372   0.00000  Uiso   1.00
S1305  S     0.35734   0.89645   0.72021   0.00000  Uiso   1.00
Zn1306 Zn    0.52672   0.80661   0.78734   0.00000  Uiso   1.00
Zn1307 Zn    0.46713   0.79124   0.71876   0.00000  Uiso   1.00
Zn1308 Zn    0.54389   0.86442   0.70657   0.00000  Uiso   1.00
Zn1309 Zn    0.46226   0.87106   0.78734   0.00000  Uiso   1.00
C1310  C     0.71935   0.82563   0.76036   0.00000  Uiso   1.00
C1311  C     0.83818   0.82634   0.55731   0.00000  Uiso   1.00
C1312  C     0.87740   0.76939   0.56019   0.00000  Uiso   1.00
C1313  C     0.94745   0.84172   0.74100   0.00000  Uiso   1.00
C1314  C     0.80101   0.85327   0.92234   0.00000  Uiso   1.00
C1315  C     0.99265   0.84975   0.74145   0.00000  Uiso   1.00
C1316  C     0.67462   0.82276   0.76140   0.00000  Uiso   1.00
C1317  C     0.84856   0.98992   0.73685   0.00000  Uiso   1.00
C1318  C     0.81890   0.67828   0.76365   0.00000  Uiso   1.00
C1319  C     0.82232   0.72251   0.76078   0.00000  Uiso   1.00
C1320  C     0.84363   0.94473   0.74017   0.00000  Uiso   1.00
C1321  C     0.76254   0.88560   0.99386   0.00000  Uiso   1.00
C1322  C     0.85163   0.81507   0.62906   0.00000  Uiso   1.00
C1323  C     0.81413   0.85029   0.87166   0.00000  Uiso   1.00
C1324  C     0.86887   0.75107   0.51881   0.00000  Uiso   1.00
C1325  C     0.85927   0.80546   0.58025   0.00000  Uiso   1.00
C1326  C     0.77940   0.88711   0.94682   0.00000  Uiso   1.00
C1327  C     0.77533   0.85739   0.51776   0.00000  Uiso   1.00
C1328  C     0.80591   0.83073   0.99439   0.00000  Uiso   1.00
C1329  C     0.81039   0.82265   0.94753   0.00000  Uiso   1.00
C1330  C     0.82999   0.80995   0.51592   0.00000  Uiso   1.00
C1331  C     0.84852   0.77377   0.99437   0.00000  Uiso   1.00
C1332  C     0.84603   0.76181   0.94926   0.00000  Uiso   1.00
C1333  C     0.82247   0.78347   0.92837   0.00000  Uiso   1.00
H1334  H     0.98825   0.79414   0.77312   0.00000  Uiso   1.00
H1335  H     0.71303   0.91321   0.99851   0.00000  Uiso   1.00
H1336  H     0.80699   0.73384   0.89132   0.00000  Uiso   1.00
H1337  H     0.67321   0.89495   0.65675   0.00000  Uiso   1.00
H1338  H     0.79108   0.99684   0.78711   0.00000  Uiso   1.00
H1339  H     0.82763   0.85558   0.57278   0.00000  Uiso   1.00
H1340  H     0.95149   0.80928   0.59064   0.00000  Uiso   1.00
H1341  H     0.90195   0.99011   0.69013   0.00000  Uiso   1.00
H1342  H     0.87464   0.73551   0.89157   0.00000  Uiso   1.00
H1343  H     0.80831   0.67843   0.50476   0.00000  Uiso   1.00
H1344  H     0.75725   0.99437   0.94023   0.00000  Uiso   1.00
H1345  H     0.73635   0.80513   0.62389   0.00000  Uiso   1.00
O1346  O     0.83333   0.83333   0.75000   0.00000  Uiso   1.00
O1347  O     0.82118   0.79304   0.65459   0.00000  Uiso   1.00
O1348  O     0.79607   0.87058   0.84968   0.00000  Uiso   1.00
O1349  O     0.87491   0.84425   0.64606   0.00000  Uiso   1.00
O1350  O     0.84118   0.82546   0.84968   0.00000  Uiso   1.00
O1351  O     0.88677   0.72016   0.62091   0.00000  Uiso   1.00
O1352  O     0.94557   0.72764   0.55286   0.00000  Uiso   1.00
O1353  O     0.93827   0.78904   0.61374   0.00000  Uiso   1.00
O1354  O     0.88287   0.67718   0.70699   0.00000  Uiso   1.00
O1355  O     0.87022   0.73206   0.92419   0.00000  Uiso   1.00
O1356  O     0.91660   0.69351   0.96974   0.00000  Uiso   1.00
O1357  O     0.84597   0.74686   0.78214   0.00000  Uiso   1.00
O1358  O     0.87310   0.67359   0.54364   0.00000  Uiso   1.00
O1359  O     0.83456   0.67404   0.98093   0.00000  Uiso   1.00
O1360  O     0.81436   0.94660   0.88835   0.00000  Uiso   1.00
O1361  O     0.73857   0.91961   0.89524   0.00000  Uiso   1.00
O1362  O     0.75846   0.97139   0.95844   0.00000  Uiso   1.00
O1363  O     0.75810   0.88448   0.60476   0.00000  Uiso   1.00
O1364  O     0.69766   0.85024   0.57551   0.00000  Uiso   1.00
O1365  O     0.74900   0.80333   0.59090   0.00000  Uiso   1.00
O1366  O     0.73298   0.91123   0.51751   0.00000  Uiso   1.00
O1367  O     0.80617   0.76433   0.89285   0.00000  Uiso   1.00
O1368  O     0.81298   0.92751   0.77014   0.00000  Uiso   1.00
O1369  O     0.69129   0.92837   0.75924   0.00000  Uiso   1.00
O1370  O     0.73594   0.88901   0.69786   0.00000  Uiso   1.00
O1371  O     0.66980   0.91564   0.68308   0.00000  Uiso   1.00
O1372  O     0.74078   0.79958   0.73413   0.00000  Uiso   1.00
O1373  O     0.93360   0.85939   0.71361   0.00000  Uiso   1.00
O1374  O     0.73738   0.85544   0.78213   0.00000  Uiso   1.00
O1375  O     0.92158   0.81892   0.77014   0.00000  Uiso   1.00
O1376  O     0.80426   0.73610   0.73413   0.00000  Uiso   1.00
O1377  O     0.87012   0.92286   0.71361   0.00000  Uiso   1.00
S1378  S     0.91256   0.74981   0.58677   0.00000  Uiso   1.00
S1379  S     0.87463   0.69709   0.50360   0.00000  Uiso   1.00
S1380  S     0.77290   0.93164   0.92057   0.00000  Uiso   1.00
S1381  S     0.74407   0.84941   0.57372   0.00000  Uiso   1.00
S1382  S     0.69067   0.89645   0.72021   0.00000  Uiso   1.00
Zn1383 Zn    0.86005   0.80661   0.78734   0.00000  Uiso   1.00
Zn1384 Zn    0.80046   0.79124   0.71876   0.00000  Uiso   1.00
Zn1385 Zn    0.87723   0.86442   0.70657   0.00000  Uiso   1.00
Zn1386 Zn    0.79560   0.87106   0.78734   0.00000  Uiso   1.00
loop_
_geom_bond_atom_site_label_1
_geom_bond_atom_site_label_2
_geom_bond_distance
_geom_bond_site_symmetry_2
_ccdc_geom_bond_type
C1     O65     1.275   .     A
C1     O63     1.264   .     A
C1     C7      1.438   .     S
C2     C16     1.385   .     A
C2     C21     1.400   .     A
C2     H30     1.079   .     S
C3     C15     1.421   .     A
C3     S69     1.786   .     S
C3     C16     1.404   .     A
C4     C6      1.460   .     S
C4     O64     1.271   .     A
C4     O66     1.276   .     A
C5     C20     1.435   .     A
C5     C17     1.434   .     A
C5     C14     1.502   .     S
C6     C84     1.340   .     S
C6     S150    1.783   .     S
C7     C160    1.340   1_455 S
C7     H179    1.087   1_455 S
C8     C11     1.465   .     S
C8     C240    1.335   .     S
C8     O276    1.386   .     S
C9     C10     1.436   .     S
C9     C470    1.335   1_545 S
C9     H491    1.086   1_545 S
C10    O67     1.270   .     A
C10    O48     1.272   .     A
C11    O59     1.276   .     A
C11    O68     1.271   .     A
C12    C17     1.412   .     A
C12    C711    1.403   .     S
C12    O750    1.379   .     S
C13    O40     1.277   .     A
C13    O38     1.273   .     A
C13    C16     1.463   .     S
C14    O39     1.285   .     A
C14    O41     1.294   .     A
C15    S70     1.792   .     S
C15    C715    1.437   1_554 S
C17    S71     1.794   .     S
C18    S72     1.783   .     S
C18    C705    1.403   1_554 S
C18    C712    1.420   1_554 S
C19    C20     1.410   .     A
C19    C711    1.420   .     S
C19    C714    1.424   .     S
C20    C24     1.413   .     A
C21    C712    1.424   1_554 S
C21    C715    1.424   1_554 S
C22    C23     1.419   .     A
C22    C714    1.424   .     S
C22    C708    1.437   .     S
C23    C24     1.416   .     A
C23    O46     1.381   .     S
C24    O58     1.384   .     S
H25    C84     1.087   .     S
H26    O750    0.991   .     S
H27    O58     0.991   .     S
H28    O62     0.990   .     S
H29    C240    1.086   .     S
H31    O44     0.990   .     S
H32    O276    0.990   .     S
H33    O46     0.991   .     S
H34    O743    0.991   1_554 S
H35    O53     0.991   .     S
H36    O56     0.991   .     S
O37    Zn74    1.943   .     S
O37    Zn75    1.937   .     S
O37    Zn77    1.939   .     S
O37    Zn76    1.930   .     S
O38    Zn75    1.918   .     S
O39    Zn77    1.921   .     S
O40    Zn76    1.921   .     S
O41    Zn74    1.919   .     S
O42    S69     1.502   .     D
O43    S69     1.503   .     D
O44    S69     1.681   .     S
O45    H494    0.990   1_545 S
O45    C470    1.386   1_545 S
O47    S763    1.503   .     S
O48    Zn74    1.927   .     S
O49    S70     1.502   .     D
O50    H727    0.991   .     S
O50    S763    1.678   .     S
O51    S71     1.504   .     D
O52    S71     1.504   .     D
O53    S71     1.681   .     S
O54    S72     1.502   .     D
O55    S72     1.503   .     D
O56    S72     1.683   .     S
O57    H719    0.991   1_554 S
O57    C705    1.379   1_554 S
O59    Zn77    1.926   .     S
O60    S73     1.502   .     D
O61    S73     1.503   .     D
O62    S73     1.682   .     S
O63    Zn75    1.933   .     S
O64    Zn76    1.936   .     S
O65    Zn77    1.932   .     S
O66    Zn74    1.929   .     S
O67    Zn75    1.931   .     S
O68    Zn76    1.931   .     S
S70    O740    1.503   1_554 S
S70    O743    1.678   1_554 S
S73    C160    1.783   1_455 S
C78    O142    1.275   .     A
C78    O140    1.264   .     A
C78    C84     1.438   .     S
C79    C93     1.385   .     A
C79    C98     1.400   .     A
C79    H107    1.079   .     S
C80    C92     1.421   .     A
C80    S146    1.786   .     S
C80    C93     1.404   .     A
C81    C83     1.460   .     S
C81    O141    1.271   .     A
C81    O143    1.276   .     A
C82    C97     1.435   .     A
C82    C94     1.434   .     A
C82    C91     1.502   .     S
C83    C161    1.340   .     S
C83    S227    1.783   .     S
C85    C88     1.465   .     S
C85    C317    1.335   .     S
C85    O353    1.386   .     S
C86    C87     1.436   .     S
C86    C547    1.335   1_545 S
C86    H568    1.086   1_545 S
C87    O144    1.270   .     A
C87    O125    1.272   .     A
C88    O136    1.276   .     A
C88    O145    1.271   .     A
C89    C94     1.412   .     A
C89    C788    1.403   .     S
C89    O827    1.379   .     S
C90    O117    1.277   .     A
C90    O115    1.273   .     A
C90    C93     1.463   .     S
C91    O116    1.285   .     A
C91    O118    1.294   .     A
C92    S147    1.792   .     S
C92    C792    1.437   1_554 S
C94    S148    1.794   .     S
C95    S149    1.783   .     S
C95    C782    1.403   1_554 S
C95    C789    1.420   1_554 S
C96    C97     1.410   .     A
C96    C788    1.420   .     S
C96    C791    1.424   .     S
C97    C101    1.413   .     A
C98    C789    1.424   1_554 S
C98    C792    1.424   1_554 S
C99    C100    1.419   .     A
C99    C791    1.424   .     S
C99    C785    1.437   .     S
C100   C101    1.416   .     A
C100   O123    1.381   .     S
C101   O135    1.384   .     S
H102   C161    1.087   .     S
H103   O827    0.991   .     S
H104   O135    0.991   .     S
H105   O139    0.990   .     S
H106   C317    1.086   .     S
H108   O121    0.990   .     S
H109   O353    0.990   .     S
H110   O123    0.991   .     S
H111   O820    0.991   1_554 S
H112   O130    0.991   .     S
H113   O133    0.991   .     S
O114   Zn151   1.943   .     S
O114   Zn152   1.937   .     S
O114   Zn154   1.939   .     S
O114   Zn153   1.930   .     S
O115   Zn152   1.918   .     S
O116   Zn154   1.921   .     S
O117   Zn153   1.921   .     S
O118   Zn151   1.919   .     S
O119   S146    1.502   .     D
O120   S146    1.503   .     D
O121   S146    1.681   .     S
O122   H571    0.990   1_545 S
O122   C547    1.386   1_545 S
O124   S840    1.503   .     S
O125   Zn151   1.927   .     S
O126   S147    1.502   .     D
O127   H804    0.991   .     S
O127   S840    1.678   .     S
O128   S148    1.504   .     D
O129   S148    1.504   .     D
O130   S148    1.681   .     S
O131   S149    1.502   .     D
O132   S149    1.503   .     D
O133   S149    1.683   .     S
O134   H796    0.991   1_554 S
O134   C782    1.379   1_554 S
O136   Zn154   1.926   .     S
O137   S150    1.502   .     D
O138   S150    1.503   .     D
O139   S150    1.682   .     S
O140   Zn152   1.933   .     S
O141   Zn153   1.936   .     S
O142   Zn154   1.932   .     S
O143   Zn151   1.929   .     S
O144   Zn152   1.931   .     S
O145   Zn153   1.931   .     S
S147   O817    1.503   1_554 S
S147   O820    1.678   1_554 S
C155   O219    1.275   .     A
C155   O217    1.264   .     A
C155   C161    1.438   .     S
C156   C170    1.385   .     A
C156   C175    1.400   .     A
C156   H184    1.079   .     S
C157   C169    1.421   .     A
C157   S223    1.786   .     S
C157   C170    1.404   .     A
C158   C160    1.460   .     S
C158   O218    1.271   .     A
C158   O220    1.276   .     A
C159   C174    1.435   .     A
C159   C171    1.434   .     A
C159   C168    1.502   .     S
C160   C7      1.340   1_655 S
C160   S73     1.783   1_655 S
C162   C165    1.465   .     S
C162   C394    1.335   .     S
C162   O430    1.386   .     S
C163   C164    1.436   .     S
C163   C624    1.335   1_545 S
C163   H645    1.086   1_545 S
C164   O221    1.270   .     A
C164   O202    1.272   .     A
C165   O213    1.276   .     A
C165   O222    1.271   .     A
C166   C171    1.412   .     A
C166   C865    1.403   .     S
C166   O904    1.379   .     S
C167   O194    1.277   .     A
C167   O192    1.273   .     A
C167   C170    1.463   .     S
C168   O193    1.285   .     A
C168   O195    1.294   .     A
C169   S224    1.792   .     S
C169   C869    1.437   1_554 S
C171   S225    1.794   .     S
C172   S226    1.783   .     S
C172   C859    1.403   1_554 S
C172   C866    1.420   1_554 S
C173   C174    1.410   .     A
C173   C865    1.420   .     S
C173   C868    1.424   .     S
C174   C178    1.413   .     A
C175   C866    1.424   1_554 S
C175   C869    1.424   1_554 S
C176   C177    1.419   .     A
C176   C868    1.424   .     S
C176   C862    1.437   .     S
C177   C178    1.416   .     A
C177   O200    1.381   .     S
C178   O212    1.384   .     S
H179   C7      1.087   1_655 S
H180   O904    0.991   .     S
H181   O212    0.991   .     S
H182   O216    0.990   .     S
H183   C394    1.086   .     S
H185   O198    0.990   .     S
H186   O430    0.990   .     S
H187   O200    0.991   .     S
H188   O897    0.991   1_554 S
H189   O207    0.991   .     S
H190   O210    0.991   .     S
O191   Zn228   1.943   .     S
O191   Zn229   1.937   .     S
O191   Zn231   1.939   .     S
O191   Zn230   1.930   .     S
O192   Zn229   1.918   .     S
O193   Zn231   1.921   .     S
O194   Zn230   1.921   .     S
O195   Zn228   1.919   .     S
O196   S223    1.502   .     D
O197   S223    1.503   .     D
O198   S223    1.681   .     S
O199   H648    0.990   1_545 S
O199   C624    1.386   1_545 S
O201   S917    1.503   .     S
O202   Zn228   1.927   .     S
O203   S224    1.502   .     D
O204   H881    0.991   .     S
O204   S917    1.678   .     S
O205   S225    1.504   .     D
O206   S225    1.504   .     D
O207   S225    1.681   .     S
O208   S226    1.502   .     D
O209   S226    1.503   .     D
O210   S226    1.683   .     S
O211   H873    0.991   1_554 S
O211   C859    1.379   1_554 S
O213   Zn231   1.926   .     S
O214   S227    1.502   .     D
O215   S227    1.503   .     D
O216   S227    1.682   .     S
O217   Zn229   1.933   .     S
O218   Zn230   1.936   .     S
O219   Zn231   1.932   .     S
O220   Zn228   1.929   .     S
O221   Zn229   1.931   .     S
O222   Zn230   1.931   .     S
S224   O894    1.503   1_554 S
S224   O897    1.678   1_554 S
C232   O296    1.275   .     A
C232   O294    1.264   .     A
C232   C238    1.438   .     S
C233   C247    1.385   .     A
C233   C252    1.400   .     A
C233   H261    1.079   .     S
C234   C246    1.421   .     A
C234   S300    1.786   .     S
C234   C247    1.404   .     A
C235   C237    1.460   .     S
C235   O295    1.271   .     A
C235   O297    1.276   .     A
C236   C251    1.435   .     A
C236   C248    1.434   .     A
C236   C245    1.502   .     S
C237   C315    1.340   .     S
C237   S381    1.783   .     S
C238   C391    1.340   1_455 S
C238   H410    1.087   1_455 S
C239   C242    1.465   .     S
C239   C471    1.335   .     S
C239   O507    1.386   .     S
C240   C241    1.436   .     S
C241   O298    1.270   .     A
C241   O279    1.272   .     A
C242   O290    1.276   .     A
C242   O299    1.271   .     A
C243   C248    1.412   .     A
C243   C942    1.403   .     S
C243   O981    1.379   .     S
C244   O271    1.277   .     A
C244   O269    1.273   .     A
C244   C247    1.463   .     S
C245   O270    1.285   .     A
C245   O272    1.294   .     A
C246   S301    1.792   .     S
C246   C946    1.437   1_554 S
C248   S302    1.794   .     S
C249   S303    1.783   .     S
C249   C936    1.403   1_554 S
C249   C943    1.420   1_554 S
C250   C251    1.410   .     A
C250   C942    1.420   .     S
C250   C945    1.424   .     S
C251   C255    1.413   .     A
C252   C943    1.424   1_554 S
C252   C946    1.424   1_554 S
C253   C254    1.419   .     A
C253   C945    1.424   .     S
C253   C939    1.437   .     S
C254   C255    1.416   .     A
C254   O277    1.381   .     S
C255   O289    1.384   .     S
H256   C315    1.087   .     S
H257   O981    0.991   .     S
H258   O289    0.991   .     S
H259   O293    0.990   .     S
H260   C471    1.086   .     S
H262   O275    0.990   .     S
H263   O507    0.990   .     S
H264   O277    0.991   .     S
H265   O974    0.991   1_554 S
H266   O284    0.991   .     S
H267   O287    0.991   .     S
O268   Zn305   1.943   .     S
O268   Zn306   1.937   .     S
O268   Zn308   1.939   .     S
O268   Zn307   1.930   .     S
O269   Zn306   1.918   .     S
O270   Zn308   1.921   .     S
O271   Zn307   1.921   .     S
O272   Zn305   1.919   .     S
O273   S300    1.502   .     D
O274   S300    1.503   .     D
O275   S300    1.681   .     S
O278   S994    1.503   .     S
O279   Zn305   1.927   .     S
O280   S301    1.502   .     D
O281   H958    0.991   .     S
O281   S994    1.678   .     S
O282   S302    1.504   .     D
O283   S302    1.504   .     D
O284   S302    1.681   .     S
O285   S303    1.502   .     D
O286   S303    1.503   .     D
O287   S303    1.683   .     S
O288   H950    0.991   1_554 S
O288   C936    1.379   1_554 S
O290   Zn308   1.926   .     S
O291   S304    1.502   .     D
O292   S304    1.503   .     D
O293   S304    1.682   .     S
O294   Zn306   1.933   .     S
O295   Zn307   1.936   .     S
O296   Zn308   1.932   .     S
O297   Zn305   1.929   .     S
O298   Zn306   1.931   .     S
O299   Zn307   1.931   .     S
S301   O971    1.503   1_554 S
S301   O974    1.678   1_554 S
S304   C391    1.783   1_455 S
C309   O373    1.275   .     A
C309   O371    1.264   .     A
C309   C315    1.438   .     S
C310   C324    1.385   .     A
C310   C329    1.400   .     A
C310   H338    1.079   .     S
C311   C323    1.421   .     A
C311   S377    1.786   .     S
C311   C324    1.404   .     A
C312   C314    1.460   .     S
C312   O372    1.271   .     A
C312   O374    1.276   .     A
C313   C328    1.435   .     A
C313   C325    1.434   .     A
C313   C322    1.502   .     S
C314   C392    1.340   .     S
C314   S458    1.783   .     S
C316   C319    1.465   .     S
C316   C548    1.335   .     S
C316   O584    1.386   .     S
C317   C318    1.436   .     S
C318   O375    1.270   .     A
C318   O356    1.272   .     A
C319   O367    1.276   .     A
C319   O376    1.271   .     A
C320   C325    1.412   .     A
C320   C1019   1.403   .     S
C320   O1058   1.379   .     S
C321   O348    1.277   .     A
C321   O346    1.273   .     A
C321   C324    1.463   .     S
C322   O347    1.285   .     A
C322   O349    1.294   .     A
C323   S378    1.792   .     S
C323   C1023   1.437   1_554 S
C325   S379    1.794   .     S
C326   S380    1.783   .     S
C326   C1013   1.403   1_554 S
C326   C1020   1.420   1_554 S
C327   C328    1.410   .     A
C327   C1019   1.420   .     S
C327   C1022   1.424   .     S
C328   C332    1.413   .     A
C329   C1020   1.424   1_554 S
C329   C1023   1.424   1_554 S
C330   C331    1.419   .     A
C330   C1022   1.424   .     S
C330   C1016   1.437   .     S
C331   C332    1.416   .     A
C331   O354    1.381   .     S
C332   O366    1.384   .     S
H333   C392    1.087   .     S
H334   O1058   0.991   .     S
H335   O366    0.991   .     S
H336   O370    0.990   .     S
H337   C548    1.086   .     S
H339   O352    0.990   .     S
H340   O584    0.990   .     S
H341   O354    0.991   .     S
H342   O1051   0.991   1_554 S
H343   O361    0.991   .     S
H344   O364    0.991   .     S
O345   Zn382   1.943   .     S
O345   Zn383   1.937   .     S
O345   Zn385   1.939   .     S
O345   Zn384   1.930   .     S
O346   Zn383   1.918   .     S
O347   Zn385   1.921   .     S
O348   Zn384   1.921   .     S
O349   Zn382   1.919   .     S
O350   S377    1.502   .     D
O351   S377    1.503   .     D
O352   S377    1.681   .     S
O355   S1071   1.503   .     S
O356   Zn382   1.927   .     S
O357   S378    1.502   .     D
O358   H1035   0.991   .     S
O358   S1071   1.678   .     S
O359   S379    1.504   .     D
O360   S379    1.504   .     D
O361   S379    1.681   .     S
O362   S380    1.502   .     D
O363   S380    1.503   .     D
O364   S380    1.683   .     S
O365   H1027   0.991   1_554 S
O365   C1013   1.379   1_554 S
O367   Zn385   1.926   .     S
O368   S381    1.502   .     D
O369   S381    1.503   .     D
O370   S381    1.682   .     S
O371   Zn383   1.933   .     S
O372   Zn384   1.936   .     S
O373   Zn385   1.932   .     S
O374   Zn382   1.929   .     S
O375   Zn383   1.931   .     S
O376   Zn384   1.931   .     S
S378   O1048   1.503   1_554 S
S378   O1051   1.678   1_554 S
C386   O450    1.275   .     A
C386   O448    1.264   .     A
C386   C392    1.438   .     S
C387   C401    1.385   .     A
C387   C406    1.400   .     A
C387   H415    1.079   .     S
C388   C400    1.421   .     A
C388   S454    1.786   .     S
C388   C401    1.404   .     A
C389   C391    1.460   .     S
C389   O449    1.271   .     A
C389   O451    1.276   .     A
C390   C405    1.435   .     A
C390   C402    1.434   .     A
C390   C399    1.502   .     S
C391   C238    1.340   1_655 S
C391   S304    1.783   1_655 S
C393   C396    1.465   .     S
C393   C625    1.335   .     S
C393   O661    1.386   .     S
C394   C395    1.436   .     S
C395   O452    1.270   .     A
C395   O433    1.272   .     A
C396   O444    1.276   .     A
C396   O453    1.271   .     A
C397   C402    1.412   .     A
C397   C1096   1.403   .     S
C397   O1135   1.379   .     S
C398   O425    1.277   .     A
C398   O423    1.273   .     A
C398   C401    1.463   .     S
C399   O424    1.285   .     A
C399   O426    1.294   .     A
C400   S455    1.792   .     S
C400   C1100   1.437   1_554 S
C402   S456    1.794   .     S
C403   S457    1.783   .     S
C403   C1090   1.403   1_554 S
C403   C1097   1.420   1_554 S
C404   C405    1.410   .     A
C404   C1096   1.420   .     S
C404   C1099   1.424   .     S
C405   C409    1.413   .     A
C406   C1097   1.424   1_554 S
C406   C1100   1.424   1_554 S
C407   C408    1.419   .     A
C407   C1099   1.424   .     S
C407   C1093   1.437   .     S
C408   C409    1.416   .     A
C408   O431    1.381   .     S
C409   O443    1.384   .     S
H410   C238    1.087   1_655 S
H411   O1135   0.991   .     S
H412   O443    0.991   .     S
H413   O447    0.990   .     S
H414   C625    1.086   .     S
H416   O429    0.990   .     S
H417   O661    0.990   .     S
H418   O431    0.991   .     S
H419   O1128   0.991   1_554 S
H420   O438    0.991   .     S
H421   O441    0.991   .     S
O422   Zn459   1.943   .     S
O422   Zn460   1.937   .     S
O422   Zn462   1.939   .     S
O422   Zn461   1.930   .     S
O423   Zn460   1.918   .     S
O424   Zn462   1.921   .     S
O425   Zn461   1.921   .     S
O426   Zn459   1.919   .     S
O427   S454    1.502   .     D
O428   S454    1.503   .     D
O429   S454    1.681   .     S
O432   S1148   1.503   .     S
O433   Zn459   1.927   .     S
O434   S455    1.502   .     D
O435   H1112   0.991   .     S
O435   S1148   1.678   .     S
O436   S456    1.504   .     D
O437   S456    1.504   .     D
O438   S456    1.681   .     S
O439   S457    1.502   .     D
O440   S457    1.503   .     D
O441   S457    1.683   .     S
O442   H1104   0.991   1_554 S
O442   C1090   1.379   1_554 S
O444   Zn462   1.926   .     S
O445   S458    1.502   .     D
O446   S458    1.503   .     D
O447   S458    1.682   .     S
O448   Zn460   1.933   .     S
O449   Zn461   1.936   .     S
O450   Zn462   1.932   .     S
O451   Zn459   1.929   .     S
O452   Zn460   1.931   .     S
O453   Zn461   1.931   .     S
S455   O1125   1.503   1_554 S
S455   O1128   1.678   1_554 S
C463   O527    1.275   .     A
C463   O525    1.264   .     A
C463   C469    1.438   .     S
C464   C478    1.385   .     A
C464   C483    1.400   .     A
C464   H492    1.079   .     S
C465   C477    1.421   .     A
C465   S531    1.786   .     S
C465   C478    1.404   .     A
C466   C468    1.460   .     S
C466   O526    1.271   .     A
C466   O528    1.276   .     A
C467   C482    1.435   .     A
C467   C479    1.434   .     A
C467   C476    1.502   .     S
C468   C546    1.340   .     S
C468   S612    1.783   .     S
C469   C622    1.340   1_455 S
C469   H641    1.087   1_455 S
C470   C473    1.465   .     S
C470   C9      1.335   1_565 S
C470   O45     1.386   1_565 S
C471   C472    1.436   .     S
C472   O529    1.270   .     A
C472   O510    1.272   .     A
C473   O521    1.276   .     A
C473   O530    1.271   .     A
C474   C479    1.412   .     A
C474   C1173   1.403   .     S
C474   O1212   1.379   .     S
C475   O502    1.277   .     A
C475   O500    1.273   .     A
C475   C478    1.463   .     S
C476   O501    1.285   .     A
C476   O503    1.294   .     A
C477   S532    1.792   .     S
C477   C1177   1.437   1_554 S
C479   S533    1.794   .     S
C480   S534    1.783   .     S
C480   C1167   1.403   1_554 S
C480   C1174   1.420   1_554 S
C481   C482    1.410   .     A
C481   C1173   1.420   .     S
C481   C1176   1.424   .     S
C482   C486    1.413   .     A
C483   C1174   1.424   1_554 S
C483   C1177   1.424   1_554 S
C484   C485    1.419   .     A
C484   C1176   1.424   .     S
C484   C1170   1.437   .     S
C485   C486    1.416   .     A
C485   O508    1.381   .     S
C486   O520    1.384   .     S
H487   C546    1.087   .     S
H488   O1212   0.991   .     S
H489   O520    0.991   .     S
H490   O524    0.990   .     S
H491   C9      1.086   1_565 S
H493   O506    0.990   .     S
H494   O45     0.990   1_565 S
H495   O508    0.991   .     S
H496   O1205   0.991   1_554 S
H497   O515    0.991   .     S
H498   O518    0.991   .     S
O499   Zn536   1.943   .     S
O499   Zn537   1.937   .     S
O499   Zn539   1.939   .     S
O499   Zn538   1.930   .     S
O500   Zn537   1.918   .     S
O501   Zn539   1.921   .     S
O502   Zn538   1.921   .     S
O503   Zn536   1.919   .     S
O504   S531    1.502   .     D
O505   S531    1.503   .     D
O506   S531    1.681   .     S
O509   S1225   1.503   .     S
O510   Zn536   1.927   .     S
O511   S532    1.502   .     D
O512   H1189   0.991   .     S
O512   S1225   1.678   .     S
O513   S533    1.504   .     D
O514   S533    1.504   .     D
O515   S533    1.681   .     S
O516   S534    1.502   .     D
O517   S534    1.503   .     D
O518   S534    1.683   .     S
O519   H1181   0.991   1_554 S
O519   C1167   1.379   1_554 S
O521   Zn539   1.926   .     S
O522   S535    1.502   .     D
O523   S535    1.503   .     D
O524   S535    1.682   .     S
O525   Zn537   1.933   .     S
O526   Zn538   1.936   .     S
O527   Zn539   1.932   .     S
O528   Zn536   1.929   .     S
O529   Zn537   1.931   .     S
O530   Zn538   1.931   .     S
S532   O1202   1.503   1_554 S
S532   O1205   1.678   1_554 S
S535   C622    1.783   1_455 S
C540   O604    1.275   .     A
C540   O602    1.264   .     A
C540   C546    1.438   .     S
C541   C555    1.385   .     A
C541   C560    1.400   .     A
C541   H569    1.079   .     S
C542   C554    1.421   .     A
C542   S608    1.786   .     S
C542   C555    1.404   .     A
C543   C545    1.460   .     S
C543   O603    1.271   .     A
C543   O605    1.276   .     A
C544   C559    1.435   .     A
C544   C556    1.434   .     A
C544   C553    1.502   .     S
C545   C623    1.340   .     S
C545   S689    1.783   .     S
C547   C550    1.465   .     S
C547   C86     1.335   1_565 S
C547   O122    1.386   1_565 S
C548   C549    1.436   .     S
C549   O606    1.270   .     A
C549   O587    1.272   .     A
C550   O598    1.276   .     A
C550   O607    1.271   .     A
C551   C556    1.412   .     A
C551   C1250   1.403   .     S
C551   O1289   1.379   .     S
C552   O579    1.277   .     A
C552   O577    1.273   .     A
C552   C555    1.463   .     S
C553   O578    1.285   .     A
C553   O580    1.294   .     A
C554   S609    1.792   .     S
C554   C1254   1.437   1_554 S
C556   S610    1.794   .     S
C557   S611    1.783   .     S
C557   C1244   1.403   1_554 S
C557   C1251   1.420   1_554 S
C558   C559    1.410   .     A
C558   C1250   1.420   .     S
C558   C1253   1.424   .     S
C559   C563    1.413   .     A
C560   C1251   1.424   1_554 S
C560   C1254   1.424   1_554 S
C561   C562    1.419   .     A
C561   C1253   1.424   .     S
C561   C1247   1.437   .     S
C562   C563    1.416   .     A
C562   O585    1.381   .     S
C563   O597    1.384   .     S
H564   C623    1.087   .     S
H565   O1289   0.991   .     S
H566   O597    0.991   .     S
H567   O601    0.990   .     S
H568   C86     1.086   1_565 S
H570   O583    0.990   .     S
H571   O122    0.990   1_565 S
H572   O585    0.991   .     S
H573   O1282   0.991   1_554 S
H574   O592    0.991   .     S
H575   O595    0.991   .     S
O576   Zn613   1.943   .     S
O576   Zn614   1.937   .     S
O576   Zn616   1.939   .     S
O576   Zn615   1.930   .     S
O577   Zn614   1.918   .     S
O578   Zn616   1.921   .     S
O579   Zn615   1.921   .     S
O580   Zn613   1.919   .     S
O581   S608    1.502   .     D
O582   S608    1.503   .     D
O583   S608    1.681   .     S
O586   S1302   1.503   .     S
O587   Zn613   1.927   .     S
O588   S609    1.502   .     D
O589   H1266   0.991   .     S
O589   S1302   1.678   .     S
O590   S610    1.504   .     D
O591   S610    1.504   .     D
O592   S610    1.681   .     S
O593   S611    1.502   .     D
O594   S611    1.503   .     D
O595   S611    1.683   .     S
O596   H1258   0.991   1_554 S
O596   C1244   1.379   1_554 S
O598   Zn616   1.926   .     S
O599   S612    1.502   .     D
O600   S612    1.503   .     D
O601   S612    1.682   .     S
O602   Zn614   1.933   .     S
O603   Zn615   1.936   .     S
O604   Zn616   1.932   .     S
O605   Zn613   1.929   .     S
O606   Zn614   1.931   .     S
O607   Zn615   1.931   .     S
S609   O1279   1.503   1_554 S
S609   O1282   1.678   1_554 S
C617   O681    1.275   .     A
C617   O679    1.264   .     A
C617   C623    1.438   .     S
C618   C632    1.385   .     A
C618   C637    1.400   .     A
C618   H646    1.079   .     S
C619   C631    1.421   .     A
C619   S685    1.786   .     S
C619   C632    1.404   .     A
C620   C622    1.460   .     S
C620   O680    1.271   .     A
C620   O682    1.276   .     A
C621   C636    1.435   .     A
C621   C633    1.434   .     A
C621   C630    1.502   .     S
C622   C469    1.340   1_655 S
C622   S535    1.783   1_655 S
C624   C627    1.465   .     S
C624   C163    1.335   1_565 S
C624   O199    1.386   1_565 S
C625   C626    1.436   .     S
C626   O683    1.270   .     A
C626   O664    1.272   .     A
C627   O675    1.276   .     A
C627   O684    1.271   .     A
C628   C633    1.412   .     A
C628   C1327   1.403   .     S
C628   O1366   1.379   .     S
C629   O656    1.277   .     A
C629   O654    1.273   .     A
C629   C632    1.463   .     S
C630   O655    1.285   .     A
C630   O657    1.294   .     A
C631   S686    1.792   .     S
C631   C1331   1.437   1_554 S
C633   S687    1.794   .     S
C634   S688    1.783   .     S
C634   C1321   1.403   1_554 S
C634   C1328   1.420   1_554 S
C635   C636    1.410   .     A
C635   C1327   1.420   .     S
C635   C1330   1.424   .     S
C636   C640    1.413   .     A
C637   C1328   1.424   1_554 S
C637   C1331   1.424   1_554 S
C638   C639    1.419   .     A
C638   C1330   1.424   .     S
C638   C1324   1.437   .     S
C639   C640    1.416   .     A
C639   O662    1.381   .     S
C640   O674    1.384   .     S
H641   C469    1.087   1_655 S
H642   O1366   0.991   .     S
H643   O674    0.991   .     S
H644   O678    0.990   .     S
H645   C163    1.086   1_565 S
H647   O660    0.990   .     S
H648   O199    0.990   1_565 S
H649   O662    0.991   .     S
H650   O1359   0.991   1_554 S
H651   O669    0.991   .     S
H652   O672    0.991   .     S
O653   Zn690   1.943   .     S
O653   Zn691   1.937   .     S
O653   Zn693   1.939   .     S
O653   Zn692   1.930   .     S
O654   Zn691   1.918   .     S
O655   Zn693   1.921   .     S
O656   Zn692   1.921   .     S
O657   Zn690   1.919   .     S
O658   S685    1.502   .     D
O659   S685    1.503   .     D
O660   S685    1.681   .     S
O663   S1379   1.503   .     S
O664   Zn690   1.927   .     S
O665   S686    1.502   .     D
O666   H1343   0.991   .     S
O666   S1379   1.678   .     S
O667   S687    1.504   .     D
O668   S687    1.504   .     D
O669   S687    1.681   .     S
O670   S688    1.502   .     D
O671   S688    1.503   .     D
O672   S688    1.683   .     S
O673   H1335   0.991   1_554 S
O673   C1321   1.379   1_554 S
O675   Zn693   1.926   .     S
O676   S689    1.502   .     D
O677   S689    1.503   .     D
O678   S689    1.682   .     S
O679   Zn691   1.933   .     S
O680   Zn692   1.936   .     S
O681   Zn693   1.932   .     S
O682   Zn690   1.929   .     S
O683   Zn691   1.931   .     S
O684   Zn692   1.931   .     S
S686   O1356   1.503   1_554 S
S686   O1359   1.678   1_554 S
C694   O758    1.275   .     A
C694   O756    1.264   .     A
C694   C700    1.438   .     S
C695   C709    1.385   .     A
C695   C714    1.400   .     A
C695   H723    1.079   .     S
C696   C708    1.421   .     A
C696   S762    1.786   .     S
C696   C709    1.404   .     A
C697   C699    1.460   .     S
C697   O757    1.271   .     A
C697   O759    1.276   .     A
C698   C713    1.435   .     A
C698   C710    1.434   .     A
C698   C707    1.502   .     S
C699   C777    1.340   .     S
C699   S843    1.783   .     S
C700   C853    1.340   1_455 S
C700   H872    1.087   1_455 S
C701   C704    1.465   .     S
C701   C933    1.335   .     S
C701   O969    1.386   .     S
C702   C703    1.436   .     S
C702   C1163   1.335   1_545 S
C702   H1184   1.086   1_545 S
C703   O760    1.270   .     A
C703   O741    1.272   .     A
C704   O752    1.276   .     A
C704   O761    1.271   .     A
C705   C710    1.412   .     A
C705   C18     1.403   1_556 S
C705   O57     1.379   1_556 S
C706   O733    1.277   .     A
C706   O731    1.273   .     A
C706   C709    1.463   .     S
C707   O732    1.285   .     A
C707   O734    1.294   .     A
C708   S763    1.792   .     S
C710   S764    1.794   .     S
C711   S765    1.783   .     S
C712   C713    1.410   .     A
C712   C18     1.420   1_556 S
C712   C21     1.424   1_556 S
C713   C717    1.413   .     A
C715   C716    1.419   .     A
C715   C21     1.424   1_556 S
C715   C15     1.437   1_556 S
C716   C717    1.416   .     A
C716   O739    1.381   .     S
C717   O751    1.384   .     S
H718   C777    1.087   .     S
H719   O57     0.991   1_556 S
H720   O751    0.991   .     S
H721   O755    0.990   .     S
H722   C933    1.086   .     S
H724   O737    0.990   .     S
H725   O969    0.990   .     S
H726   O739    0.991   .     S
H728   O746    0.991   .     S
H729   O749    0.991   .     S
O730   Zn767   1.943   .     S
O730   Zn768   1.937   .     S
O730   Zn770   1.939   .     S
O730   Zn769   1.930   .     S
O731   Zn768   1.918   .     S
O732   Zn770   1.921   .     S
O733   Zn769   1.921   .     S
O734   Zn767   1.919   .     S
O735   S762    1.502   .     D
O736   S762    1.503   .     D
O737   S762    1.681   .     S
O738   H1187   0.990   1_545 S
O738   C1163   1.386   1_545 S
O740   S70     1.503   1_556 S
O741   Zn767   1.927   .     S
O742   S763    1.502   .     D
O743   H34     0.991   1_556 S
O743   S70     1.678   1_556 S
O744   S764    1.504   .     D
O745   S764    1.504   .     D
O746   S764    1.681   .     S
O747   S765    1.502   .     D
O748   S765    1.503   .     D
O749   S765    1.683   .     S
O752   Zn770   1.926   .     S
O753   S766    1.502   .     D
O754   S766    1.503   .     D
O755   S766    1.682   .     S
O756   Zn768   1.933   .     S
O757   Zn769   1.936   .     S
O758   Zn770   1.932   .     S
O759   Zn767   1.929   .     S
O760   Zn768   1.931   .     S
O761   Zn769   1.931   .     S
S766   C853    1.783   1_455 S
C771   O835    1.275   .     A
C771   O833    1.264   .     A
C771   C777    1.438   .     S
C772   C786    1.385   .     A
C772   C791    1.400   .     A
C772   H800    1.079   .     S
C773   C785    1.421   .     A
C773   S839    1.786   .     S
C773   C786    1.404   .     A
C774   C776    1.460   .     S
C774   O834    1.271   .     A
C774   O836    1.276   .     A
C775   C790    1.435   .     A
C775   C787    1.434   .     A
C775   C784    1.502   .     S
C776   C854    1.340   .     S
C776   S920    1.783   .     S
C778   C781    1.465   .     S
C778   C1010   1.335   .     S
C778   O1046   1.386   .     S
C779   C780    1.436   .     S
C779   C1240   1.335   1_545 S
C779   H1261   1.086   1_545 S
C780   O837    1.270   .     A
C780   O818    1.272   .     A
C781   O829    1.276   .     A
C781   O838    1.271   .     A
C782   C787    1.412   .     A
C782   C95     1.403   1_556 S
C782   O134    1.379   1_556 S
C783   O810    1.277   .     A
C783   O808    1.273   .     A
C783   C786    1.463   .     S
C784   O809    1.285   .     A
C784   O811    1.294   .     A
C785   S840    1.792   .     S
C787   S841    1.794   .     S
C788   S842    1.783   .     S
C789   C790    1.410   .     A
C789   C95     1.420   1_556 S
C789   C98     1.424   1_556 S
C790   C794    1.413   .     A
C792   C793    1.419   .     A
C792   C98     1.424   1_556 S
C792   C92     1.437   1_556 S
C793   C794    1.416   .     A
C793   O816    1.381   .     S
C794   O828    1.384   .     S
H795   C854    1.087   .     S
H796   O134    0.991   1_556 S
H797   O828    0.991   .     S
H798   O832    0.990   .     S
H799   C1010   1.086   .     S
H801   O814    0.990   .     S
H802   O1046   0.990   .     S
H803   O816    0.991   .     S
H805   O823    0.991   .     S
H806   O826    0.991   .     S
O807   Zn844   1.943   .     S
O807   Zn845   1.937   .     S
O807   Zn847   1.939   .     S
O807   Zn846   1.930   .     S
O808   Zn845   1.918   .     S
O809   Zn847   1.921   .     S
O810   Zn846   1.921   .     S
O811   Zn844   1.919   .     S
O812   S839    1.502   .     D
O813   S839    1.503   .     D
O814   S839    1.681   .     S
O815   H1264   0.990   1_545 S
O815   C1240   1.386   1_545 S
O817   S147    1.503   1_556 S
O818   Zn844   1.927   .     S
O819   S840    1.502   .     D
O820   H111    0.991   1_556 S
O820   S147    1.678   1_556 S
O821   S841    1.504   .     D
O822   S841    1.504   .     D
O823   S841    1.681   .     S
O824   S842    1.502   .     D
O825   S842    1.503   .     D
O826   S842    1.683   .     S
O829   Zn847   1.926   .     S
O830   S843    1.502   .     D
O831   S843    1.503   .     D
O832   S843    1.682   .     S
O833   Zn845   1.933   .     S
O834   Zn846   1.936   .     S
O835   Zn847   1.932   .     S
O836   Zn844   1.929   .     S
O837   Zn845   1.931   .     S
O838   Zn846   1.931   .     S
C848   O912    1.275   .     A
C848   O910    1.264   .     A
C848   C854    1.438   .     S
C849   C863    1.385   .     A
C849   C868    1.400   .     A
C849   H877    1.079   .     S
C850   C862    1.421   .     A
C850   S916    1.786   .     S
C850   C863    1.404   .     A
C851   C853    1.460   .     S
C851   O911    1.271   .     A
C851   O913    1.276   .     A
C852   C867    1.435   .     A
C852   C864    1.434   .     A
C852   C861    1.502   .     S
C853   C700    1.340   1_655 S
C853   S766    1.783   1_655 S
C855   C858    1.465   .     S
C855   C1087   1.335   .     S
C855   O1123   1.386   .     S
C856   C857    1.436   .     S
C856   C1317   1.335   1_545 S
C856   H1338   1.086   1_545 S
C857   O914    1.270   .     A
C857   O895    1.272   .     A
C858   O906    1.276   .     A
C858   O915    1.271   .     A
C859   C864    1.412   .     A
C859   C172    1.403   1_556 S
C859   O211    1.379   1_556 S
C860   O887    1.277   .     A
C860   O885    1.273   .     A
C860   C863    1.463   .     S
C861   O886    1.285   .     A
C861   O888    1.294   .     A
C862   S917    1.792   .     S
C864   S918    1.794   .     S
C865   S919    1.783   .     S
C866   C867    1.410   .     A
C866   C172    1.420   1_556 S
C866   C175    1.424   1_556 S
C867   C871    1.413   .     A
C869   C870    1.419   .     A
C869   C175    1.424   1_556 S
C869   C169    1.437   1_556 S
C870   C871    1.416   .     A
C870   O893    1.381   .     S
C871   O905    1.384   .     S
H872   C700    1.087   1_655 S
H873   O211    0.991   1_556 S
H874   O905    0.991   .     S
H875   O909    0.990   .     S
H876   C1087   1.086   .     S
H878   O891    0.990   .     S
H879   O1123   0.990   .     S
H880   O893    0.991   .     S
H882   O900    0.991   .     S
H883   O903    0.991   .     S
O884   Zn921   1.943   .     S
O884   Zn922   1.937   .     S
O884   Zn924   1.939   .     S
O884   Zn923   1.930   .     S
O885   Zn922   1.918   .     S
O886   Zn924   1.921   .     S
O887   Zn923   1.921   .     S
O888   Zn921   1.919   .     S
O889   S916    1.502   .     D
O890   S916    1.503   .     D
O891   S916    1.681   .     S
O892   H1341   0.990   1_545 S
O892   C1317   1.386   1_545 S
O894   S224    1.503   1_556 S
O895   Zn921   1.927   .     S
O896   S917    1.502   .     D
O897   H188    0.991   1_556 S
O897   S224    1.678   1_556 S
O898   S918    1.504   .     D
O899   S918    1.504   .     D
O900   S918    1.681   .     S
O901   S919    1.502   .     D
O902   S919    1.503   .     D
O903   S919    1.683   .     S
O906   Zn924   1.926   .     S
O907   S920    1.502   .     D
O908   S920    1.503   .     D
O909   S920    1.682   .     S
O910   Zn922   1.933   .     S
O911   Zn923   1.936   .     S
O912   Zn924   1.932   .     S
O913   Zn921   1.929   .     S
O914   Zn922   1.931   .     S
O915   Zn923   1.931   .     S
C925   O989    1.275   .     A
C925   O987    1.264   .     A
C925   C931    1.438   .     S
C926   C940    1.385   .     A
C926   C945    1.400   .     A
C926   H954    1.079   .     S
C927   C939    1.421   .     A
C927   S993    1.786   .     S
C927   C940    1.404   .     A
C928   C930    1.460   .     S
C928   O988    1.271   .     A
C928   O990    1.276   .     A
C929   C944    1.435   .     A
C929   C941    1.434   .     A
C929   C938    1.502   .     S
C930   C1008   1.340   .     S
C930   S1074   1.783   .     S
C931   C1084   1.340   1_455 S
C931   H1103   1.087   1_455 S
C932   C935    1.465   .     S
C932   C1164   1.335   .     S
C932   O1200   1.386   .     S
C933   C934    1.436   .     S
C934   O991    1.270   .     A
C934   O972    1.272   .     A
C935   O983    1.276   .     A
C935   O992    1.271   .     A
C936   C941    1.412   .     A
C936   C249    1.403   1_556 S
C936   O288    1.379   1_556 S
C937   O964    1.277   .     A
C937   O962    1.273   .     A
C937   C940    1.463   .     S
C938   O963    1.285   .     A
C938   O965    1.294   .     A
C939   S994    1.792   .     S
C941   S995    1.794   .     S
C942   S996    1.783   .     S
C943   C944    1.410   .     A
C943   C249    1.420   1_556 S
C943   C252    1.424   1_556 S
C944   C948    1.413   .     A
C946   C947    1.419   .     A
C946   C252    1.424   1_556 S
C946   C246    1.437   1_556 S
C947   C948    1.416   .     A
C947   O970    1.381   .     S
C948   O982    1.384   .     S
H949   C1008   1.087   .     S
H950   O288    0.991   1_556 S
H951   O982    0.991   .     S
H952   O986    0.990   .     S
H953   C1164   1.086   .     S
H955   O968    0.990   .     S
H956   O1200   0.990   .     S
H957   O970    0.991   .     S
H959   O977    0.991   .     S
H960   O980    0.991   .     S
O961   Zn998   1.943   .     S
O961   Zn999   1.937   .     S
O961   Zn1001  1.939   .     S
O961   Zn1000  1.930   .     S
O962   Zn999   1.918   .     S
O963   Zn1001  1.921   .     S
O964   Zn1000  1.921   .     S
O965   Zn998   1.919   .     S
O966   S993    1.502   .     D
O967   S993    1.503   .     D
O968   S993    1.681   .     S
O971   S301    1.503   1_556 S
O972   Zn998   1.927   .     S
O973   S994    1.502   .     D
O974   H265    0.991   1_556 S
O974   S301    1.678   1_556 S
O975   S995    1.504   .     D
O976   S995    1.504   .     D
O977   S995    1.681   .     S
O978   S996    1.502   .     D
O979   S996    1.503   .     D
O980   S996    1.683   .     S
O983   Zn1001  1.926   .     S
O984   S997    1.502   .     D
O985   S997    1.503   .     D
O986   S997    1.682   .     S
O987   Zn999   1.933   .     S
O988   Zn1000  1.936   .     S
O989   Zn1001  1.932   .     S
O990   Zn998   1.929   .     S
O991   Zn999   1.931   .     S
O992   Zn1000  1.931   .     S
S997   C1084   1.783   1_455 S
C1002  O1066   1.275   .     A
C1002  O1064   1.264   .     A
C1002  C1008   1.438   .     S
C1003  C1017   1.385   .     A
C1003  C1022   1.400   .     A
C1003  H1031   1.079   .     S
C1004  C1016   1.421   .     A
C1004  S1070   1.786   .     S
C1004  C1017   1.404   .     A
C1005  C1007   1.460   .     S
C1005  O1065   1.271   .     A
C1005  O1067   1.276   .     A
C1006  C1021   1.435   .     A
C1006  C1018   1.434   .     A
C1006  C1015   1.502   .     S
C1007  C1085   1.340   .     S
C1007  S1151   1.783   .     S
C1009  C1012   1.465   .     S
C1009  C1241   1.335   .     S
C1009  O1277   1.386   .     S
C1010  C1011   1.436   .     S
C1011  O1068   1.270   .     A
C1011  O1049   1.272   .     A
C1012  O1060   1.276   .     A
C1012  O1069   1.271   .     A
C1013  C1018   1.412   .     A
C1013  C326    1.403   1_556 S
C1013  O365    1.379   1_556 S
C1014  O1041   1.277   .     A
C1014  O1039   1.273   .     A
C1014  C1017   1.463   .     S
C1015  O1040   1.285   .     A
C1015  O1042   1.294   .     A
C1016  S1071   1.792   .     S
C1018  S1072   1.794   .     S
C1019  S1073   1.783   .     S
C1020  C1021   1.410   .     A
C1020  C326    1.420   1_556 S
C1020  C329    1.424   1_556 S
C1021  C1025   1.413   .     A
C1023  C1024   1.419   .     A
C1023  C329    1.424   1_556 S
C1023  C323    1.437   1_556 S
C1024  C1025   1.416   .     A
C1024  O1047   1.381   .     S
C1025  O1059   1.384   .     S
H1026  C1085   1.087   .     S
H1027  O365    0.991   1_556 S
H1028  O1059   0.991   .     S
H1029  O1063   0.990   .     S
H1030  C1241   1.086   .     S
H1032  O1045   0.990   .     S
H1033  O1277   0.990   .     S
H1034  O1047   0.991   .     S
H1036  O1054   0.991   .     S
H1037  O1057   0.991   .     S
O1038  Zn1075  1.943   .     S
O1038  Zn1076  1.937   .     S
O1038  Zn1078  1.939   .     S
O1038  Zn1077  1.930   .     S
O1039  Zn1076  1.918   .     S
O1040  Zn1078  1.921   .     S
O1041  Zn1077  1.921   .     S
O1042  Zn1075  1.919   .     S
O1043  S1070   1.502   .     D
O1044  S1070   1.503   .     D
O1045  S1070   1.681   .     S
O1048  S378    1.503   1_556 S
O1049  Zn1075  1.927   .     S
O1050  S1071   1.502   .     D
O1051  H342    0.991   1_556 S
O1051  S378    1.678   1_556 S
O1052  S1072   1.504   .     D
O1053  S1072   1.504   .     D
O1054  S1072   1.681   .     S
O1055  S1073   1.502   .     D
O1056  S1073   1.503   .     D
O1057  S1073   1.683   .     S
O1060  Zn1078  1.926   .     S
O1061  S1074   1.502   .     D
O1062  S1074   1.503   .     D
O1063  S1074   1.682   .     S
O1064  Zn1076  1.933   .     S
O1065  Zn1077  1.936   .     S
O1066  Zn1078  1.932   .     S
O1067  Zn1075  1.929   .     S
O1068  Zn1076  1.931   .     S
O1069  Zn1077  1.931   .     S
C1079  O1143   1.275   .     A
C1079  O1141   1.264   .     A
C1079  C1085   1.438   .     S
C1080  C1094   1.385   .     A
C1080  C1099   1.400   .     A
C1080  H1108   1.079   .     S
C1081  C1093   1.421   .     A
C1081  S1147   1.786   .     S
C1081  C1094   1.404   .     A
C1082  C1084   1.460   .     S
C1082  O1142   1.271   .     A
C1082  O1144   1.276   .     A
C1083  C1098   1.435   .     A
C1083  C1095   1.434   .     A
C1083  C1092   1.502   .     S
C1084  C931    1.340   1_655 S
C1084  S997    1.783   1_655 S
C1086  C1089   1.465   .     S
C1086  C1318   1.335   .     S
C1086  O1354   1.386   .     S
C1087  C1088   1.436   .     S
C1088  O1145   1.270   .     A
C1088  O1126   1.272   .     A
C1089  O1137   1.276   .     A
C1089  O1146   1.271   .     A
C1090  C1095   1.412   .     A
C1090  C403    1.403   1_556 S
C1090  O442    1.379   1_556 S
C1091  O1118   1.277   .     A
C1091  O1116   1.273   .     A
C1091  C1094   1.463   .     S
C1092  O1117   1.285   .     A
C1092  O1119   1.294   .     A
C1093  S1148   1.792   .     S
C1095  S1149   1.794   .     S
C1096  S1150   1.783   .     S
C1097  C1098   1.410   .     A
C1097  C403    1.420   1_556 S
C1097  C406    1.424   1_556 S
C1098  C1102   1.413   .     A
C1100  C1101   1.419   .     A
C1100  C406    1.424   1_556 S
C1100  C400    1.437   1_556 S
C1101  C1102   1.416   .     A
C1101  O1124   1.381   .     S
C1102  O1136   1.384   .     S
H1103  C931    1.087   1_655 S
H1104  O442    0.991   1_556 S
H1105  O1136   0.991   .     S
H1106  O1140   0.990   .     S
H1107  C1318   1.086   .     S
H1109  O1122   0.990   .     S
H1110  O1354   0.990   .     S
H1111  O1124   0.991   .     S
H1113  O1131   0.991   .     S
H1114  O1134   0.991   .     S
O1115  Zn1152  1.943   .     S
O1115  Zn1153  1.937   .     S
O1115  Zn1155  1.939   .     S
O1115  Zn1154  1.930   .     S
O1116  Zn1153  1.918   .     S
O1117  Zn1155  1.921   .     S
O1118  Zn1154  1.921   .     S
O1119  Zn1152  1.919   .     S
O1120  S1147   1.502   .     D
O1121  S1147   1.503   .     D
O1122  S1147   1.681   .     S
O1125  S455    1.503   1_556 S
O1126  Zn1152  1.927   .     S
O1127  S1148   1.502   .     D
O1128  H419    0.991   1_556 S
O1128  S455    1.678   1_556 S
O1129  S1149   1.504   .     D
O1130  S1149   1.504   .     D
O1131  S1149   1.681   .     S
O1132  S1150   1.502   .     D
O1133  S1150   1.503   .     D
O1134  S1150   1.683   .     S
O1137  Zn1155  1.926   .     S
O1138  S1151   1.502   .     D
O1139  S1151   1.503   .     D
O1140  S1151   1.682   .     S
O1141  Zn1153  1.933   .     S
O1142  Zn1154  1.936   .     S
O1143  Zn1155  1.932   .     S
O1144  Zn1152  1.929   .     S
O1145  Zn1153  1.931   .     S
O1146  Zn1154  1.931   .     S
C1156  O1220   1.275   .     A
C1156  O1218   1.264   .     A
C1156  C1162   1.438   .     S
C1157  C1171   1.385   .     A
C1157  C1176   1.400   .     A
C1157  H1185   1.079   .     S
C1158  C1170   1.421   .     A
C1158  S1224   1.786   .     S
C1158  C1171   1.404   .     A
C1159  C1161   1.460   .     S
C1159  O1219   1.271   .     A
C1159  O1221   1.276   .     A
C1160  C1175   1.435   .     A
C1160  C1172   1.434   .     A
C1160  C1169   1.502   .     S
C1161  C1239   1.340   .     S
C1161  S1305   1.783   .     S
C1162  C1315   1.340   1_455 S
C1162  H1334   1.087   1_455 S
C1163  C1166   1.465   .     S
C1163  C702    1.335   1_565 S
C1163  O738    1.386   1_565 S
C1164  C1165   1.436   .     S
C1165  O1222   1.270   .     A
C1165  O1203   1.272   .     A
C1166  O1214   1.276   .     A
C1166  O1223   1.271   .     A
C1167  C1172   1.412   .     A
C1167  C480    1.403   1_556 S
C1167  O519    1.379   1_556 S
C1168  O1195   1.277   .     A
C1168  O1193   1.273   .     A
C1168  C1171   1.463   .     S
C1169  O1194   1.285   .     A
C1169  O1196   1.294   .     A
C1170  S1225   1.792   .     S
C1172  S1226   1.794   .     S
C1173  S1227   1.783   .     S
C1174  C1175   1.410   .     A
C1174  C480    1.420   1_556 S
C1174  C483    1.424   1_556 S
C1175  C1179   1.413   .     A
C1177  C1178   1.419   .     A
C1177  C483    1.424   1_556 S
C1177  C477    1.437   1_556 S
C1178  C1179   1.416   .     A
C1178  O1201   1.381   .     S
C1179  O1213   1.384   .     S
H1180  C1239   1.087   .     S
H1181  O519    0.991   1_556 S
H1182  O1213   0.991   .     S
H1183  O1217   0.990   .     S
H1184  C702    1.086   1_565 S
H1186  O1199   0.990   .     S
H1187  O738    0.990   1_565 S
H1188  O1201   0.991   .     S
H1190  O1208   0.991   .     S
H1191  O1211   0.991   .     S
O1192  Zn1229  1.943   .     S
O1192  Zn1230  1.937   .     S
O1192  Zn1232  1.939   .     S
O1192  Zn1231  1.930   .     S
O1193  Zn1230  1.918   .     S
O1194  Zn1232  1.921   .     S
O1195  Zn1231  1.921   .     S
O1196  Zn1229  1.919   .     S
O1197  S1224   1.502   .     D
O1198  S1224   1.503   .     D
O1199  S1224   1.681   .     S
O1202  S532    1.503   1_556 S
O1203  Zn1229  1.927   .     S
O1204  S1225   1.502   .     D
O1205  H496    0.991   1_556 S
O1205  S532    1.678   1_556 S
O1206  S1226   1.504   .     D
O1207  S1226   1.504   .     D
O1208  S1226   1.681   .     S
O1209  S1227   1.502   .     D
O1210  S1227   1.503   .     D
O1211  S1227   1.683   .     S
O1214  Zn1232  1.926   .     S
O1215  S1228   1.502   .     D
O1216  S1228   1.503   .     D
O1217  S1228   1.682   .     S
O1218  Zn1230  1.933   .     S
O1219  Zn1231  1.936   .     S
O1220  Zn1232  1.932   .     S
O1221  Zn1229  1.929   .     S
O1222  Zn1230  1.931   .     S
O1223  Zn1231  1.931   .     S
S1228  C1315   1.783   1_455 S
C1233  O1297   1.275   .     A
C1233  O1295   1.264   .     A
C1233  C1239   1.438   .     S
C1234  C1248   1.385   .     A
C1234  C1253   1.400   .     A
C1234  H1262   1.079   .     S
C1235  C1247   1.421   .     A
C1235  S1301   1.786   .     S
C1235  C1248   1.404   .     A
C1236  C1238   1.460   .     S
C1236  O1296   1.271   .     A
C1236  O1298   1.276   .     A
C1237  C1252   1.435   .     A
C1237  C1249   1.434   .     A
C1237  C1246   1.502   .     S
C1238  C1316   1.340   .     S
C1238  S1382   1.783   .     S
C1240  C1243   1.465   .     S
C1240  C779    1.335   1_565 S
C1240  O815    1.386   1_565 S
C1241  C1242   1.436   .     S
C1242  O1299   1.270   .     A
C1242  O1280   1.272   .     A
C1243  O1291   1.276   .     A
C1243  O1300   1.271   .     A
C1244  C1249   1.412   .     A
C1244  C557    1.403   1_556 S
C1244  O596    1.379   1_556 S
C1245  O1272   1.277   .     A
C1245  O1270   1.273   .     A
C1245  C1248   1.463   .     S
C1246  O1271   1.285   .     A
C1246  O1273   1.294   .     A
C1247  S1302   1.792   .     S
C1249  S1303   1.794   .     S
C1250  S1304   1.783   .     S
C1251  C1252   1.410   .     A
C1251  C557    1.420   1_556 S
C1251  C560    1.424   1_556 S
C1252  C1256   1.413   .     A
C1254  C1255   1.419   .     A
C1254  C560    1.424   1_556 S
C1254  C554    1.437   1_556 S
C1255  C1256   1.416   .     A
C1255  O1278   1.381   .     S
C1256  O1290   1.384   .     S
H1257  C1316   1.087   .     S
H1258  O596    0.991   1_556 S
H1259  O1290   0.991   .     S
H1260  O1294   0.990   .     S
H1261  C779    1.086   1_565 S
H1263  O1276   0.990   .     S
H1264  O815    0.990   1_565 S
H1265  O1278   0.991   .     S
H1267  O1285   0.991   .     S
H1268  O1288   0.991   .     S
O1269  Zn1306  1.943   .     S
O1269  Zn1307  1.937   .     S
O1269  Zn1309  1.939   .     S
O1269  Zn1308  1.930   .     S
O1270  Zn1307  1.918   .     S
O1271  Zn1309  1.921   .     S
O1272  Zn1308  1.921   .     S
O1273  Zn1306  1.919   .     S
O1274  S1301   1.502   .     D
O1275  S1301   1.503   .     D
O1276  S1301   1.681   .     S
O1279  S609    1.503   1_556 S
O1280  Zn1306  1.927   .     S
O1281  S1302   1.502   .     D
O1282  H573    0.991   1_556 S
O1282  S609    1.678   1_556 S
O1283  S1303   1.504   .     D
O1284  S1303   1.504   .     D
O1285  S1303   1.681   .     S
O1286  S1304   1.502   .     D
O1287  S1304   1.503   .     D
O1288  S1304   1.683   .     S
O1291  Zn1309  1.926   .     S
O1292  S1305   1.502   .     D
O1293  S1305   1.503   .     D
O1294  S1305   1.682   .     S
O1295  Zn1307  1.933   .     S
O1296  Zn1308  1.936   .     S
O1297  Zn1309  1.932   .     S
O1298  Zn1306  1.929   .     S
O1299  Zn1307  1.931   .     S
O1300  Zn1308  1.931   .     S
C1310  O1374   1.275   .     A
C1310  O1372   1.264   .     A
C1310  C1316   1.438   .     S
C1311  C1325   1.385   .     A
C1311  C1330   1.400   .     A
C1311  H1339   1.079   .     S
C1312  C1324   1.421   .     A
C1312  S1378   1.786   .     S
C1312  C1325   1.404   .     A
C1313  C1315   1.460   .     S
C1313  O1373   1.271   .     A
C1313  O1375   1.276   .     A
C1314  C1329   1.435   .     A
C1314  C1326   1.434   .     A
C1314  C1323   1.502   .     S
C1315  C1162   1.340   1_655 S
C1315  S1228   1.783   1_655 S
C1317  C1320   1.465   .     S
C1317  C856    1.335   1_565 S
C1317  O892    1.386   1_565 S
C1318  C1319   1.436   .     S
C1319  O1376   1.270   .     A
C1319  O1357   1.272   .     A
C1320  O1368   1.276   .     A
C1320  O1377   1.271   .     A
C1321  C1326   1.412   .     A
C1321  C634    1.403   1_556 S
C1321  O673    1.379   1_556 S
C1322  O1349   1.277   .     A
C1322  O1347   1.273   .     A
C1322  C1325   1.463   .     S
C1323  O1348   1.285   .     A
C1323  O1350   1.294   .     A
C1324  S1379   1.792   .     S
C1326  S1380   1.794   .     S
C1327  S1381   1.783   .     S
C1328  C1329   1.410   .     A
C1328  C634    1.420   1_556 S
C1328  C637    1.424   1_556 S
C1329  C1333   1.413   .     A
C1331  C1332   1.419   .     A
C1331  C637    1.424   1_556 S
C1331  C631    1.437   1_556 S
C1332  C1333   1.416   .     A
C1332  O1355   1.381   .     S
C1333  O1367   1.384   .     S
H1334  C1162   1.087   1_655 S
H1335  O673    0.991   1_556 S
H1336  O1367   0.991   .     S
H1337  O1371   0.990   .     S
H1338  C856    1.086   1_565 S
H1340  O1353   0.990   .     S
H1341  O892    0.990   1_565 S
H1342  O1355   0.991   .     S
H1344  O1362   0.991   .     S
H1345  O1365   0.991   .     S
O1346  Zn1383  1.943   .     S
O1346  Zn1384  1.937   .     S
O1346  Zn1386  1.939   .     S
O1346  Zn1385  1.930   .     S
O1347  Zn1384  1.918   .     S
O1348  Zn1386  1.921   .     S
O1349  Zn1385  1.921   .     S
O1350  Zn1383  1.919   .     S
O1351  S1378   1.502   .     D
O1352  S1378   1.503   .     D
O1353  S1378   1.681   .     S
O1356  S686    1.503   1_556 S
O1357  Zn1383  1.927   .     S
O1358  S1379   1.502   .     D
O1359  H650    0.991   1_556 S
O1359  S686    1.678   1_556 S
O1360  S1380   1.504   .     D
O1361  S1380   1.504   .     D
O1362  S1380   1.681   .     S
O1363  S1381   1.502   .     D
O1364  S1381   1.503   .     D
O1365  S1381   1.683   .     S
O1368  Zn1386  1.926   .     S
O1369  S1382   1.502   .     D
O1370  S1382   1.503   .     D
O1371  S1382   1.682   .     S
O1372  Zn1384  1.933   .     S
O1373  Zn1385  1.936   .     S
O1374  Zn1386  1.932   .     S
O1375  Zn1383  1.929   .     S
O1376  Zn1384  1.931   .     S
O1377  Zn1385  1.931   .     S
