data_str_m1_o10_o16_pcu_sym.211
_audit_creation_date              2020-01-03
_audit_creation_method            'Materials Studio'
_symmetry_space_group_name_H-M    'P1'
_symmetry_Int_Tables_number       1
_symmetry_cell_setting            triclinic
loop_
_symmetry_equiv_pos_as_xyz
  x,y,z
_cell_length_a                    32.5764
_cell_length_b                    32.4886
_cell_length_c                    31.1761
_cell_angle_alpha                 96.6180
_cell_angle_beta                  75.0842
_cell_angle_gamma                 98.4574
loop_
_atom_site_label
_atom_site_type_symbol
_atom_site_fract_x
_atom_site_fract_y
_atom_site_fract_z
_atom_site_U_iso_or_equiv
_atom_site_adp_type
_atom_site_occupancy
C1     C     0.05300   0.15986   0.25951   0.00000  Uiso   1.00
C2     C     0.17130   0.16576   0.06057   0.00000  Uiso   1.00
C3     C     0.20557   0.10398   0.06044   0.00000  Uiso   1.00
C4     C     0.28065   0.17364   0.24028   0.00000  Uiso   1.00
C5     C     0.14447   0.19516   0.41872   0.00000  Uiso   1.00
C6     C     0.32613   0.17714   0.23851   0.00000  Uiso   1.00
C7     C     0.00741   0.15569   0.26475   0.00000  Uiso   1.00
C8     C     0.18029   0.32244   0.23667   0.00000  Uiso   1.00
C9     C     0.15178   0.01173   0.26382   0.00000  Uiso   1.00
C10    C     0.15606   0.05587   0.26022   0.00000  Uiso   1.00
C11    C     0.17651   0.27784   0.24023   0.00000  Uiso   1.00
C12    C     0.14543   0.25185   0.47625   0.00000  Uiso   1.00
C13    C     0.18509   0.14794   0.12964   0.00000  Uiso   1.00
C14    C     0.14814   0.18416   0.37088   0.00000  Uiso   1.00
C15    C     0.20136   0.09127   0.01762   0.00000  Uiso   1.00
C16    C     0.18997   0.14063   0.08208   0.00000  Uiso   1.00
C17    C     0.13797   0.23633   0.43526   0.00000  Uiso   1.00
C18    C     0.32136   0.12663   0.33302   0.00000  Uiso   1.00
C19    C     0.01400   0.09189   0.33621   0.00000  Uiso   1.00
C20    C     0.02207   0.09359   0.38251   0.00000  Uiso   1.00
C21    C     0.10569   0.17958   0.10524   0.00000  Uiso   1.00
C22    C     0.07461   0.19067   0.08016   0.00000  Uiso   1.00
C23    C     0.15867   0.22643   0.00169   0.00000  Uiso   1.00
C24    C     0.02811   0.17825   0.10439   0.00000  Uiso   1.00
C25    C     0.16111   0.18353   0.48843   0.00000  Uiso   1.00
C26    C     0.15417   0.16784   0.44607   0.00000  Uiso   1.00
C27    C     0.17255   0.15621   0.01482   0.00000  Uiso   1.00
C28    C     0.18384   0.11642   0.49520   0.00000  Uiso   1.00
C29    C     0.17535   0.10110   0.45444   0.00000  Uiso   1.00
C30    C     0.15803   0.12547   0.43170   0.00000  Uiso   1.00
H31    H     0.20657   0.00367   0.21176   0.00000  Uiso   1.00
H32    H     0.04056   0.06785   0.38389   0.00000  Uiso   1.00
H33    H     0.32457   0.08998   0.40813   0.00000  Uiso   1.00
H34    H     0.12512   0.33132   0.28885   0.00000  Uiso   1.00
H35    H     0.18075   0.06957   0.44077   0.00000  Uiso   1.00
H36    H     0.09702   0.19365   0.14009   0.00000  Uiso   1.00
H37    H     0.10147   0.14503   0.10718   0.00000  Uiso   1.00
H38    H     0.07972   0.22483   0.07666   0.00000  Uiso   1.00
H39    H     0.08063   0.17399   0.04641   0.00000  Uiso   1.00
H40    H     0.02238   0.14437   0.10933   0.00000  Uiso   1.00
H41    H     0.00660   0.18498   0.08432   0.00000  Uiso   1.00
H42    H     0.21094   0.06134   0.00238   0.00000  Uiso   1.00
H43    H     0.02028   0.19643   0.13720   0.00000  Uiso   1.00
H44    H     0.16827   0.24154   0.03080   0.00000  Uiso   1.00
H45    H     0.14296   0.28441   0.48742   0.00000  Uiso   1.00
H46    H     0.14843   0.11064   0.40240   0.00000  Uiso   1.00
H47    H     0.01476   0.19860   0.21643   0.00000  Uiso   1.00
H48    H     0.13036   0.25766   0.41498   0.00000  Uiso   1.00
H49    H     0.21831   0.08382   0.07787   0.00000  Uiso   1.00
H50    H     0.28954   0.12149   0.35684   0.00000  Uiso   1.00
H51    H     0.00325   0.15773   0.34409   0.00000  Uiso   1.00
H52    H     0.32958   0.06106   0.32885   0.00000  Uiso   1.00
H53    H     0.04533   0.09491   0.31139   0.00000  Uiso   1.00
H54    H     0.04085   0.12377   0.39001   0.00000  Uiso   1.00
O55    O     0.16667   0.16667   0.25000   0.00000  Uiso   1.00
O56    O     0.15451   0.12637   0.15458   0.00000  Uiso   1.00
O57    O     0.12940   0.20391   0.34968   0.00000  Uiso   1.00
O58    O     0.20824   0.17759   0.14606   0.00000  Uiso   1.00
O59    O     0.17451   0.15880   0.34968   0.00000  Uiso   1.00
O60    O     0.31433   0.12466   0.28976   0.00000  Uiso   1.00
O61    O     0.14824   0.19669   0.08573   0.00000  Uiso   1.00
O62    O     0.17930   0.08019   0.28213   0.00000  Uiso   1.00
O63    O     0.14632   0.26085   0.27014   0.00000  Uiso   1.00
O64    O     0.07412   0.13291   0.23413   0.00000  Uiso   1.00
O65    O     0.26693   0.19272   0.21360   0.00000  Uiso   1.00
O66    O     0.07071   0.18878   0.28213   0.00000  Uiso   1.00
O67    O     0.25491   0.15226   0.27013   0.00000  Uiso   1.00
O68    O     0.13760   0.06944   0.23413   0.00000  Uiso   1.00
O69    O     0.20345   0.25620   0.21361   0.00000  Uiso   1.00
Zn70   Zn    0.19338   0.13994   0.28734   0.00000  Uiso   1.00
Zn71   Zn    0.13379   0.12458   0.21875   0.00000  Uiso   1.00
Zn72   Zn    0.21056   0.19775   0.20657   0.00000  Uiso   1.00
Zn73   Zn    0.12893   0.20439   0.28734   0.00000  Uiso   1.00
C74    C     0.38634   0.15986   0.25951   0.00000  Uiso   1.00
C75    C     0.50463   0.16576   0.06057   0.00000  Uiso   1.00
C76    C     0.53891   0.10398   0.06044   0.00000  Uiso   1.00
C77    C     0.61398   0.17364   0.24028   0.00000  Uiso   1.00
C78    C     0.47780   0.19516   0.41872   0.00000  Uiso   1.00
C79    C     0.65946   0.17714   0.23851   0.00000  Uiso   1.00
C80    C     0.34074   0.15569   0.26475   0.00000  Uiso   1.00
C81    C     0.51362   0.32244   0.23667   0.00000  Uiso   1.00
C82    C     0.48511   0.01173   0.26382   0.00000  Uiso   1.00
C83    C     0.48939   0.05587   0.26022   0.00000  Uiso   1.00
C84    C     0.50985   0.27784   0.24023   0.00000  Uiso   1.00
C85    C     0.47876   0.25185   0.47625   0.00000  Uiso   1.00
C86    C     0.51842   0.14794   0.12964   0.00000  Uiso   1.00
C87    C     0.48148   0.18416   0.37088   0.00000  Uiso   1.00
C88    C     0.53470   0.09127   0.01762   0.00000  Uiso   1.00
C89    C     0.52331   0.14063   0.08208   0.00000  Uiso   1.00
C90    C     0.47131   0.23633   0.43526   0.00000  Uiso   1.00
C91    C     0.65469   0.12663   0.33302   0.00000  Uiso   1.00
C92    C     0.34733   0.09189   0.33621   0.00000  Uiso   1.00
C93    C     0.35540   0.09359   0.38251   0.00000  Uiso   1.00
C94    C     0.43902   0.17958   0.10524   0.00000  Uiso   1.00
C95    C     0.40794   0.19067   0.08016   0.00000  Uiso   1.00
C96    C     0.49201   0.22643   0.00169   0.00000  Uiso   1.00
C97    C     0.36145   0.17825   0.10439   0.00000  Uiso   1.00
C98    C     0.49444   0.18353   0.48843   0.00000  Uiso   1.00
C99    C     0.48751   0.16784   0.44607   0.00000  Uiso   1.00
C100   C     0.50588   0.15621   0.01482   0.00000  Uiso   1.00
C101   C     0.51717   0.11642   0.49520   0.00000  Uiso   1.00
C102   C     0.50868   0.10110   0.45444   0.00000  Uiso   1.00
C103   C     0.49136   0.12547   0.43170   0.00000  Uiso   1.00
H104   H     0.53990   0.00367   0.21176   0.00000  Uiso   1.00
H105   H     0.37389   0.06785   0.38389   0.00000  Uiso   1.00
H106   H     0.65791   0.08998   0.40813   0.00000  Uiso   1.00
H107   H     0.45845   0.33132   0.28885   0.00000  Uiso   1.00
H108   H     0.51408   0.06957   0.44077   0.00000  Uiso   1.00
H109   H     0.43035   0.19365   0.14009   0.00000  Uiso   1.00
H110   H     0.43480   0.14503   0.10718   0.00000  Uiso   1.00
H111   H     0.41305   0.22483   0.07666   0.00000  Uiso   1.00
H112   H     0.41397   0.17399   0.04641   0.00000  Uiso   1.00
H113   H     0.35571   0.14437   0.10933   0.00000  Uiso   1.00
H114   H     0.33993   0.18498   0.08432   0.00000  Uiso   1.00
H115   H     0.54428   0.06134   0.00238   0.00000  Uiso   1.00
H116   H     0.35362   0.19643   0.13720   0.00000  Uiso   1.00
H117   H     0.50161   0.24154   0.03080   0.00000  Uiso   1.00
H118   H     0.47629   0.28441   0.48742   0.00000  Uiso   1.00
H119   H     0.48177   0.11064   0.40240   0.00000  Uiso   1.00
H120   H     0.34809   0.19860   0.21643   0.00000  Uiso   1.00
H121   H     0.46369   0.25766   0.41498   0.00000  Uiso   1.00
H122   H     0.55164   0.08382   0.07787   0.00000  Uiso   1.00
H123   H     0.62288   0.12149   0.35684   0.00000  Uiso   1.00
H124   H     0.33658   0.15773   0.34409   0.00000  Uiso   1.00
H125   H     0.66291   0.06106   0.32885   0.00000  Uiso   1.00
H126   H     0.37866   0.09491   0.31139   0.00000  Uiso   1.00
H127   H     0.37418   0.12377   0.39001   0.00000  Uiso   1.00
O128   O     0.50000   0.16667   0.25000   0.00000  Uiso   1.00
O129   O     0.48784   0.12637   0.15458   0.00000  Uiso   1.00
O130   O     0.46274   0.20391   0.34968   0.00000  Uiso   1.00
O131   O     0.54157   0.17759   0.14606   0.00000  Uiso   1.00
O132   O     0.50785   0.15880   0.34968   0.00000  Uiso   1.00
O133   O     0.64767   0.12466   0.28976   0.00000  Uiso   1.00
O134   O     0.48158   0.19669   0.08573   0.00000  Uiso   1.00
O135   O     0.51264   0.08019   0.28213   0.00000  Uiso   1.00
O136   O     0.47965   0.26085   0.27014   0.00000  Uiso   1.00
O137   O     0.40745   0.13291   0.23413   0.00000  Uiso   1.00
O138   O     0.60026   0.19272   0.21360   0.00000  Uiso   1.00
O139   O     0.40405   0.18878   0.28213   0.00000  Uiso   1.00
O140   O     0.58824   0.15226   0.27013   0.00000  Uiso   1.00
O141   O     0.47093   0.06944   0.23413   0.00000  Uiso   1.00
O142   O     0.53678   0.25620   0.21361   0.00000  Uiso   1.00
Zn143  Zn    0.52672   0.13994   0.28734   0.00000  Uiso   1.00
Zn144  Zn    0.46713   0.12458   0.21875   0.00000  Uiso   1.00
Zn145  Zn    0.54389   0.19775   0.20657   0.00000  Uiso   1.00
Zn146  Zn    0.46226   0.20439   0.28734   0.00000  Uiso   1.00
C147   C     0.71967   0.15986   0.25951   0.00000  Uiso   1.00
C148   C     0.83796   0.16576   0.06057   0.00000  Uiso   1.00
C149   C     0.87224   0.10398   0.06044   0.00000  Uiso   1.00
C150   C     0.94731   0.17364   0.24028   0.00000  Uiso   1.00
C151   C     0.81114   0.19516   0.41872   0.00000  Uiso   1.00
C152   C     0.99279   0.17714   0.23851   0.00000  Uiso   1.00
C153   C     0.67408   0.15569   0.26475   0.00000  Uiso   1.00
C154   C     0.84696   0.32244   0.23667   0.00000  Uiso   1.00
C155   C     0.81845   0.01173   0.26382   0.00000  Uiso   1.00
C156   C     0.82272   0.05587   0.26022   0.00000  Uiso   1.00
C157   C     0.84318   0.27784   0.24023   0.00000  Uiso   1.00
C158   C     0.81209   0.25185   0.47625   0.00000  Uiso   1.00
C159   C     0.85176   0.14794   0.12964   0.00000  Uiso   1.00
C160   C     0.81481   0.18416   0.37088   0.00000  Uiso   1.00
C161   C     0.86803   0.09127   0.01762   0.00000  Uiso   1.00
C162   C     0.85664   0.14063   0.08208   0.00000  Uiso   1.00
C163   C     0.80464   0.23633   0.43526   0.00000  Uiso   1.00
C164   C     0.98803   0.12663   0.33302   0.00000  Uiso   1.00
C165   C     0.68066   0.09189   0.33621   0.00000  Uiso   1.00
C166   C     0.68874   0.09359   0.38251   0.00000  Uiso   1.00
C167   C     0.77236   0.17958   0.10524   0.00000  Uiso   1.00
C168   C     0.74127   0.19067   0.08016   0.00000  Uiso   1.00
C169   C     0.82534   0.22643   0.00169   0.00000  Uiso   1.00
C170   C     0.69478   0.17825   0.10439   0.00000  Uiso   1.00
C171   C     0.82778   0.18353   0.48843   0.00000  Uiso   1.00
C172   C     0.82084   0.16784   0.44607   0.00000  Uiso   1.00
C173   C     0.83922   0.15621   0.01482   0.00000  Uiso   1.00
C174   C     0.85051   0.11642   0.49520   0.00000  Uiso   1.00
C175   C     0.84201   0.10110   0.45444   0.00000  Uiso   1.00
C176   C     0.82469   0.12547   0.43170   0.00000  Uiso   1.00
H177   H     0.87324   0.00367   0.21176   0.00000  Uiso   1.00
H178   H     0.70722   0.06785   0.38389   0.00000  Uiso   1.00
H179   H     0.99124   0.08998   0.40813   0.00000  Uiso   1.00
H180   H     0.79178   0.33132   0.28885   0.00000  Uiso   1.00
H181   H     0.84741   0.06957   0.44077   0.00000  Uiso   1.00
H182   H     0.76369   0.19365   0.14009   0.00000  Uiso   1.00
H183   H     0.76814   0.14503   0.10718   0.00000  Uiso   1.00
H184   H     0.74639   0.22483   0.07666   0.00000  Uiso   1.00
H185   H     0.74730   0.17399   0.04641   0.00000  Uiso   1.00
H186   H     0.68904   0.14437   0.10933   0.00000  Uiso   1.00
H187   H     0.67327   0.18498   0.08432   0.00000  Uiso   1.00
H188   H     0.87761   0.06134   0.00238   0.00000  Uiso   1.00
H189   H     0.68695   0.19643   0.13720   0.00000  Uiso   1.00
H190   H     0.83494   0.24154   0.03080   0.00000  Uiso   1.00
H191   H     0.80963   0.28441   0.48742   0.00000  Uiso   1.00
H192   H     0.81510   0.11064   0.40240   0.00000  Uiso   1.00
H193   H     0.68143   0.19860   0.21643   0.00000  Uiso   1.00
H194   H     0.79703   0.25766   0.41498   0.00000  Uiso   1.00
H195   H     0.88497   0.08382   0.07787   0.00000  Uiso   1.00
H196   H     0.95621   0.12149   0.35684   0.00000  Uiso   1.00
H197   H     0.66991   0.15773   0.34409   0.00000  Uiso   1.00
H198   H     0.99624   0.06106   0.32885   0.00000  Uiso   1.00
H199   H     0.71199   0.09491   0.31139   0.00000  Uiso   1.00
H200   H     0.70752   0.12377   0.39001   0.00000  Uiso   1.00
O201   O     0.83333   0.16667   0.25000   0.00000  Uiso   1.00
O202   O     0.82118   0.12637   0.15458   0.00000  Uiso   1.00
O203   O     0.79607   0.20391   0.34968   0.00000  Uiso   1.00
O204   O     0.87491   0.17759   0.14606   0.00000  Uiso   1.00
O205   O     0.84118   0.15880   0.34968   0.00000  Uiso   1.00
O206   O     0.98100   0.12466   0.28976   0.00000  Uiso   1.00
O207   O     0.81491   0.19669   0.08573   0.00000  Uiso   1.00
O208   O     0.84597   0.08019   0.28213   0.00000  Uiso   1.00
O209   O     0.81298   0.26085   0.27014   0.00000  Uiso   1.00
O210   O     0.74078   0.13291   0.23413   0.00000  Uiso   1.00
O211   O     0.93360   0.19272   0.21360   0.00000  Uiso   1.00
O212   O     0.73738   0.18878   0.28213   0.00000  Uiso   1.00
O213   O     0.92158   0.15226   0.27013   0.00000  Uiso   1.00
O214   O     0.80426   0.06944   0.23413   0.00000  Uiso   1.00
O215   O     0.87012   0.25620   0.21361   0.00000  Uiso   1.00
Zn216  Zn    0.86005   0.13994   0.28734   0.00000  Uiso   1.00
Zn217  Zn    0.80046   0.12458   0.21875   0.00000  Uiso   1.00
Zn218  Zn    0.87723   0.19775   0.20657   0.00000  Uiso   1.00
Zn219  Zn    0.79560   0.20439   0.28734   0.00000  Uiso   1.00
C220   C     0.05300   0.49320   0.25951   0.00000  Uiso   1.00
C221   C     0.17130   0.49910   0.06057   0.00000  Uiso   1.00
C222   C     0.20557   0.43732   0.06044   0.00000  Uiso   1.00
C223   C     0.28065   0.50697   0.24028   0.00000  Uiso   1.00
C224   C     0.14447   0.52849   0.41872   0.00000  Uiso   1.00
C225   C     0.32613   0.51047   0.23851   0.00000  Uiso   1.00
C226   C     0.00741   0.48903   0.26475   0.00000  Uiso   1.00
C227   C     0.18029   0.65578   0.23667   0.00000  Uiso   1.00
C228   C     0.15178   0.34507   0.26382   0.00000  Uiso   1.00
C229   C     0.15606   0.38921   0.26022   0.00000  Uiso   1.00
C230   C     0.17651   0.61118   0.24023   0.00000  Uiso   1.00
C231   C     0.14543   0.58518   0.47625   0.00000  Uiso   1.00
C232   C     0.18509   0.48127   0.12964   0.00000  Uiso   1.00
C233   C     0.14814   0.51749   0.37088   0.00000  Uiso   1.00
C234   C     0.20136   0.42460   0.01762   0.00000  Uiso   1.00
C235   C     0.18997   0.47396   0.08208   0.00000  Uiso   1.00
C236   C     0.13797   0.56966   0.43526   0.00000  Uiso   1.00
C237   C     0.32136   0.45996   0.33302   0.00000  Uiso   1.00
C238   C     0.01400   0.42522   0.33621   0.00000  Uiso   1.00
C239   C     0.02207   0.42692   0.38251   0.00000  Uiso   1.00
C240   C     0.10569   0.51291   0.10524   0.00000  Uiso   1.00
C241   C     0.07461   0.52400   0.08016   0.00000  Uiso   1.00
C242   C     0.15867   0.55976   0.00169   0.00000  Uiso   1.00
C243   C     0.02811   0.51158   0.10439   0.00000  Uiso   1.00
C244   C     0.16111   0.51686   0.48843   0.00000  Uiso   1.00
C245   C     0.15417   0.50117   0.44607   0.00000  Uiso   1.00
C246   C     0.17255   0.48955   0.01482   0.00000  Uiso   1.00
C247   C     0.18384   0.44975   0.49520   0.00000  Uiso   1.00
C248   C     0.17535   0.43444   0.45444   0.00000  Uiso   1.00
C249   C     0.15803   0.45880   0.43170   0.00000  Uiso   1.00
H250   H     0.20657   0.33701   0.21176   0.00000  Uiso   1.00
H251   H     0.04056   0.40119   0.38389   0.00000  Uiso   1.00
H252   H     0.32457   0.42331   0.40813   0.00000  Uiso   1.00
H253   H     0.12512   0.66465   0.28885   0.00000  Uiso   1.00
H254   H     0.18075   0.40291   0.44077   0.00000  Uiso   1.00
H255   H     0.09702   0.52698   0.14009   0.00000  Uiso   1.00
H256   H     0.10147   0.47836   0.10718   0.00000  Uiso   1.00
H257   H     0.07972   0.55816   0.07666   0.00000  Uiso   1.00
H258   H     0.08063   0.50733   0.04641   0.00000  Uiso   1.00
H259   H     0.02238   0.47770   0.10933   0.00000  Uiso   1.00
H260   H     0.00660   0.51832   0.08432   0.00000  Uiso   1.00
H261   H     0.21094   0.39467   0.00238   0.00000  Uiso   1.00
H262   H     0.02028   0.52976   0.13720   0.00000  Uiso   1.00
H263   H     0.16827   0.57487   0.03080   0.00000  Uiso   1.00
H264   H     0.14296   0.61774   0.48742   0.00000  Uiso   1.00
H265   H     0.14843   0.44397   0.40240   0.00000  Uiso   1.00
H266   H     0.01476   0.53193   0.21643   0.00000  Uiso   1.00
H267   H     0.13036   0.59099   0.41498   0.00000  Uiso   1.00
H268   H     0.21831   0.41715   0.07787   0.00000  Uiso   1.00
H269   H     0.28954   0.45483   0.35684   0.00000  Uiso   1.00
H270   H     0.00325   0.49106   0.34409   0.00000  Uiso   1.00
H271   H     0.32958   0.39439   0.32885   0.00000  Uiso   1.00
H272   H     0.04533   0.42824   0.31139   0.00000  Uiso   1.00
H273   H     0.04085   0.45710   0.39001   0.00000  Uiso   1.00
O274   O     0.16667   0.50000   0.25000   0.00000  Uiso   1.00
O275   O     0.15451   0.45970   0.15458   0.00000  Uiso   1.00
O276   O     0.12940   0.53724   0.34968   0.00000  Uiso   1.00
O277   O     0.20824   0.51092   0.14606   0.00000  Uiso   1.00
O278   O     0.17451   0.49213   0.34968   0.00000  Uiso   1.00
O279   O     0.31433   0.45800   0.28976   0.00000  Uiso   1.00
O280   O     0.14824   0.53002   0.08573   0.00000  Uiso   1.00
O281   O     0.17930   0.41352   0.28213   0.00000  Uiso   1.00
O282   O     0.14632   0.59418   0.27014   0.00000  Uiso   1.00
O283   O     0.07412   0.46625   0.23413   0.00000  Uiso   1.00
O284   O     0.26693   0.52605   0.21360   0.00000  Uiso   1.00
O285   O     0.07071   0.52211   0.28213   0.00000  Uiso   1.00
O286   O     0.25491   0.48559   0.27013   0.00000  Uiso   1.00
O287   O     0.13760   0.40277   0.23413   0.00000  Uiso   1.00
O288   O     0.20345   0.58953   0.21361   0.00000  Uiso   1.00
Zn289  Zn    0.19338   0.47327   0.28734   0.00000  Uiso   1.00
Zn290  Zn    0.13379   0.45791   0.21875   0.00000  Uiso   1.00
Zn291  Zn    0.21056   0.53109   0.20657   0.00000  Uiso   1.00
Zn292  Zn    0.12893   0.53773   0.28734   0.00000  Uiso   1.00
C293   C     0.38634   0.49320   0.25951   0.00000  Uiso   1.00
C294   C     0.50463   0.49910   0.06057   0.00000  Uiso   1.00
C295   C     0.53891   0.43732   0.06044   0.00000  Uiso   1.00
C296   C     0.61398   0.50697   0.24028   0.00000  Uiso   1.00
C297   C     0.47780   0.52849   0.41872   0.00000  Uiso   1.00
C298   C     0.65946   0.51047   0.23851   0.00000  Uiso   1.00
C299   C     0.34074   0.48903   0.26475   0.00000  Uiso   1.00
C300   C     0.51362   0.65578   0.23667   0.00000  Uiso   1.00
C301   C     0.48511   0.34507   0.26382   0.00000  Uiso   1.00
C302   C     0.48939   0.38921   0.26022   0.00000  Uiso   1.00
C303   C     0.50985   0.61118   0.24023   0.00000  Uiso   1.00
C304   C     0.47876   0.58518   0.47625   0.00000  Uiso   1.00
C305   C     0.51842   0.48127   0.12964   0.00000  Uiso   1.00
C306   C     0.48148   0.51749   0.37088   0.00000  Uiso   1.00
C307   C     0.53470   0.42460   0.01762   0.00000  Uiso   1.00
C308   C     0.52331   0.47396   0.08208   0.00000  Uiso   1.00
C309   C     0.47131   0.56966   0.43526   0.00000  Uiso   1.00
C310   C     0.65469   0.45996   0.33302   0.00000  Uiso   1.00
C311   C     0.34733   0.42522   0.33621   0.00000  Uiso   1.00
C312   C     0.35540   0.42692   0.38251   0.00000  Uiso   1.00
C313   C     0.43902   0.51291   0.10524   0.00000  Uiso   1.00
C314   C     0.40794   0.52400   0.08016   0.00000  Uiso   1.00
C315   C     0.49201   0.55976   0.00169   0.00000  Uiso   1.00
C316   C     0.36145   0.51158   0.10439   0.00000  Uiso   1.00
C317   C     0.49444   0.51686   0.48843   0.00000  Uiso   1.00
C318   C     0.48751   0.50117   0.44607   0.00000  Uiso   1.00
C319   C     0.50588   0.48955   0.01482   0.00000  Uiso   1.00
C320   C     0.51717   0.44975   0.49520   0.00000  Uiso   1.00
C321   C     0.50868   0.43444   0.45444   0.00000  Uiso   1.00
C322   C     0.49136   0.45880   0.43170   0.00000  Uiso   1.00
H323   H     0.53990   0.33701   0.21176   0.00000  Uiso   1.00
H324   H     0.37389   0.40119   0.38389   0.00000  Uiso   1.00
H325   H     0.65791   0.42331   0.40813   0.00000  Uiso   1.00
H326   H     0.45845   0.66465   0.28885   0.00000  Uiso   1.00
H327   H     0.51408   0.40291   0.44077   0.00000  Uiso   1.00
H328   H     0.43035   0.52698   0.14009   0.00000  Uiso   1.00
H329   H     0.43480   0.47836   0.10718   0.00000  Uiso   1.00
H330   H     0.41305   0.55816   0.07666   0.00000  Uiso   1.00
H331   H     0.41397   0.50733   0.04641   0.00000  Uiso   1.00
H332   H     0.35571   0.47770   0.10933   0.00000  Uiso   1.00
H333   H     0.33993   0.51832   0.08432   0.00000  Uiso   1.00
H334   H     0.54428   0.39467   0.00238   0.00000  Uiso   1.00
H335   H     0.35362   0.52976   0.13720   0.00000  Uiso   1.00
H336   H     0.50161   0.57487   0.03080   0.00000  Uiso   1.00
H337   H     0.47629   0.61774   0.48742   0.00000  Uiso   1.00
H338   H     0.48177   0.44397   0.40240   0.00000  Uiso   1.00
H339   H     0.34809   0.53193   0.21643   0.00000  Uiso   1.00
H340   H     0.46369   0.59099   0.41498   0.00000  Uiso   1.00
H341   H     0.55164   0.41715   0.07787   0.00000  Uiso   1.00
H342   H     0.62288   0.45483   0.35684   0.00000  Uiso   1.00
H343   H     0.33658   0.49106   0.34409   0.00000  Uiso   1.00
H344   H     0.66291   0.39439   0.32885   0.00000  Uiso   1.00
H345   H     0.37866   0.42824   0.31139   0.00000  Uiso   1.00
H346   H     0.37418   0.45710   0.39001   0.00000  Uiso   1.00
O347   O     0.50000   0.50000   0.25000   0.00000  Uiso   1.00
O348   O     0.48784   0.45970   0.15458   0.00000  Uiso   1.00
O349   O     0.46274   0.53724   0.34968   0.00000  Uiso   1.00
O350   O     0.54157   0.51092   0.14606   0.00000  Uiso   1.00
O351   O     0.50785   0.49213   0.34968   0.00000  Uiso   1.00
O352   O     0.64767   0.45800   0.28976   0.00000  Uiso   1.00
O353   O     0.48158   0.53002   0.08573   0.00000  Uiso   1.00
O354   O     0.51264   0.41352   0.28213   0.00000  Uiso   1.00
O355   O     0.47965   0.59418   0.27014   0.00000  Uiso   1.00
O356   O     0.40745   0.46625   0.23413   0.00000  Uiso   1.00
O357   O     0.60026   0.52605   0.21360   0.00000  Uiso   1.00
O358   O     0.40405   0.52211   0.28213   0.00000  Uiso   1.00
O359   O     0.58824   0.48559   0.27013   0.00000  Uiso   1.00
O360   O     0.47093   0.40277   0.23413   0.00000  Uiso   1.00
O361   O     0.53678   0.58953   0.21361   0.00000  Uiso   1.00
Zn362  Zn    0.52672   0.47327   0.28734   0.00000  Uiso   1.00
Zn363  Zn    0.46713   0.45791   0.21875   0.00000  Uiso   1.00
Zn364  Zn    0.54389   0.53109   0.20657   0.00000  Uiso   1.00
Zn365  Zn    0.46226   0.53773   0.28734   0.00000  Uiso   1.00
C366   C     0.71967   0.49320   0.25951   0.00000  Uiso   1.00
C367   C     0.83796   0.49910   0.06057   0.00000  Uiso   1.00
C368   C     0.87224   0.43732   0.06044   0.00000  Uiso   1.00
C369   C     0.94731   0.50697   0.24028   0.00000  Uiso   1.00
C370   C     0.81114   0.52849   0.41872   0.00000  Uiso   1.00
C371   C     0.99279   0.51047   0.23851   0.00000  Uiso   1.00
C372   C     0.67408   0.48903   0.26475   0.00000  Uiso   1.00
C373   C     0.84696   0.65578   0.23667   0.00000  Uiso   1.00
C374   C     0.81845   0.34507   0.26382   0.00000  Uiso   1.00
C375   C     0.82272   0.38921   0.26022   0.00000  Uiso   1.00
C376   C     0.84318   0.61118   0.24023   0.00000  Uiso   1.00
C377   C     0.81209   0.58518   0.47625   0.00000  Uiso   1.00
C378   C     0.85176   0.48127   0.12964   0.00000  Uiso   1.00
C379   C     0.81481   0.51749   0.37088   0.00000  Uiso   1.00
C380   C     0.86803   0.42460   0.01762   0.00000  Uiso   1.00
C381   C     0.85664   0.47396   0.08208   0.00000  Uiso   1.00
C382   C     0.80464   0.56966   0.43526   0.00000  Uiso   1.00
C383   C     0.98803   0.45996   0.33302   0.00000  Uiso   1.00
C384   C     0.68066   0.42522   0.33621   0.00000  Uiso   1.00
C385   C     0.68874   0.42692   0.38251   0.00000  Uiso   1.00
C386   C     0.77236   0.51291   0.10524   0.00000  Uiso   1.00
C387   C     0.74127   0.52400   0.08016   0.00000  Uiso   1.00
C388   C     0.82534   0.55976   0.00169   0.00000  Uiso   1.00
C389   C     0.69478   0.51158   0.10439   0.00000  Uiso   1.00
C390   C     0.82778   0.51686   0.48843   0.00000  Uiso   1.00
C391   C     0.82084   0.50117   0.44607   0.00000  Uiso   1.00
C392   C     0.83922   0.48955   0.01482   0.00000  Uiso   1.00
C393   C     0.85051   0.44975   0.49520   0.00000  Uiso   1.00
C394   C     0.84201   0.43444   0.45444   0.00000  Uiso   1.00
C395   C     0.82469   0.45880   0.43170   0.00000  Uiso   1.00
H396   H     0.87324   0.33701   0.21176   0.00000  Uiso   1.00
H397   H     0.70722   0.40119   0.38389   0.00000  Uiso   1.00
H398   H     0.99124   0.42331   0.40813   0.00000  Uiso   1.00
H399   H     0.79178   0.66465   0.28885   0.00000  Uiso   1.00
H400   H     0.84741   0.40291   0.44077   0.00000  Uiso   1.00
H401   H     0.76369   0.52698   0.14009   0.00000  Uiso   1.00
H402   H     0.76814   0.47836   0.10718   0.00000  Uiso   1.00
H403   H     0.74639   0.55816   0.07666   0.00000  Uiso   1.00
H404   H     0.74730   0.50733   0.04641   0.00000  Uiso   1.00
H405   H     0.68904   0.47770   0.10933   0.00000  Uiso   1.00
H406   H     0.67327   0.51832   0.08432   0.00000  Uiso   1.00
H407   H     0.87761   0.39467   0.00238   0.00000  Uiso   1.00
H408   H     0.68695   0.52976   0.13720   0.00000  Uiso   1.00
H409   H     0.83494   0.57487   0.03080   0.00000  Uiso   1.00
H410   H     0.80963   0.61774   0.48742   0.00000  Uiso   1.00
H411   H     0.81510   0.44397   0.40240   0.00000  Uiso   1.00
H412   H     0.68143   0.53193   0.21643   0.00000  Uiso   1.00
H413   H     0.79703   0.59099   0.41498   0.00000  Uiso   1.00
H414   H     0.88497   0.41715   0.07787   0.00000  Uiso   1.00
H415   H     0.95621   0.45483   0.35684   0.00000  Uiso   1.00
H416   H     0.66991   0.49106   0.34409   0.00000  Uiso   1.00
H417   H     0.99624   0.39439   0.32885   0.00000  Uiso   1.00
H418   H     0.71199   0.42824   0.31139   0.00000  Uiso   1.00
H419   H     0.70752   0.45710   0.39001   0.00000  Uiso   1.00
O420   O     0.83333   0.50000   0.25000   0.00000  Uiso   1.00
O421   O     0.82118   0.45970   0.15458   0.00000  Uiso   1.00
O422   O     0.79607   0.53724   0.34968   0.00000  Uiso   1.00
O423   O     0.87491   0.51092   0.14606   0.00000  Uiso   1.00
O424   O     0.84118   0.49213   0.34968   0.00000  Uiso   1.00
O425   O     0.98100   0.45800   0.28976   0.00000  Uiso   1.00
O426   O     0.81491   0.53002   0.08573   0.00000  Uiso   1.00
O427   O     0.84597   0.41352   0.28213   0.00000  Uiso   1.00
O428   O     0.81298   0.59418   0.27014   0.00000  Uiso   1.00
O429   O     0.74078   0.46625   0.23413   0.00000  Uiso   1.00
O430   O     0.93360   0.52605   0.21360   0.00000  Uiso   1.00
O431   O     0.73738   0.52211   0.28213   0.00000  Uiso   1.00
O432   O     0.92158   0.48559   0.27013   0.00000  Uiso   1.00
O433   O     0.80426   0.40277   0.23413   0.00000  Uiso   1.00
O434   O     0.87012   0.58953   0.21361   0.00000  Uiso   1.00
Zn435  Zn    0.86005   0.47327   0.28734   0.00000  Uiso   1.00
Zn436  Zn    0.80046   0.45791   0.21875   0.00000  Uiso   1.00
Zn437  Zn    0.87723   0.53109   0.20657   0.00000  Uiso   1.00
Zn438  Zn    0.79560   0.53773   0.28734   0.00000  Uiso   1.00
C439   C     0.05300   0.82653   0.25951   0.00000  Uiso   1.00
C440   C     0.17130   0.83243   0.06057   0.00000  Uiso   1.00
C441   C     0.20557   0.77065   0.06044   0.00000  Uiso   1.00
C442   C     0.28065   0.84031   0.24028   0.00000  Uiso   1.00
C443   C     0.14447   0.86182   0.41872   0.00000  Uiso   1.00
C444   C     0.32613   0.84380   0.23851   0.00000  Uiso   1.00
C445   C     0.00741   0.82236   0.26475   0.00000  Uiso   1.00
C446   C     0.18029   0.98911   0.23667   0.00000  Uiso   1.00
C447   C     0.15178   0.67840   0.26382   0.00000  Uiso   1.00
C448   C     0.15606   0.72254   0.26022   0.00000  Uiso   1.00
C449   C     0.17651   0.94451   0.24023   0.00000  Uiso   1.00
C450   C     0.14543   0.91852   0.47625   0.00000  Uiso   1.00
C451   C     0.18509   0.81461   0.12964   0.00000  Uiso   1.00
C452   C     0.14814   0.85082   0.37088   0.00000  Uiso   1.00
C453   C     0.20136   0.75793   0.01762   0.00000  Uiso   1.00
C454   C     0.18997   0.80730   0.08208   0.00000  Uiso   1.00
C455   C     0.13797   0.90300   0.43526   0.00000  Uiso   1.00
C456   C     0.32136   0.79329   0.33302   0.00000  Uiso   1.00
C457   C     0.01400   0.75855   0.33621   0.00000  Uiso   1.00
C458   C     0.02207   0.76025   0.38251   0.00000  Uiso   1.00
C459   C     0.10569   0.84624   0.10524   0.00000  Uiso   1.00
C460   C     0.07461   0.85733   0.08016   0.00000  Uiso   1.00
C461   C     0.15867   0.89309   0.00169   0.00000  Uiso   1.00
C462   C     0.02811   0.84492   0.10439   0.00000  Uiso   1.00
C463   C     0.16111   0.85020   0.48843   0.00000  Uiso   1.00
C464   C     0.15417   0.83450   0.44607   0.00000  Uiso   1.00
C465   C     0.17255   0.82288   0.01482   0.00000  Uiso   1.00
C466   C     0.18384   0.78308   0.49520   0.00000  Uiso   1.00
C467   C     0.17535   0.76777   0.45444   0.00000  Uiso   1.00
C468   C     0.15803   0.79214   0.43170   0.00000  Uiso   1.00
H469   H     0.20657   0.67034   0.21176   0.00000  Uiso   1.00
H470   H     0.04056   0.73452   0.38389   0.00000  Uiso   1.00
H471   H     0.32457   0.75665   0.40813   0.00000  Uiso   1.00
H472   H     0.12512   0.99799   0.28885   0.00000  Uiso   1.00
H473   H     0.18075   0.73624   0.44077   0.00000  Uiso   1.00
H474   H     0.09702   0.86031   0.14009   0.00000  Uiso   1.00
H475   H     0.10147   0.81170   0.10718   0.00000  Uiso   1.00
H476   H     0.07972   0.89149   0.07666   0.00000  Uiso   1.00
H477   H     0.08063   0.84066   0.04641   0.00000  Uiso   1.00
H478   H     0.02238   0.81103   0.10933   0.00000  Uiso   1.00
H479   H     0.00660   0.85165   0.08432   0.00000  Uiso   1.00
H480   H     0.21094   0.72800   0.00238   0.00000  Uiso   1.00
H481   H     0.02028   0.86309   0.13720   0.00000  Uiso   1.00
H482   H     0.16827   0.90820   0.03080   0.00000  Uiso   1.00
H483   H     0.14296   0.95108   0.48742   0.00000  Uiso   1.00
H484   H     0.14843   0.77730   0.40240   0.00000  Uiso   1.00
H485   H     0.01476   0.86526   0.21643   0.00000  Uiso   1.00
H486   H     0.13036   0.92432   0.41498   0.00000  Uiso   1.00
H487   H     0.21831   0.75049   0.07787   0.00000  Uiso   1.00
H488   H     0.28954   0.78816   0.35684   0.00000  Uiso   1.00
H489   H     0.00325   0.82440   0.34409   0.00000  Uiso   1.00
H490   H     0.32958   0.72772   0.32885   0.00000  Uiso   1.00
H491   H     0.04533   0.76158   0.31139   0.00000  Uiso   1.00
H492   H     0.04085   0.79044   0.39001   0.00000  Uiso   1.00
O493   O     0.16667   0.83333   0.25000   0.00000  Uiso   1.00
O494   O     0.15451   0.79304   0.15458   0.00000  Uiso   1.00
O495   O     0.12940   0.87058   0.34968   0.00000  Uiso   1.00
O496   O     0.20824   0.84425   0.14606   0.00000  Uiso   1.00
O497   O     0.17451   0.82546   0.34968   0.00000  Uiso   1.00
O498   O     0.31433   0.79133   0.28976   0.00000  Uiso   1.00
O499   O     0.14824   0.86335   0.08573   0.00000  Uiso   1.00
O500   O     0.17930   0.74686   0.28213   0.00000  Uiso   1.00
O501   O     0.14632   0.92751   0.27014   0.00000  Uiso   1.00
O502   O     0.07412   0.79958   0.23413   0.00000  Uiso   1.00
O503   O     0.26693   0.85939   0.21360   0.00000  Uiso   1.00
O504   O     0.07071   0.85544   0.28213   0.00000  Uiso   1.00
O505   O     0.25491   0.81892   0.27013   0.00000  Uiso   1.00
O506   O     0.13760   0.73610   0.23413   0.00000  Uiso   1.00
O507   O     0.20345   0.92286   0.21361   0.00000  Uiso   1.00
Zn508  Zn    0.19338   0.80661   0.28734   0.00000  Uiso   1.00
Zn509  Zn    0.13379   0.79124   0.21875   0.00000  Uiso   1.00
Zn510  Zn    0.21056   0.86442   0.20657   0.00000  Uiso   1.00
Zn511  Zn    0.12893   0.87106   0.28734   0.00000  Uiso   1.00
C512   C     0.38634   0.82653   0.25951   0.00000  Uiso   1.00
C513   C     0.50463   0.83243   0.06057   0.00000  Uiso   1.00
C514   C     0.53891   0.77065   0.06044   0.00000  Uiso   1.00
C515   C     0.61398   0.84031   0.24028   0.00000  Uiso   1.00
C516   C     0.47780   0.86182   0.41872   0.00000  Uiso   1.00
C517   C     0.65946   0.84380   0.23851   0.00000  Uiso   1.00
C518   C     0.34074   0.82236   0.26475   0.00000  Uiso   1.00
C519   C     0.51362   0.98911   0.23667   0.00000  Uiso   1.00
C520   C     0.48511   0.67840   0.26382   0.00000  Uiso   1.00
C521   C     0.48939   0.72254   0.26022   0.00000  Uiso   1.00
C522   C     0.50985   0.94451   0.24023   0.00000  Uiso   1.00
C523   C     0.47876   0.91852   0.47625   0.00000  Uiso   1.00
C524   C     0.51842   0.81461   0.12964   0.00000  Uiso   1.00
C525   C     0.48148   0.85082   0.37088   0.00000  Uiso   1.00
C526   C     0.53470   0.75793   0.01762   0.00000  Uiso   1.00
C527   C     0.52331   0.80730   0.08208   0.00000  Uiso   1.00
C528   C     0.47131   0.90300   0.43526   0.00000  Uiso   1.00
C529   C     0.65469   0.79329   0.33302   0.00000  Uiso   1.00
C530   C     0.34733   0.75855   0.33621   0.00000  Uiso   1.00
C531   C     0.35540   0.76025   0.38251   0.00000  Uiso   1.00
C532   C     0.43902   0.84624   0.10524   0.00000  Uiso   1.00
C533   C     0.40794   0.85733   0.08016   0.00000  Uiso   1.00
C534   C     0.49201   0.89309   0.00169   0.00000  Uiso   1.00
C535   C     0.36145   0.84492   0.10439   0.00000  Uiso   1.00
C536   C     0.49444   0.85020   0.48843   0.00000  Uiso   1.00
C537   C     0.48751   0.83450   0.44607   0.00000  Uiso   1.00
C538   C     0.50588   0.82288   0.01482   0.00000  Uiso   1.00
C539   C     0.51717   0.78308   0.49520   0.00000  Uiso   1.00
C540   C     0.50868   0.76777   0.45444   0.00000  Uiso   1.00
C541   C     0.49136   0.79214   0.43170   0.00000  Uiso   1.00
H542   H     0.53990   0.67034   0.21176   0.00000  Uiso   1.00
H543   H     0.37389   0.73452   0.38389   0.00000  Uiso   1.00
H544   H     0.65791   0.75665   0.40813   0.00000  Uiso   1.00
H545   H     0.45845   0.99799   0.28885   0.00000  Uiso   1.00
H546   H     0.51408   0.73624   0.44077   0.00000  Uiso   1.00
H547   H     0.43035   0.86031   0.14009   0.00000  Uiso   1.00
H548   H     0.43480   0.81170   0.10718   0.00000  Uiso   1.00
H549   H     0.41305   0.89149   0.07666   0.00000  Uiso   1.00
H550   H     0.41397   0.84066   0.04641   0.00000  Uiso   1.00
H551   H     0.35571   0.81103   0.10933   0.00000  Uiso   1.00
H552   H     0.33993   0.85165   0.08432   0.00000  Uiso   1.00
H553   H     0.54428   0.72800   0.00238   0.00000  Uiso   1.00
H554   H     0.35362   0.86309   0.13720   0.00000  Uiso   1.00
H555   H     0.50161   0.90820   0.03080   0.00000  Uiso   1.00
H556   H     0.47629   0.95108   0.48742   0.00000  Uiso   1.00
H557   H     0.48177   0.77730   0.40240   0.00000  Uiso   1.00
H558   H     0.34809   0.86526   0.21643   0.00000  Uiso   1.00
H559   H     0.46369   0.92432   0.41498   0.00000  Uiso   1.00
H560   H     0.55164   0.75049   0.07787   0.00000  Uiso   1.00
H561   H     0.62288   0.78816   0.35684   0.00000  Uiso   1.00
H562   H     0.33658   0.82440   0.34409   0.00000  Uiso   1.00
H563   H     0.66291   0.72772   0.32885   0.00000  Uiso   1.00
H564   H     0.37866   0.76158   0.31139   0.00000  Uiso   1.00
H565   H     0.37418   0.79044   0.39001   0.00000  Uiso   1.00
O566   O     0.50000   0.83333   0.25000   0.00000  Uiso   1.00
O567   O     0.48784   0.79304   0.15458   0.00000  Uiso   1.00
O568   O     0.46274   0.87058   0.34968   0.00000  Uiso   1.00
O569   O     0.54157   0.84425   0.14606   0.00000  Uiso   1.00
O570   O     0.50785   0.82546   0.34968   0.00000  Uiso   1.00
O571   O     0.64767   0.79133   0.28976   0.00000  Uiso   1.00
O572   O     0.48158   0.86335   0.08573   0.00000  Uiso   1.00
O573   O     0.51264   0.74686   0.28213   0.00000  Uiso   1.00
O574   O     0.47965   0.92751   0.27014   0.00000  Uiso   1.00
O575   O     0.40745   0.79958   0.23413   0.00000  Uiso   1.00
O576   O     0.60026   0.85939   0.21360   0.00000  Uiso   1.00
O577   O     0.40405   0.85544   0.28213   0.00000  Uiso   1.00
O578   O     0.58824   0.81892   0.27013   0.00000  Uiso   1.00
O579   O     0.47093   0.73610   0.23413   0.00000  Uiso   1.00
O580   O     0.53678   0.92286   0.21361   0.00000  Uiso   1.00
Zn581  Zn    0.52672   0.80661   0.28734   0.00000  Uiso   1.00
Zn582  Zn    0.46713   0.79124   0.21875   0.00000  Uiso   1.00
Zn583  Zn    0.54389   0.86442   0.20657   0.00000  Uiso   1.00
Zn584  Zn    0.46226   0.87106   0.28734   0.00000  Uiso   1.00
C585   C     0.71967   0.82653   0.25951   0.00000  Uiso   1.00
C586   C     0.83796   0.83243   0.06057   0.00000  Uiso   1.00
C587   C     0.87224   0.77065   0.06044   0.00000  Uiso   1.00
C588   C     0.94731   0.84031   0.24028   0.00000  Uiso   1.00
C589   C     0.81114   0.86182   0.41872   0.00000  Uiso   1.00
C590   C     0.99279   0.84380   0.23851   0.00000  Uiso   1.00
C591   C     0.67408   0.82236   0.26475   0.00000  Uiso   1.00
C592   C     0.84696   0.98911   0.23667   0.00000  Uiso   1.00
C593   C     0.81845   0.67840   0.26382   0.00000  Uiso   1.00
C594   C     0.82272   0.72254   0.26022   0.00000  Uiso   1.00
C595   C     0.84318   0.94451   0.24023   0.00000  Uiso   1.00
C596   C     0.81209   0.91852   0.47625   0.00000  Uiso   1.00
C597   C     0.85176   0.81461   0.12964   0.00000  Uiso   1.00
C598   C     0.81481   0.85082   0.37088   0.00000  Uiso   1.00
C599   C     0.86803   0.75793   0.01762   0.00000  Uiso   1.00
C600   C     0.85664   0.80730   0.08208   0.00000  Uiso   1.00
C601   C     0.80464   0.90300   0.43526   0.00000  Uiso   1.00
C602   C     0.98803   0.79329   0.33302   0.00000  Uiso   1.00
C603   C     0.68066   0.75855   0.33621   0.00000  Uiso   1.00
C604   C     0.68874   0.76025   0.38251   0.00000  Uiso   1.00
C605   C     0.77236   0.84624   0.10524   0.00000  Uiso   1.00
C606   C     0.74127   0.85733   0.08016   0.00000  Uiso   1.00
C607   C     0.82534   0.89309   0.00169   0.00000  Uiso   1.00
C608   C     0.69478   0.84492   0.10439   0.00000  Uiso   1.00
C609   C     0.82778   0.85020   0.48843   0.00000  Uiso   1.00
C610   C     0.82084   0.83450   0.44607   0.00000  Uiso   1.00
C611   C     0.83922   0.82288   0.01482   0.00000  Uiso   1.00
C612   C     0.85051   0.78308   0.49520   0.00000  Uiso   1.00
C613   C     0.84201   0.76777   0.45444   0.00000  Uiso   1.00
C614   C     0.82469   0.79214   0.43170   0.00000  Uiso   1.00
H615   H     0.87324   0.67034   0.21176   0.00000  Uiso   1.00
H616   H     0.70722   0.73452   0.38389   0.00000  Uiso   1.00
H617   H     0.99124   0.75665   0.40813   0.00000  Uiso   1.00
H618   H     0.79178   0.99799   0.28885   0.00000  Uiso   1.00
H619   H     0.84741   0.73624   0.44077   0.00000  Uiso   1.00
H620   H     0.76369   0.86031   0.14009   0.00000  Uiso   1.00
H621   H     0.76814   0.81170   0.10718   0.00000  Uiso   1.00
H622   H     0.74639   0.89149   0.07666   0.00000  Uiso   1.00
H623   H     0.74730   0.84066   0.04641   0.00000  Uiso   1.00
H624   H     0.68904   0.81103   0.10933   0.00000  Uiso   1.00
H625   H     0.67327   0.85165   0.08432   0.00000  Uiso   1.00
H626   H     0.87761   0.72800   0.00238   0.00000  Uiso   1.00
H627   H     0.68695   0.86309   0.13720   0.00000  Uiso   1.00
H628   H     0.83494   0.90820   0.03080   0.00000  Uiso   1.00
H629   H     0.80963   0.95108   0.48742   0.00000  Uiso   1.00
H630   H     0.81510   0.77730   0.40240   0.00000  Uiso   1.00
H631   H     0.68143   0.86526   0.21643   0.00000  Uiso   1.00
H632   H     0.79703   0.92432   0.41498   0.00000  Uiso   1.00
H633   H     0.88497   0.75049   0.07787   0.00000  Uiso   1.00
H634   H     0.95621   0.78816   0.35684   0.00000  Uiso   1.00
H635   H     0.66991   0.82440   0.34409   0.00000  Uiso   1.00
H636   H     0.99624   0.72772   0.32885   0.00000  Uiso   1.00
H637   H     0.71199   0.76158   0.31139   0.00000  Uiso   1.00
H638   H     0.70752   0.79044   0.39001   0.00000  Uiso   1.00
O639   O     0.83333   0.83333   0.25000   0.00000  Uiso   1.00
O640   O     0.82118   0.79304   0.15458   0.00000  Uiso   1.00
O641   O     0.79607   0.87058   0.34968   0.00000  Uiso   1.00
O642   O     0.87491   0.84425   0.14606   0.00000  Uiso   1.00
O643   O     0.84118   0.82546   0.34968   0.00000  Uiso   1.00
O644   O     0.98100   0.79133   0.28976   0.00000  Uiso   1.00
O645   O     0.81491   0.86335   0.08573   0.00000  Uiso   1.00
O646   O     0.84597   0.74686   0.28213   0.00000  Uiso   1.00
O647   O     0.81298   0.92751   0.27014   0.00000  Uiso   1.00
O648   O     0.74078   0.79958   0.23413   0.00000  Uiso   1.00
O649   O     0.93360   0.85939   0.21360   0.00000  Uiso   1.00
O650   O     0.73738   0.85544   0.28213   0.00000  Uiso   1.00
O651   O     0.92158   0.81892   0.27013   0.00000  Uiso   1.00
O652   O     0.80426   0.73610   0.23413   0.00000  Uiso   1.00
O653   O     0.87012   0.92286   0.21361   0.00000  Uiso   1.00
Zn654  Zn    0.86005   0.80661   0.28734   0.00000  Uiso   1.00
Zn655  Zn    0.80046   0.79124   0.21875   0.00000  Uiso   1.00
Zn656  Zn    0.87723   0.86442   0.20657   0.00000  Uiso   1.00
Zn657  Zn    0.79560   0.87106   0.28734   0.00000  Uiso   1.00
C658   C     0.05300   0.15986   0.75951   0.00000  Uiso   1.00
C659   C     0.17130   0.16576   0.56057   0.00000  Uiso   1.00
C660   C     0.20557   0.10398   0.56044   0.00000  Uiso   1.00
C661   C     0.28065   0.17364   0.74028   0.00000  Uiso   1.00
C662   C     0.14447   0.19516   0.91872   0.00000  Uiso   1.00
C663   C     0.32613   0.17714   0.73851   0.00000  Uiso   1.00
C664   C     0.00741   0.15569   0.76475   0.00000  Uiso   1.00
C665   C     0.18029   0.32244   0.73667   0.00000  Uiso   1.00
C666   C     0.15178   0.01173   0.76382   0.00000  Uiso   1.00
C667   C     0.15606   0.05587   0.76022   0.00000  Uiso   1.00
C668   C     0.17651   0.27784   0.74023   0.00000  Uiso   1.00
C669   C     0.14543   0.25185   0.97625   0.00000  Uiso   1.00
C670   C     0.18509   0.14794   0.62964   0.00000  Uiso   1.00
C671   C     0.14814   0.18416   0.87088   0.00000  Uiso   1.00
C672   C     0.20136   0.09127   0.51762   0.00000  Uiso   1.00
C673   C     0.18997   0.14063   0.58208   0.00000  Uiso   1.00
C674   C     0.13797   0.23633   0.93526   0.00000  Uiso   1.00
C675   C     0.32136   0.12663   0.83302   0.00000  Uiso   1.00
C676   C     0.01400   0.09189   0.83621   0.00000  Uiso   1.00
C677   C     0.02207   0.09359   0.88251   0.00000  Uiso   1.00
C678   C     0.10569   0.17958   0.60524   0.00000  Uiso   1.00
C679   C     0.07461   0.19067   0.58016   0.00000  Uiso   1.00
C680   C     0.15867   0.22643   0.50169   0.00000  Uiso   1.00
C681   C     0.02811   0.17825   0.60439   0.00000  Uiso   1.00
C682   C     0.16111   0.18353   0.98843   0.00000  Uiso   1.00
C683   C     0.15417   0.16784   0.94607   0.00000  Uiso   1.00
C684   C     0.17255   0.15621   0.51482   0.00000  Uiso   1.00
C685   C     0.18384   0.11642   0.99520   0.00000  Uiso   1.00
C686   C     0.17535   0.10110   0.95444   0.00000  Uiso   1.00
C687   C     0.15803   0.12547   0.93170   0.00000  Uiso   1.00
H688   H     0.20657   0.00367   0.71176   0.00000  Uiso   1.00
H689   H     0.04056   0.06785   0.88389   0.00000  Uiso   1.00
H690   H     0.32457   0.08998   0.90813   0.00000  Uiso   1.00
H691   H     0.12512   0.33132   0.78885   0.00000  Uiso   1.00
H692   H     0.18075   0.06957   0.94077   0.00000  Uiso   1.00
H693   H     0.09702   0.19365   0.64009   0.00000  Uiso   1.00
H694   H     0.10147   0.14503   0.60718   0.00000  Uiso   1.00
H695   H     0.07972   0.22483   0.57666   0.00000  Uiso   1.00
H696   H     0.08063   0.17399   0.54641   0.00000  Uiso   1.00
H697   H     0.02238   0.14437   0.60933   0.00000  Uiso   1.00
H698   H     0.00660   0.18498   0.58432   0.00000  Uiso   1.00
H699   H     0.21094   0.06134   0.50238   0.00000  Uiso   1.00
H700   H     0.02028   0.19643   0.63720   0.00000  Uiso   1.00
H701   H     0.16827   0.24154   0.53080   0.00000  Uiso   1.00
H702   H     0.14296   0.28441   0.98742   0.00000  Uiso   1.00
H703   H     0.14843   0.11064   0.90240   0.00000  Uiso   1.00
H704   H     0.01476   0.19860   0.71643   0.00000  Uiso   1.00
H705   H     0.13036   0.25766   0.91498   0.00000  Uiso   1.00
H706   H     0.21831   0.08382   0.57787   0.00000  Uiso   1.00
H707   H     0.28954   0.12149   0.85684   0.00000  Uiso   1.00
H708   H     0.00325   0.15773   0.84409   0.00000  Uiso   1.00
H709   H     0.32958   0.06106   0.82885   0.00000  Uiso   1.00
H710   H     0.04533   0.09491   0.81139   0.00000  Uiso   1.00
H711   H     0.04085   0.12377   0.89001   0.00000  Uiso   1.00
O712   O     0.16667   0.16667   0.75000   0.00000  Uiso   1.00
O713   O     0.15451   0.12637   0.65458   0.00000  Uiso   1.00
O714   O     0.12940   0.20391   0.84968   0.00000  Uiso   1.00
O715   O     0.20824   0.17759   0.64606   0.00000  Uiso   1.00
O716   O     0.17451   0.15880   0.84968   0.00000  Uiso   1.00
O717   O     0.31433   0.12466   0.78976   0.00000  Uiso   1.00
O718   O     0.14824   0.19669   0.58573   0.00000  Uiso   1.00
O719   O     0.17930   0.08019   0.78213   0.00000  Uiso   1.00
O720   O     0.14632   0.26085   0.77014   0.00000  Uiso   1.00
O721   O     0.07412   0.13291   0.73413   0.00000  Uiso   1.00
O722   O     0.26693   0.19272   0.71360   0.00000  Uiso   1.00
O723   O     0.07071   0.18878   0.78213   0.00000  Uiso   1.00
O724   O     0.25491   0.15226   0.77013   0.00000  Uiso   1.00
O725   O     0.13760   0.06944   0.73413   0.00000  Uiso   1.00
O726   O     0.20345   0.25620   0.71361   0.00000  Uiso   1.00
Zn727  Zn    0.19338   0.13994   0.78734   0.00000  Uiso   1.00
Zn728  Zn    0.13379   0.12458   0.71875   0.00000  Uiso   1.00
Zn729  Zn    0.21056   0.19775   0.70657   0.00000  Uiso   1.00
Zn730  Zn    0.12893   0.20439   0.78734   0.00000  Uiso   1.00
C731   C     0.38634   0.15986   0.75951   0.00000  Uiso   1.00
C732   C     0.50463   0.16576   0.56057   0.00000  Uiso   1.00
C733   C     0.53891   0.10398   0.56044   0.00000  Uiso   1.00
C734   C     0.61398   0.17364   0.74028   0.00000  Uiso   1.00
C735   C     0.47780   0.19516   0.91872   0.00000  Uiso   1.00
C736   C     0.65946   0.17714   0.73851   0.00000  Uiso   1.00
C737   C     0.34074   0.15569   0.76475   0.00000  Uiso   1.00
C738   C     0.51362   0.32244   0.73667   0.00000  Uiso   1.00
C739   C     0.48511   0.01173   0.76382   0.00000  Uiso   1.00
C740   C     0.48939   0.05587   0.76022   0.00000  Uiso   1.00
C741   C     0.50985   0.27784   0.74023   0.00000  Uiso   1.00
C742   C     0.47876   0.25185   0.97625   0.00000  Uiso   1.00
C743   C     0.51842   0.14794   0.62964   0.00000  Uiso   1.00
C744   C     0.48148   0.18416   0.87088   0.00000  Uiso   1.00
C745   C     0.53470   0.09127   0.51762   0.00000  Uiso   1.00
C746   C     0.52331   0.14063   0.58208   0.00000  Uiso   1.00
C747   C     0.47131   0.23633   0.93526   0.00000  Uiso   1.00
C748   C     0.65469   0.12663   0.83302   0.00000  Uiso   1.00
C749   C     0.34733   0.09189   0.83621   0.00000  Uiso   1.00
C750   C     0.35540   0.09359   0.88251   0.00000  Uiso   1.00
C751   C     0.43902   0.17958   0.60524   0.00000  Uiso   1.00
C752   C     0.40794   0.19067   0.58016   0.00000  Uiso   1.00
C753   C     0.49201   0.22643   0.50169   0.00000  Uiso   1.00
C754   C     0.36145   0.17825   0.60439   0.00000  Uiso   1.00
C755   C     0.49444   0.18353   0.98843   0.00000  Uiso   1.00
C756   C     0.48751   0.16784   0.94607   0.00000  Uiso   1.00
C757   C     0.50588   0.15621   0.51482   0.00000  Uiso   1.00
C758   C     0.51717   0.11642   0.99520   0.00000  Uiso   1.00
C759   C     0.50868   0.10110   0.95444   0.00000  Uiso   1.00
C760   C     0.49136   0.12547   0.93170   0.00000  Uiso   1.00
H761   H     0.53990   0.00367   0.71176   0.00000  Uiso   1.00
H762   H     0.37389   0.06785   0.88389   0.00000  Uiso   1.00
H763   H     0.65791   0.08998   0.90813   0.00000  Uiso   1.00
H764   H     0.45845   0.33132   0.78885   0.00000  Uiso   1.00
H765   H     0.51408   0.06957   0.94077   0.00000  Uiso   1.00
H766   H     0.43035   0.19365   0.64009   0.00000  Uiso   1.00
H767   H     0.43480   0.14503   0.60718   0.00000  Uiso   1.00
H768   H     0.41305   0.22483   0.57666   0.00000  Uiso   1.00
H769   H     0.41397   0.17399   0.54641   0.00000  Uiso   1.00
H770   H     0.35571   0.14437   0.60933   0.00000  Uiso   1.00
H771   H     0.33993   0.18498   0.58432   0.00000  Uiso   1.00
H772   H     0.54428   0.06134   0.50238   0.00000  Uiso   1.00
H773   H     0.35362   0.19643   0.63720   0.00000  Uiso   1.00
H774   H     0.50161   0.24154   0.53080   0.00000  Uiso   1.00
H775   H     0.47629   0.28441   0.98742   0.00000  Uiso   1.00
H776   H     0.48177   0.11064   0.90240   0.00000  Uiso   1.00
H777   H     0.34809   0.19860   0.71643   0.00000  Uiso   1.00
H778   H     0.46369   0.25766   0.91498   0.00000  Uiso   1.00
H779   H     0.55164   0.08382   0.57787   0.00000  Uiso   1.00
H780   H     0.62288   0.12149   0.85684   0.00000  Uiso   1.00
H781   H     0.33658   0.15773   0.84409   0.00000  Uiso   1.00
H782   H     0.66291   0.06106   0.82885   0.00000  Uiso   1.00
H783   H     0.37866   0.09491   0.81139   0.00000  Uiso   1.00
H784   H     0.37418   0.12377   0.89001   0.00000  Uiso   1.00
O785   O     0.50000   0.16667   0.75000   0.00000  Uiso   1.00
O786   O     0.48784   0.12637   0.65458   0.00000  Uiso   1.00
O787   O     0.46274   0.20391   0.84968   0.00000  Uiso   1.00
O788   O     0.54157   0.17759   0.64606   0.00000  Uiso   1.00
O789   O     0.50785   0.15880   0.84968   0.00000  Uiso   1.00
O790   O     0.64767   0.12466   0.78976   0.00000  Uiso   1.00
O791   O     0.48158   0.19669   0.58573   0.00000  Uiso   1.00
O792   O     0.51264   0.08019   0.78213   0.00000  Uiso   1.00
O793   O     0.47965   0.26085   0.77014   0.00000  Uiso   1.00
O794   O     0.40745   0.13291   0.73413   0.00000  Uiso   1.00
O795   O     0.60026   0.19272   0.71360   0.00000  Uiso   1.00
O796   O     0.40405   0.18878   0.78213   0.00000  Uiso   1.00
O797   O     0.58824   0.15226   0.77013   0.00000  Uiso   1.00
O798   O     0.47093   0.06944   0.73413   0.00000  Uiso   1.00
O799   O     0.53678   0.25620   0.71361   0.00000  Uiso   1.00
Zn800  Zn    0.52672   0.13994   0.78734   0.00000  Uiso   1.00
Zn801  Zn    0.46713   0.12458   0.71875   0.00000  Uiso   1.00
Zn802  Zn    0.54389   0.19775   0.70657   0.00000  Uiso   1.00
Zn803  Zn    0.46226   0.20439   0.78734   0.00000  Uiso   1.00
C804   C     0.71967   0.15986   0.75951   0.00000  Uiso   1.00
C805   C     0.83796   0.16576   0.56057   0.00000  Uiso   1.00
C806   C     0.87224   0.10398   0.56044   0.00000  Uiso   1.00
C807   C     0.94731   0.17364   0.74028   0.00000  Uiso   1.00
C808   C     0.81114   0.19516   0.91872   0.00000  Uiso   1.00
C809   C     0.99279   0.17714   0.73851   0.00000  Uiso   1.00
C810   C     0.67408   0.15569   0.76475   0.00000  Uiso   1.00
C811   C     0.84696   0.32244   0.73667   0.00000  Uiso   1.00
C812   C     0.81845   0.01173   0.76382   0.00000  Uiso   1.00
C813   C     0.82272   0.05587   0.76022   0.00000  Uiso   1.00
C814   C     0.84318   0.27784   0.74023   0.00000  Uiso   1.00
C815   C     0.81209   0.25185   0.97625   0.00000  Uiso   1.00
C816   C     0.85176   0.14794   0.62964   0.00000  Uiso   1.00
C817   C     0.81481   0.18416   0.87088   0.00000  Uiso   1.00
C818   C     0.86803   0.09127   0.51762   0.00000  Uiso   1.00
C819   C     0.85664   0.14063   0.58208   0.00000  Uiso   1.00
C820   C     0.80464   0.23633   0.93526   0.00000  Uiso   1.00
C821   C     0.98803   0.12663   0.83302   0.00000  Uiso   1.00
C822   C     0.68066   0.09189   0.83621   0.00000  Uiso   1.00
C823   C     0.68874   0.09359   0.88251   0.00000  Uiso   1.00
C824   C     0.77236   0.17958   0.60524   0.00000  Uiso   1.00
C825   C     0.74127   0.19067   0.58016   0.00000  Uiso   1.00
C826   C     0.82534   0.22643   0.50169   0.00000  Uiso   1.00
C827   C     0.69478   0.17825   0.60439   0.00000  Uiso   1.00
C828   C     0.82778   0.18353   0.98843   0.00000  Uiso   1.00
C829   C     0.82084   0.16784   0.94607   0.00000  Uiso   1.00
C830   C     0.83922   0.15621   0.51482   0.00000  Uiso   1.00
C831   C     0.85051   0.11642   0.99520   0.00000  Uiso   1.00
C832   C     0.84201   0.10110   0.95444   0.00000  Uiso   1.00
C833   C     0.82469   0.12547   0.93170   0.00000  Uiso   1.00
H834   H     0.87324   0.00367   0.71176   0.00000  Uiso   1.00
H835   H     0.70722   0.06785   0.88389   0.00000  Uiso   1.00
H836   H     0.99124   0.08998   0.90813   0.00000  Uiso   1.00
H837   H     0.79178   0.33132   0.78885   0.00000  Uiso   1.00
H838   H     0.84741   0.06957   0.94077   0.00000  Uiso   1.00
H839   H     0.76369   0.19365   0.64009   0.00000  Uiso   1.00
H840   H     0.76814   0.14503   0.60718   0.00000  Uiso   1.00
H841   H     0.74639   0.22483   0.57666   0.00000  Uiso   1.00
H842   H     0.74730   0.17399   0.54641   0.00000  Uiso   1.00
H843   H     0.68904   0.14437   0.60933   0.00000  Uiso   1.00
H844   H     0.67327   0.18498   0.58432   0.00000  Uiso   1.00
H845   H     0.87761   0.06134   0.50238   0.00000  Uiso   1.00
H846   H     0.68695   0.19643   0.63720   0.00000  Uiso   1.00
H847   H     0.83494   0.24154   0.53080   0.00000  Uiso   1.00
H848   H     0.80963   0.28441   0.98742   0.00000  Uiso   1.00
H849   H     0.81510   0.11064   0.90240   0.00000  Uiso   1.00
H850   H     0.68143   0.19860   0.71643   0.00000  Uiso   1.00
H851   H     0.79703   0.25766   0.91498   0.00000  Uiso   1.00
H852   H     0.88497   0.08382   0.57787   0.00000  Uiso   1.00
H853   H     0.95621   0.12149   0.85684   0.00000  Uiso   1.00
H854   H     0.66991   0.15773   0.84409   0.00000  Uiso   1.00
H855   H     0.99624   0.06106   0.82885   0.00000  Uiso   1.00
H856   H     0.71199   0.09491   0.81139   0.00000  Uiso   1.00
H857   H     0.70752   0.12377   0.89001   0.00000  Uiso   1.00
O858   O     0.83333   0.16667   0.75000   0.00000  Uiso   1.00
O859   O     0.82118   0.12637   0.65458   0.00000  Uiso   1.00
O860   O     0.79607   0.20391   0.84968   0.00000  Uiso   1.00
O861   O     0.87491   0.17759   0.64606   0.00000  Uiso   1.00
O862   O     0.84118   0.15880   0.84968   0.00000  Uiso   1.00
O863   O     0.98100   0.12466   0.78976   0.00000  Uiso   1.00
O864   O     0.81491   0.19669   0.58573   0.00000  Uiso   1.00
O865   O     0.84597   0.08019   0.78213   0.00000  Uiso   1.00
O866   O     0.81298   0.26085   0.77014   0.00000  Uiso   1.00
O867   O     0.74078   0.13291   0.73413   0.00000  Uiso   1.00
O868   O     0.93360   0.19272   0.71360   0.00000  Uiso   1.00
O869   O     0.73738   0.18878   0.78213   0.00000  Uiso   1.00
O870   O     0.92158   0.15226   0.77013   0.00000  Uiso   1.00
O871   O     0.80426   0.06944   0.73413   0.00000  Uiso   1.00
O872   O     0.87012   0.25620   0.71361   0.00000  Uiso   1.00
Zn873  Zn    0.86005   0.13994   0.78734   0.00000  Uiso   1.00
Zn874  Zn    0.80046   0.12458   0.71875   0.00000  Uiso   1.00
Zn875  Zn    0.87723   0.19775   0.70657   0.00000  Uiso   1.00
Zn876  Zn    0.79560   0.20439   0.78734   0.00000  Uiso   1.00
C877   C     0.05300   0.49320   0.75951   0.00000  Uiso   1.00
C878   C     0.17130   0.49910   0.56057   0.00000  Uiso   1.00
C879   C     0.20557   0.43732   0.56044   0.00000  Uiso   1.00
C880   C     0.28065   0.50697   0.74028   0.00000  Uiso   1.00
C881   C     0.14447   0.52849   0.91872   0.00000  Uiso   1.00
C882   C     0.32613   0.51047   0.73851   0.00000  Uiso   1.00
C883   C     0.00741   0.48903   0.76475   0.00000  Uiso   1.00
C884   C     0.18029   0.65578   0.73667   0.00000  Uiso   1.00
C885   C     0.15178   0.34507   0.76382   0.00000  Uiso   1.00
C886   C     0.15606   0.38921   0.76022   0.00000  Uiso   1.00
C887   C     0.17651   0.61118   0.74023   0.00000  Uiso   1.00
C888   C     0.14543   0.58518   0.97625   0.00000  Uiso   1.00
C889   C     0.18509   0.48127   0.62964   0.00000  Uiso   1.00
C890   C     0.14814   0.51749   0.87088   0.00000  Uiso   1.00
C891   C     0.20136   0.42460   0.51762   0.00000  Uiso   1.00
C892   C     0.18997   0.47396   0.58208   0.00000  Uiso   1.00
C893   C     0.13797   0.56966   0.93526   0.00000  Uiso   1.00
C894   C     0.32136   0.45996   0.83302   0.00000  Uiso   1.00
C895   C     0.01400   0.42522   0.83621   0.00000  Uiso   1.00
C896   C     0.02207   0.42692   0.88251   0.00000  Uiso   1.00
C897   C     0.10569   0.51291   0.60524   0.00000  Uiso   1.00
C898   C     0.07461   0.52400   0.58016   0.00000  Uiso   1.00
C899   C     0.15867   0.55976   0.50169   0.00000  Uiso   1.00
C900   C     0.02811   0.51158   0.60439   0.00000  Uiso   1.00
C901   C     0.16111   0.51686   0.98843   0.00000  Uiso   1.00
C902   C     0.15417   0.50117   0.94607   0.00000  Uiso   1.00
C903   C     0.17255   0.48955   0.51482   0.00000  Uiso   1.00
C904   C     0.18384   0.44975   0.99520   0.00000  Uiso   1.00
C905   C     0.17535   0.43444   0.95444   0.00000  Uiso   1.00
C906   C     0.15803   0.45880   0.93170   0.00000  Uiso   1.00
H907   H     0.20657   0.33701   0.71176   0.00000  Uiso   1.00
H908   H     0.04056   0.40119   0.88389   0.00000  Uiso   1.00
H909   H     0.32457   0.42331   0.90813   0.00000  Uiso   1.00
H910   H     0.12512   0.66465   0.78885   0.00000  Uiso   1.00
H911   H     0.18075   0.40291   0.94077   0.00000  Uiso   1.00
H912   H     0.09702   0.52698   0.64009   0.00000  Uiso   1.00
H913   H     0.10147   0.47836   0.60718   0.00000  Uiso   1.00
H914   H     0.07972   0.55816   0.57666   0.00000  Uiso   1.00
H915   H     0.08063   0.50733   0.54641   0.00000  Uiso   1.00
H916   H     0.02238   0.47770   0.60933   0.00000  Uiso   1.00
H917   H     0.00660   0.51832   0.58432   0.00000  Uiso   1.00
H918   H     0.21094   0.39467   0.50238   0.00000  Uiso   1.00
H919   H     0.02028   0.52976   0.63720   0.00000  Uiso   1.00
H920   H     0.16827   0.57487   0.53080   0.00000  Uiso   1.00
H921   H     0.14296   0.61774   0.98742   0.00000  Uiso   1.00
H922   H     0.14843   0.44397   0.90240   0.00000  Uiso   1.00
H923   H     0.01476   0.53193   0.71643   0.00000  Uiso   1.00
H924   H     0.13036   0.59099   0.91498   0.00000  Uiso   1.00
H925   H     0.21831   0.41715   0.57787   0.00000  Uiso   1.00
H926   H     0.28954   0.45483   0.85684   0.00000  Uiso   1.00
H927   H     0.00325   0.49106   0.84409   0.00000  Uiso   1.00
H928   H     0.32958   0.39439   0.82885   0.00000  Uiso   1.00
H929   H     0.04533   0.42824   0.81139   0.00000  Uiso   1.00
H930   H     0.04085   0.45710   0.89001   0.00000  Uiso   1.00
O931   O     0.16667   0.50000   0.75000   0.00000  Uiso   1.00
O932   O     0.15451   0.45970   0.65458   0.00000  Uiso   1.00
O933   O     0.12940   0.53724   0.84968   0.00000  Uiso   1.00
O934   O     0.20824   0.51092   0.64606   0.00000  Uiso   1.00
O935   O     0.17451   0.49213   0.84968   0.00000  Uiso   1.00
O936   O     0.31433   0.45800   0.78976   0.00000  Uiso   1.00
O937   O     0.14824   0.53002   0.58573   0.00000  Uiso   1.00
O938   O     0.17930   0.41352   0.78213   0.00000  Uiso   1.00
O939   O     0.14632   0.59418   0.77014   0.00000  Uiso   1.00
O940   O     0.07412   0.46625   0.73413   0.00000  Uiso   1.00
O941   O     0.26693   0.52605   0.71360   0.00000  Uiso   1.00
O942   O     0.07071   0.52211   0.78213   0.00000  Uiso   1.00
O943   O     0.25491   0.48559   0.77013   0.00000  Uiso   1.00
O944   O     0.13760   0.40277   0.73413   0.00000  Uiso   1.00
O945   O     0.20345   0.58953   0.71361   0.00000  Uiso   1.00
Zn946  Zn    0.19338   0.47327   0.78734   0.00000  Uiso   1.00
Zn947  Zn    0.13379   0.45791   0.71875   0.00000  Uiso   1.00
Zn948  Zn    0.21056   0.53109   0.70657   0.00000  Uiso   1.00
Zn949  Zn    0.12893   0.53773   0.78734   0.00000  Uiso   1.00
C950   C     0.38634   0.49320   0.75951   0.00000  Uiso   1.00
C951   C     0.50463   0.49910   0.56057   0.00000  Uiso   1.00
C952   C     0.53891   0.43732   0.56044   0.00000  Uiso   1.00
C953   C     0.61398   0.50697   0.74028   0.00000  Uiso   1.00
C954   C     0.47780   0.52849   0.91872   0.00000  Uiso   1.00
C955   C     0.65946   0.51047   0.73851   0.00000  Uiso   1.00
C956   C     0.34074   0.48903   0.76475   0.00000  Uiso   1.00
C957   C     0.51362   0.65578   0.73667   0.00000  Uiso   1.00
C958   C     0.48511   0.34507   0.76382   0.00000  Uiso   1.00
C959   C     0.48939   0.38921   0.76022   0.00000  Uiso   1.00
C960   C     0.50985   0.61118   0.74023   0.00000  Uiso   1.00
C961   C     0.47876   0.58518   0.97625   0.00000  Uiso   1.00
C962   C     0.51842   0.48127   0.62964   0.00000  Uiso   1.00
C963   C     0.48148   0.51749   0.87088   0.00000  Uiso   1.00
C964   C     0.53470   0.42460   0.51762   0.00000  Uiso   1.00
C965   C     0.52331   0.47396   0.58208   0.00000  Uiso   1.00
C966   C     0.47131   0.56966   0.93526   0.00000  Uiso   1.00
C967   C     0.65469   0.45996   0.83302   0.00000  Uiso   1.00
C968   C     0.34733   0.42522   0.83621   0.00000  Uiso   1.00
C969   C     0.35540   0.42692   0.88251   0.00000  Uiso   1.00
C970   C     0.43902   0.51291   0.60524   0.00000  Uiso   1.00
C971   C     0.40794   0.52400   0.58016   0.00000  Uiso   1.00
C972   C     0.49201   0.55976   0.50169   0.00000  Uiso   1.00
C973   C     0.36145   0.51158   0.60439   0.00000  Uiso   1.00
C974   C     0.49444   0.51686   0.98843   0.00000  Uiso   1.00
C975   C     0.48751   0.50117   0.94607   0.00000  Uiso   1.00
C976   C     0.50588   0.48955   0.51482   0.00000  Uiso   1.00
C977   C     0.51717   0.44975   0.99520   0.00000  Uiso   1.00
C978   C     0.50868   0.43444   0.95444   0.00000  Uiso   1.00
C979   C     0.49136   0.45880   0.93170   0.00000  Uiso   1.00
H980   H     0.53990   0.33701   0.71176   0.00000  Uiso   1.00
H981   H     0.37389   0.40119   0.88389   0.00000  Uiso   1.00
H982   H     0.65791   0.42331   0.90813   0.00000  Uiso   1.00
H983   H     0.45845   0.66465   0.78885   0.00000  Uiso   1.00
H984   H     0.51408   0.40291   0.94077   0.00000  Uiso   1.00
H985   H     0.43035   0.52698   0.64009   0.00000  Uiso   1.00
H986   H     0.43480   0.47836   0.60718   0.00000  Uiso   1.00
H987   H     0.41305   0.55816   0.57666   0.00000  Uiso   1.00
H988   H     0.41397   0.50733   0.54641   0.00000  Uiso   1.00
H989   H     0.35571   0.47770   0.60933   0.00000  Uiso   1.00
H990   H     0.33993   0.51832   0.58432   0.00000  Uiso   1.00
H991   H     0.54428   0.39467   0.50238   0.00000  Uiso   1.00
H992   H     0.35362   0.52976   0.63720   0.00000  Uiso   1.00
H993   H     0.50161   0.57487   0.53080   0.00000  Uiso   1.00
H994   H     0.47629   0.61774   0.98742   0.00000  Uiso   1.00
H995   H     0.48177   0.44397   0.90240   0.00000  Uiso   1.00
H996   H     0.34809   0.53193   0.71643   0.00000  Uiso   1.00
H997   H     0.46369   0.59099   0.91498   0.00000  Uiso   1.00
H998   H     0.55164   0.41715   0.57787   0.00000  Uiso   1.00
H999   H     0.62288   0.45483   0.85684   0.00000  Uiso   1.00
H1000  H     0.33658   0.49106   0.84409   0.00000  Uiso   1.00
H1001  H     0.66291   0.39439   0.82885   0.00000  Uiso   1.00
H1002  H     0.37866   0.42824   0.81139   0.00000  Uiso   1.00
H1003  H     0.37418   0.45710   0.89001   0.00000  Uiso   1.00
O1004  O     0.50000   0.50000   0.75000   0.00000  Uiso   1.00
O1005  O     0.48784   0.45970   0.65458   0.00000  Uiso   1.00
O1006  O     0.46274   0.53724   0.84968   0.00000  Uiso   1.00
O1007  O     0.54157   0.51092   0.64606   0.00000  Uiso   1.00
O1008  O     0.50785   0.49213   0.84968   0.00000  Uiso   1.00
O1009  O     0.64767   0.45800   0.78976   0.00000  Uiso   1.00
O1010  O     0.48158   0.53002   0.58573   0.00000  Uiso   1.00
O1011  O     0.51264   0.41352   0.78213   0.00000  Uiso   1.00
O1012  O     0.47965   0.59418   0.77014   0.00000  Uiso   1.00
O1013  O     0.40745   0.46625   0.73413   0.00000  Uiso   1.00
O1014  O     0.60026   0.52605   0.71360   0.00000  Uiso   1.00
O1015  O     0.40405   0.52211   0.78213   0.00000  Uiso   1.00
O1016  O     0.58824   0.48559   0.77013   0.00000  Uiso   1.00
O1017  O     0.47093   0.40277   0.73413   0.00000  Uiso   1.00
O1018  O     0.53678   0.58953   0.71361   0.00000  Uiso   1.00
Zn1019 Zn    0.52672   0.47327   0.78734   0.00000  Uiso   1.00
Zn1020 Zn    0.46713   0.45791   0.71875   0.00000  Uiso   1.00
Zn1021 Zn    0.54389   0.53109   0.70657   0.00000  Uiso   1.00
Zn1022 Zn    0.46226   0.53773   0.78734   0.00000  Uiso   1.00
C1023  C     0.71967   0.49320   0.75951   0.00000  Uiso   1.00
C1024  C     0.83796   0.49910   0.56057   0.00000  Uiso   1.00
C1025  C     0.87224   0.43732   0.56044   0.00000  Uiso   1.00
C1026  C     0.94731   0.50697   0.74028   0.00000  Uiso   1.00
C1027  C     0.81114   0.52849   0.91872   0.00000  Uiso   1.00
C1028  C     0.99279   0.51047   0.73851   0.00000  Uiso   1.00
C1029  C     0.67408   0.48903   0.76475   0.00000  Uiso   1.00
C1030  C     0.84696   0.65578   0.73667   0.00000  Uiso   1.00
C1031  C     0.81845   0.34507   0.76382   0.00000  Uiso   1.00
C1032  C     0.82272   0.38921   0.76022   0.00000  Uiso   1.00
C1033  C     0.84318   0.61118   0.74023   0.00000  Uiso   1.00
C1034  C     0.81209   0.58518   0.97625   0.00000  Uiso   1.00
C1035  C     0.85176   0.48127   0.62964   0.00000  Uiso   1.00
C1036  C     0.81481   0.51749   0.87088   0.00000  Uiso   1.00
C1037  C     0.86803   0.42460   0.51762   0.00000  Uiso   1.00
C1038  C     0.85664   0.47396   0.58208   0.00000  Uiso   1.00
C1039  C     0.80464   0.56966   0.93526   0.00000  Uiso   1.00
C1040  C     0.98803   0.45996   0.83302   0.00000  Uiso   1.00
C1041  C     0.68066   0.42522   0.83621   0.00000  Uiso   1.00
C1042  C     0.68874   0.42692   0.88251   0.00000  Uiso   1.00
C1043  C     0.77236   0.51291   0.60524   0.00000  Uiso   1.00
C1044  C     0.74127   0.52400   0.58016   0.00000  Uiso   1.00
C1045  C     0.82534   0.55976   0.50169   0.00000  Uiso   1.00
C1046  C     0.69478   0.51158   0.60439   0.00000  Uiso   1.00
C1047  C     0.82778   0.51686   0.98843   0.00000  Uiso   1.00
C1048  C     0.82084   0.50117   0.94607   0.00000  Uiso   1.00
C1049  C     0.83922   0.48955   0.51482   0.00000  Uiso   1.00
C1050  C     0.85051   0.44975   0.99520   0.00000  Uiso   1.00
C1051  C     0.84201   0.43444   0.95444   0.00000  Uiso   1.00
C1052  C     0.82469   0.45880   0.93170   0.00000  Uiso   1.00
H1053  H     0.87324   0.33701   0.71176   0.00000  Uiso   1.00
H1054  H     0.70722   0.40119   0.88389   0.00000  Uiso   1.00
H1055  H     0.99124   0.42331   0.90813   0.00000  Uiso   1.00
H1056  H     0.79178   0.66465   0.78885   0.00000  Uiso   1.00
H1057  H     0.84741   0.40291   0.94077   0.00000  Uiso   1.00
H1058  H     0.76369   0.52698   0.64009   0.00000  Uiso   1.00
H1059  H     0.76814   0.47836   0.60718   0.00000  Uiso   1.00
H1060  H     0.74639   0.55816   0.57666   0.00000  Uiso   1.00
H1061  H     0.74730   0.50733   0.54641   0.00000  Uiso   1.00
H1062  H     0.68904   0.47770   0.60933   0.00000  Uiso   1.00
H1063  H     0.67327   0.51832   0.58432   0.00000  Uiso   1.00
H1064  H     0.87761   0.39467   0.50238   0.00000  Uiso   1.00
H1065  H     0.68695   0.52976   0.63720   0.00000  Uiso   1.00
H1066  H     0.83494   0.57487   0.53080   0.00000  Uiso   1.00
H1067  H     0.80963   0.61774   0.98742   0.00000  Uiso   1.00
H1068  H     0.81510   0.44397   0.90240   0.00000  Uiso   1.00
H1069  H     0.68143   0.53193   0.71643   0.00000  Uiso   1.00
H1070  H     0.79703   0.59099   0.91498   0.00000  Uiso   1.00
H1071  H     0.88497   0.41715   0.57787   0.00000  Uiso   1.00
H1072  H     0.95621   0.45483   0.85684   0.00000  Uiso   1.00
H1073  H     0.66991   0.49106   0.84409   0.00000  Uiso   1.00
H1074  H     0.99624   0.39439   0.82885   0.00000  Uiso   1.00
H1075  H     0.71199   0.42824   0.81139   0.00000  Uiso   1.00
H1076  H     0.70752   0.45710   0.89001   0.00000  Uiso   1.00
O1077  O     0.83333   0.50000   0.75000   0.00000  Uiso   1.00
O1078  O     0.82118   0.45970   0.65458   0.00000  Uiso   1.00
O1079  O     0.79607   0.53724   0.84968   0.00000  Uiso   1.00
O1080  O     0.87491   0.51092   0.64606   0.00000  Uiso   1.00
O1081  O     0.84118   0.49213   0.84968   0.00000  Uiso   1.00
O1082  O     0.98100   0.45800   0.78976   0.00000  Uiso   1.00
O1083  O     0.81491   0.53002   0.58573   0.00000  Uiso   1.00
O1084  O     0.84597   0.41352   0.78213   0.00000  Uiso   1.00
O1085  O     0.81298   0.59418   0.77014   0.00000  Uiso   1.00
O1086  O     0.74078   0.46625   0.73413   0.00000  Uiso   1.00
O1087  O     0.93360   0.52605   0.71360   0.00000  Uiso   1.00
O1088  O     0.73738   0.52211   0.78213   0.00000  Uiso   1.00
O1089  O     0.92158   0.48559   0.77013   0.00000  Uiso   1.00
O1090  O     0.80426   0.40277   0.73413   0.00000  Uiso   1.00
O1091  O     0.87012   0.58953   0.71361   0.00000  Uiso   1.00
Zn1092 Zn    0.86005   0.47327   0.78734   0.00000  Uiso   1.00
Zn1093 Zn    0.80046   0.45791   0.71875   0.00000  Uiso   1.00
Zn1094 Zn    0.87723   0.53109   0.70657   0.00000  Uiso   1.00
Zn1095 Zn    0.79560   0.53773   0.78734   0.00000  Uiso   1.00
C1096  C     0.05300   0.82653   0.75951   0.00000  Uiso   1.00
C1097  C     0.17130   0.83243   0.56057   0.00000  Uiso   1.00
C1098  C     0.20557   0.77065   0.56044   0.00000  Uiso   1.00
C1099  C     0.28065   0.84031   0.74028   0.00000  Uiso   1.00
C1100  C     0.14447   0.86182   0.91872   0.00000  Uiso   1.00
C1101  C     0.32613   0.84380   0.73851   0.00000  Uiso   1.00
C1102  C     0.00741   0.82236   0.76475   0.00000  Uiso   1.00
C1103  C     0.18029   0.98911   0.73667   0.00000  Uiso   1.00
C1104  C     0.15178   0.67840   0.76382   0.00000  Uiso   1.00
C1105  C     0.15606   0.72254   0.76022   0.00000  Uiso   1.00
C1106  C     0.17651   0.94451   0.74023   0.00000  Uiso   1.00
C1107  C     0.14543   0.91852   0.97625   0.00000  Uiso   1.00
C1108  C     0.18509   0.81461   0.62964   0.00000  Uiso   1.00
C1109  C     0.14814   0.85082   0.87088   0.00000  Uiso   1.00
C1110  C     0.20136   0.75793   0.51762   0.00000  Uiso   1.00
C1111  C     0.18997   0.80730   0.58208   0.00000  Uiso   1.00
C1112  C     0.13797   0.90300   0.93526   0.00000  Uiso   1.00
C1113  C     0.32136   0.79329   0.83302   0.00000  Uiso   1.00
C1114  C     0.01400   0.75855   0.83621   0.00000  Uiso   1.00
C1115  C     0.02207   0.76025   0.88251   0.00000  Uiso   1.00
C1116  C     0.10569   0.84624   0.60524   0.00000  Uiso   1.00
C1117  C     0.07461   0.85733   0.58016   0.00000  Uiso   1.00
C1118  C     0.15867   0.89309   0.50169   0.00000  Uiso   1.00
C1119  C     0.02811   0.84492   0.60439   0.00000  Uiso   1.00
C1120  C     0.16111   0.85020   0.98843   0.00000  Uiso   1.00
C1121  C     0.15417   0.83450   0.94607   0.00000  Uiso   1.00
C1122  C     0.17255   0.82288   0.51482   0.00000  Uiso   1.00
C1123  C     0.18384   0.78308   0.99520   0.00000  Uiso   1.00
C1124  C     0.17535   0.76777   0.95444   0.00000  Uiso   1.00
C1125  C     0.15803   0.79214   0.93170   0.00000  Uiso   1.00
H1126  H     0.20657   0.67034   0.71176   0.00000  Uiso   1.00
H1127  H     0.04056   0.73452   0.88389   0.00000  Uiso   1.00
H1128  H     0.32457   0.75665   0.90813   0.00000  Uiso   1.00
H1129  H     0.12512   0.99799   0.78885   0.00000  Uiso   1.00
H1130  H     0.18075   0.73624   0.94077   0.00000  Uiso   1.00
H1131  H     0.09702   0.86031   0.64009   0.00000  Uiso   1.00
H1132  H     0.10147   0.81170   0.60718   0.00000  Uiso   1.00
H1133  H     0.07972   0.89149   0.57666   0.00000  Uiso   1.00
H1134  H     0.08063   0.84066   0.54641   0.00000  Uiso   1.00
H1135  H     0.02238   0.81103   0.60933   0.00000  Uiso   1.00
H1136  H     0.00660   0.85165   0.58432   0.00000  Uiso   1.00
H1137  H     0.21094   0.72800   0.50238   0.00000  Uiso   1.00
H1138  H     0.02028   0.86309   0.63720   0.00000  Uiso   1.00
H1139  H     0.16827   0.90820   0.53080   0.00000  Uiso   1.00
H1140  H     0.14296   0.95108   0.98742   0.00000  Uiso   1.00
H1141  H     0.14843   0.77730   0.90240   0.00000  Uiso   1.00
H1142  H     0.01476   0.86526   0.71643   0.00000  Uiso   1.00
H1143  H     0.13036   0.92432   0.91498   0.00000  Uiso   1.00
H1144  H     0.21831   0.75049   0.57787   0.00000  Uiso   1.00
H1145  H     0.28954   0.78816   0.85684   0.00000  Uiso   1.00
H1146  H     0.00325   0.82440   0.84409   0.00000  Uiso   1.00
H1147  H     0.32958   0.72772   0.82885   0.00000  Uiso   1.00
H1148  H     0.04533   0.76158   0.81139   0.00000  Uiso   1.00
H1149  H     0.04085   0.79044   0.89001   0.00000  Uiso   1.00
O1150  O     0.16667   0.83333   0.75000   0.00000  Uiso   1.00
O1151  O     0.15451   0.79304   0.65458   0.00000  Uiso   1.00
O1152  O     0.12940   0.87058   0.84968   0.00000  Uiso   1.00
O1153  O     0.20824   0.84425   0.64606   0.00000  Uiso   1.00
O1154  O     0.17451   0.82546   0.84968   0.00000  Uiso   1.00
O1155  O     0.31433   0.79133   0.78976   0.00000  Uiso   1.00
O1156  O     0.14824   0.86335   0.58573   0.00000  Uiso   1.00
O1157  O     0.17930   0.74686   0.78213   0.00000  Uiso   1.00
O1158  O     0.14632   0.92751   0.77014   0.00000  Uiso   1.00
O1159  O     0.07412   0.79958   0.73413   0.00000  Uiso   1.00
O1160  O     0.26693   0.85939   0.71360   0.00000  Uiso   1.00
O1161  O     0.07071   0.85544   0.78213   0.00000  Uiso   1.00
O1162  O     0.25491   0.81892   0.77013   0.00000  Uiso   1.00
O1163  O     0.13760   0.73610   0.73413   0.00000  Uiso   1.00
O1164  O     0.20345   0.92286   0.71361   0.00000  Uiso   1.00
Zn1165 Zn    0.19338   0.80661   0.78734   0.00000  Uiso   1.00
Zn1166 Zn    0.13379   0.79124   0.71875   0.00000  Uiso   1.00
Zn1167 Zn    0.21056   0.86442   0.70657   0.00000  Uiso   1.00
Zn1168 Zn    0.12893   0.87106   0.78734   0.00000  Uiso   1.00
C1169  C     0.38634   0.82653   0.75951   0.00000  Uiso   1.00
C1170  C     0.50463   0.83243   0.56057   0.00000  Uiso   1.00
C1171  C     0.53891   0.77065   0.56044   0.00000  Uiso   1.00
C1172  C     0.61398   0.84031   0.74028   0.00000  Uiso   1.00
C1173  C     0.47780   0.86182   0.91872   0.00000  Uiso   1.00
C1174  C     0.65946   0.84380   0.73851   0.00000  Uiso   1.00
C1175  C     0.34074   0.82236   0.76475   0.00000  Uiso   1.00
C1176  C     0.51362   0.98911   0.73667   0.00000  Uiso   1.00
C1177  C     0.48511   0.67840   0.76382   0.00000  Uiso   1.00
C1178  C     0.48939   0.72254   0.76022   0.00000  Uiso   1.00
C1179  C     0.50985   0.94451   0.74023   0.00000  Uiso   1.00
C1180  C     0.47876   0.91852   0.97625   0.00000  Uiso   1.00
C1181  C     0.51842   0.81461   0.62964   0.00000  Uiso   1.00
C1182  C     0.48148   0.85082   0.87088   0.00000  Uiso   1.00
C1183  C     0.53470   0.75793   0.51762   0.00000  Uiso   1.00
C1184  C     0.52331   0.80730   0.58208   0.00000  Uiso   1.00
C1185  C     0.47131   0.90300   0.93526   0.00000  Uiso   1.00
C1186  C     0.65469   0.79329   0.83302   0.00000  Uiso   1.00
C1187  C     0.34733   0.75855   0.83621   0.00000  Uiso   1.00
C1188  C     0.35540   0.76025   0.88251   0.00000  Uiso   1.00
C1189  C     0.43902   0.84624   0.60524   0.00000  Uiso   1.00
C1190  C     0.40794   0.85733   0.58016   0.00000  Uiso   1.00
C1191  C     0.49201   0.89309   0.50169   0.00000  Uiso   1.00
C1192  C     0.36145   0.84492   0.60439   0.00000  Uiso   1.00
C1193  C     0.49444   0.85020   0.98843   0.00000  Uiso   1.00
C1194  C     0.48751   0.83450   0.94607   0.00000  Uiso   1.00
C1195  C     0.50588   0.82288   0.51482   0.00000  Uiso   1.00
C1196  C     0.51717   0.78308   0.99520   0.00000  Uiso   1.00
C1197  C     0.50868   0.76777   0.95444   0.00000  Uiso   1.00
C1198  C     0.49136   0.79214   0.93170   0.00000  Uiso   1.00
H1199  H     0.53990   0.67034   0.71176   0.00000  Uiso   1.00
H1200  H     0.37389   0.73452   0.88389   0.00000  Uiso   1.00
H1201  H     0.65791   0.75665   0.90813   0.00000  Uiso   1.00
H1202  H     0.45845   0.99799   0.78885   0.00000  Uiso   1.00
H1203  H     0.51408   0.73624   0.94077   0.00000  Uiso   1.00
H1204  H     0.43035   0.86031   0.64009   0.00000  Uiso   1.00
H1205  H     0.43480   0.81170   0.60718   0.00000  Uiso   1.00
H1206  H     0.41305   0.89149   0.57666   0.00000  Uiso   1.00
H1207  H     0.41397   0.84066   0.54641   0.00000  Uiso   1.00
H1208  H     0.35571   0.81103   0.60933   0.00000  Uiso   1.00
H1209  H     0.33993   0.85165   0.58432   0.00000  Uiso   1.00
H1210  H     0.54428   0.72800   0.50238   0.00000  Uiso   1.00
H1211  H     0.35362   0.86309   0.63720   0.00000  Uiso   1.00
H1212  H     0.50161   0.90820   0.53080   0.00000  Uiso   1.00
H1213  H     0.47629   0.95108   0.98742   0.00000  Uiso   1.00
H1214  H     0.48177   0.77730   0.90240   0.00000  Uiso   1.00
H1215  H     0.34809   0.86526   0.71643   0.00000  Uiso   1.00
H1216  H     0.46369   0.92432   0.91498   0.00000  Uiso   1.00
H1217  H     0.55164   0.75049   0.57787   0.00000  Uiso   1.00
H1218  H     0.62288   0.78816   0.85684   0.00000  Uiso   1.00
H1219  H     0.33658   0.82440   0.84409   0.00000  Uiso   1.00
H1220  H     0.66291   0.72772   0.82885   0.00000  Uiso   1.00
H1221  H     0.37866   0.76158   0.81139   0.00000  Uiso   1.00
H1222  H     0.37418   0.79044   0.89001   0.00000  Uiso   1.00
O1223  O     0.50000   0.83333   0.75000   0.00000  Uiso   1.00
O1224  O     0.48784   0.79304   0.65458   0.00000  Uiso   1.00
O1225  O     0.46274   0.87058   0.84968   0.00000  Uiso   1.00
O1226  O     0.54157   0.84425   0.64606   0.00000  Uiso   1.00
O1227  O     0.50785   0.82546   0.84968   0.00000  Uiso   1.00
O1228  O     0.64767   0.79133   0.78976   0.00000  Uiso   1.00
O1229  O     0.48158   0.86335   0.58573   0.00000  Uiso   1.00
O1230  O     0.51264   0.74686   0.78213   0.00000  Uiso   1.00
O1231  O     0.47965   0.92751   0.77014   0.00000  Uiso   1.00
O1232  O     0.40745   0.79958   0.73413   0.00000  Uiso   1.00
O1233  O     0.60026   0.85939   0.71360   0.00000  Uiso   1.00
O1234  O     0.40405   0.85544   0.78213   0.00000  Uiso   1.00
O1235  O     0.58824   0.81892   0.77013   0.00000  Uiso   1.00
O1236  O     0.47093   0.73610   0.73413   0.00000  Uiso   1.00
O1237  O     0.53678   0.92286   0.71361   0.00000  Uiso   1.00
Zn1238 Zn    0.52672   0.80661   0.78734   0.00000  Uiso   1.00
Zn1239 Zn    0.46713   0.79124   0.71875   0.00000  Uiso   1.00
Zn1240 Zn    0.54389   0.86442   0.70657   0.00000  Uiso   1.00
Zn1241 Zn    0.46226   0.87106   0.78734   0.00000  Uiso   1.00
C1242  C     0.71967   0.82653   0.75951   0.00000  Uiso   1.00
C1243  C     0.83796   0.83243   0.56057   0.00000  Uiso   1.00
C1244  C     0.87224   0.77065   0.56044   0.00000  Uiso   1.00
C1245  C     0.94731   0.84031   0.74028   0.00000  Uiso   1.00
C1246  C     0.81114   0.86182   0.91872   0.00000  Uiso   1.00
C1247  C     0.99279   0.84380   0.73851   0.00000  Uiso   1.00
C1248  C     0.67408   0.82236   0.76475   0.00000  Uiso   1.00
C1249  C     0.84696   0.98911   0.73667   0.00000  Uiso   1.00
C1250  C     0.81845   0.67840   0.76382   0.00000  Uiso   1.00
C1251  C     0.82272   0.72254   0.76022   0.00000  Uiso   1.00
C1252  C     0.84318   0.94451   0.74023   0.00000  Uiso   1.00
C1253  C     0.81209   0.91852   0.97625   0.00000  Uiso   1.00
C1254  C     0.85176   0.81461   0.62964   0.00000  Uiso   1.00
C1255  C     0.81481   0.85082   0.87088   0.00000  Uiso   1.00
C1256  C     0.86803   0.75793   0.51762   0.00000  Uiso   1.00
C1257  C     0.85664   0.80730   0.58208   0.00000  Uiso   1.00
C1258  C     0.80464   0.90300   0.93526   0.00000  Uiso   1.00
C1259  C     0.98803   0.79329   0.83302   0.00000  Uiso   1.00
C1260  C     0.68066   0.75855   0.83621   0.00000  Uiso   1.00
C1261  C     0.68874   0.76025   0.88251   0.00000  Uiso   1.00
C1262  C     0.77236   0.84624   0.60524   0.00000  Uiso   1.00
C1263  C     0.74127   0.85733   0.58016   0.00000  Uiso   1.00
C1264  C     0.82534   0.89309   0.50169   0.00000  Uiso   1.00
C1265  C     0.69478   0.84492   0.60439   0.00000  Uiso   1.00
C1266  C     0.82778   0.85020   0.98843   0.00000  Uiso   1.00
C1267  C     0.82084   0.83450   0.94607   0.00000  Uiso   1.00
C1268  C     0.83922   0.82288   0.51482   0.00000  Uiso   1.00
C1269  C     0.85051   0.78308   0.99520   0.00000  Uiso   1.00
C1270  C     0.84201   0.76777   0.95444   0.00000  Uiso   1.00
C1271  C     0.82469   0.79214   0.93170   0.00000  Uiso   1.00
H1272  H     0.87324   0.67034   0.71176   0.00000  Uiso   1.00
H1273  H     0.70722   0.73452   0.88389   0.00000  Uiso   1.00
H1274  H     0.99124   0.75665   0.90813   0.00000  Uiso   1.00
H1275  H     0.79178   0.99799   0.78885   0.00000  Uiso   1.00
H1276  H     0.84741   0.73624   0.94077   0.00000  Uiso   1.00
H1277  H     0.76369   0.86031   0.64009   0.00000  Uiso   1.00
H1278  H     0.76814   0.81170   0.60718   0.00000  Uiso   1.00
H1279  H     0.74639   0.89149   0.57666   0.00000  Uiso   1.00
H1280  H     0.74730   0.84066   0.54641   0.00000  Uiso   1.00
H1281  H     0.68904   0.81103   0.60933   0.00000  Uiso   1.00
H1282  H     0.67327   0.85165   0.58432   0.00000  Uiso   1.00
H1283  H     0.87761   0.72800   0.50238   0.00000  Uiso   1.00
H1284  H     0.68695   0.86309   0.63720   0.00000  Uiso   1.00
H1285  H     0.83494   0.90820   0.53080   0.00000  Uiso   1.00
H1286  H     0.80963   0.95108   0.98742   0.00000  Uiso   1.00
H1287  H     0.81510   0.77730   0.90240   0.00000  Uiso   1.00
H1288  H     0.68143   0.86526   0.71643   0.00000  Uiso   1.00
H1289  H     0.79703   0.92432   0.91498   0.00000  Uiso   1.00
H1290  H     0.88497   0.75049   0.57787   0.00000  Uiso   1.00
H1291  H     0.95621   0.78816   0.85684   0.00000  Uiso   1.00
H1292  H     0.66991   0.82440   0.84409   0.00000  Uiso   1.00
H1293  H     0.99624   0.72772   0.82885   0.00000  Uiso   1.00
H1294  H     0.71199   0.76158   0.81139   0.00000  Uiso   1.00
H1295  H     0.70752   0.79044   0.89001   0.00000  Uiso   1.00
O1296  O     0.83333   0.83333   0.75000   0.00000  Uiso   1.00
O1297  O     0.82118   0.79304   0.65458   0.00000  Uiso   1.00
O1298  O     0.79607   0.87058   0.84968   0.00000  Uiso   1.00
O1299  O     0.87491   0.84425   0.64606   0.00000  Uiso   1.00
O1300  O     0.84118   0.82546   0.84968   0.00000  Uiso   1.00
O1301  O     0.98100   0.79133   0.78976   0.00000  Uiso   1.00
O1302  O     0.81491   0.86335   0.58573   0.00000  Uiso   1.00
O1303  O     0.84597   0.74686   0.78213   0.00000  Uiso   1.00
O1304  O     0.81298   0.92751   0.77014   0.00000  Uiso   1.00
O1305  O     0.74078   0.79958   0.73413   0.00000  Uiso   1.00
O1306  O     0.93360   0.85939   0.71360   0.00000  Uiso   1.00
O1307  O     0.73738   0.85544   0.78213   0.00000  Uiso   1.00
O1308  O     0.92158   0.81892   0.77013   0.00000  Uiso   1.00
O1309  O     0.80426   0.73610   0.73413   0.00000  Uiso   1.00
O1310  O     0.87012   0.92286   0.71361   0.00000  Uiso   1.00
Zn1311 Zn    0.86005   0.80661   0.78734   0.00000  Uiso   1.00
Zn1312 Zn    0.80046   0.79124   0.71875   0.00000  Uiso   1.00
Zn1313 Zn    0.87723   0.86442   0.70657   0.00000  Uiso   1.00
Zn1314 Zn    0.79560   0.87106   0.78734   0.00000  Uiso   1.00
loop_
_geom_bond_atom_site_label_1
_geom_bond_atom_site_label_2
_geom_bond_distance
_geom_bond_site_symmetry_2
_ccdc_geom_bond_type
C1     O66     1.269   .     A
C1     O64     1.266   .     A
C1     C7      1.440   .     S
C2     C16     1.403   .     A
C2     O61     1.388   .     S
C2     C27     1.416   .     A
C3     H49     1.084   .     S
C3     C15     1.386   .     A
C3     C16     1.395   .     A
C4     C6      1.456   .     S
C4     O65     1.291   .     A
C4     O67     1.276   .     A
C5     C17     1.403   .     A
C5     C26     1.418   .     A
C5     C14     1.471   .     S
C6     C80     1.346   .     S
C6     H120    1.087   .     S
C7     C152    1.346   1_455 S
C7     O206    1.395   1_455 S
C8     C11     1.451   .     S
C8     C228    1.331   .     S
C8     H250    1.088   .     S
C9     C10     1.435   .     S
C9     C446    1.331   1_545 S
C9     H472    1.086   1_545 S
C10    O68     1.277   .     A
C10    O62     1.277   .     A
C11    O69     1.275   .     A
C11    O63     1.276   .     A
C12    C17     1.386   .     A
C12    H45     1.083   .     S
C12    C680    1.389   .     S
C13    C16     1.445   .     S
C13    O56     1.269   .     A
C13    O58     1.277   .     A
C14    O59     1.282   .     A
C14    O57     1.281   .     A
C15    H42     1.084   .     S
C15    C685    1.399   1_554 S
C17    H48     1.083   .     S
C18    H50     1.111   .     S
C18    O60     1.418   .     S
C18    C92     1.533   .     S
C18    H124    1.116   .     S
C19    H53     1.110   .     S
C19    C20     1.526   .     S
C19    C164    1.533   1_455 S
C19    H198    1.112   1_455 S
C20    H54     1.111   .     S
C20    H32     1.110   .     S
C20    H179    1.111   1_455 S
C21    O61     1.421   .     S
C21    H36     1.111   .     S
C21    C22     1.532   .     S
C21    H37     1.117   .     S
C22    C24     1.526   .     S
C22    H39     1.110   .     S
C22    H38     1.112   .     S
C23    H44     1.077   .     S
C23    C669    1.389   1_554 S
C23    C682    1.415   1_554 S
C24    H41     1.110   .     S
C24    H40     1.111   .     S
C24    H43     1.109   .     S
C25    C26     1.421   .     A
C25    C680    1.415   .     S
C25    C684    1.424   .     S
C26    C30     1.411   .     A
C27    C682    1.424   1_554 S
C27    C685    1.422   1_554 S
C28    C29     1.391   .     A
C28    C684    1.422   .     S
C28    C672    1.399   .     S
C29    H35     1.084   .     S
C29    C30     1.383   .     A
C30    H46     1.080   .     S
H31    C446    1.088   1_545 S
H33    C93     1.111   .     S
H34    C228    1.086   .     S
H47    C152    1.087   1_455 S
H51    C164    1.116   1_455 S
H52    C92     1.112   .     S
O55    Zn72    1.947   .     S
O55    Zn70    1.960   .     S
O55    Zn71    1.940   .     S
O55    Zn73    1.935   .     S
O56    Zn71    1.945   .     S
O57    Zn73    1.950   .     S
O58    Zn72    1.941   .     S
O59    Zn70    1.937   .     S
O60    C80     1.395   .     S
O62    Zn70    1.926   .     S
O63    Zn73    1.933   .     S
O64    Zn71    1.931   .     S
O65    Zn72    1.937   .     S
O66    Zn73    1.933   .     S
O67    Zn70    1.930   .     S
O68    Zn71    1.936   .     S
O69    Zn72    1.927   .     S
C74    O139    1.269   .     A
C74    O137    1.266   .     A
C74    C80     1.440   .     S
C75    C89     1.403   .     A
C75    O134    1.388   .     S
C75    C100    1.416   .     A
C76    H122    1.084   .     S
C76    C88     1.386   .     A
C76    C89     1.395   .     A
C77    C79     1.456   .     S
C77    O138    1.291   .     A
C77    O140    1.276   .     A
C78    C90     1.403   .     A
C78    C99     1.418   .     A
C78    C87     1.471   .     S
C79    C153    1.346   .     S
C79    H193    1.087   .     S
C81    C84     1.451   .     S
C81    C301    1.331   .     S
C81    H323    1.088   .     S
C82    C83     1.435   .     S
C82    C519    1.331   1_545 S
C82    H545    1.086   1_545 S
C83    O141    1.277   .     A
C83    O135    1.277   .     A
C84    O142    1.275   .     A
C84    O136    1.276   .     A
C85    C90     1.386   .     A
C85    H118    1.083   .     S
C85    C753    1.389   .     S
C86    C89     1.445   .     S
C86    O129    1.269   .     A
C86    O131    1.277   .     A
C87    O132    1.282   .     A
C87    O130    1.281   .     A
C88    H115    1.084   .     S
C88    C758    1.399   1_554 S
C90    H121    1.083   .     S
C91    H123    1.111   .     S
C91    O133    1.418   .     S
C91    C165    1.533   .     S
C91    H197    1.116   .     S
C92    H126    1.110   .     S
C92    C93     1.526   .     S
C93    H127    1.111   .     S
C93    H105    1.110   .     S
C94    O134    1.421   .     S
C94    H109    1.111   .     S
C94    C95     1.532   .     S
C94    H110    1.117   .     S
C95    C97     1.526   .     S
C95    H112    1.110   .     S
C95    H111    1.112   .     S
C96    H117    1.077   .     S
C96    C742    1.389   1_554 S
C96    C755    1.415   1_554 S
C97    H114    1.110   .     S
C97    H113    1.111   .     S
C97    H116    1.109   .     S
C98    C99     1.421   .     A
C98    C753    1.415   .     S
C98    C757    1.424   .     S
C99    C103    1.411   .     A
C100   C755    1.424   1_554 S
C100   C758    1.422   1_554 S
C101   C102    1.391   .     A
C101   C757    1.422   .     S
C101   C745    1.399   .     S
C102   H108    1.084   .     S
C102   C103    1.383   .     A
C103   H119    1.080   .     S
H104   C519    1.088   1_545 S
H106   C166    1.111   .     S
H107   C301    1.086   .     S
H125   C165    1.112   .     S
O128   Zn145   1.947   .     S
O128   Zn143   1.960   .     S
O128   Zn144   1.940   .     S
O128   Zn146   1.935   .     S
O129   Zn144   1.945   .     S
O130   Zn146   1.950   .     S
O131   Zn145   1.941   .     S
O132   Zn143   1.937   .     S
O133   C153    1.395   .     S
O135   Zn143   1.926   .     S
O136   Zn146   1.933   .     S
O137   Zn144   1.931   .     S
O138   Zn145   1.937   .     S
O139   Zn146   1.933   .     S
O140   Zn143   1.930   .     S
O141   Zn144   1.936   .     S
O142   Zn145   1.927   .     S
C147   O212    1.269   .     A
C147   O210    1.266   .     A
C147   C153    1.440   .     S
C148   C162    1.403   .     A
C148   O207    1.388   .     S
C148   C173    1.416   .     A
C149   H195    1.084   .     S
C149   C161    1.386   .     A
C149   C162    1.395   .     A
C150   C152    1.456   .     S
C150   O211    1.291   .     A
C150   O213    1.276   .     A
C151   C163    1.403   .     A
C151   C172    1.418   .     A
C151   C160    1.471   .     S
C152   C7      1.346   1_655 S
C152   H47     1.087   1_655 S
C154   C157    1.451   .     S
C154   C374    1.331   .     S
C154   H396    1.088   .     S
C155   C156    1.435   .     S
C155   C592    1.331   1_545 S
C155   H618    1.086   1_545 S
C156   O214    1.277   .     A
C156   O208    1.277   .     A
C157   O215    1.275   .     A
C157   O209    1.276   .     A
C158   C163    1.386   .     A
C158   H191    1.083   .     S
C158   C826    1.389   .     S
C159   C162    1.445   .     S
C159   O202    1.269   .     A
C159   O204    1.277   .     A
C160   O205    1.282   .     A
C160   O203    1.281   .     A
C161   H188    1.084   .     S
C161   C831    1.399   1_554 S
C163   H194    1.083   .     S
C164   H196    1.111   .     S
C164   O206    1.418   .     S
C164   C19     1.533   1_655 S
C164   H51     1.116   1_655 S
C165   H199    1.110   .     S
C165   C166    1.526   .     S
C166   H200    1.111   .     S
C166   H178    1.110   .     S
C167   O207    1.421   .     S
C167   H182    1.111   .     S
C167   C168    1.532   .     S
C167   H183    1.117   .     S
C168   C170    1.526   .     S
C168   H185    1.110   .     S
C168   H184    1.112   .     S
C169   H190    1.077   .     S
C169   C815    1.389   1_554 S
C169   C828    1.415   1_554 S
C170   H187    1.110   .     S
C170   H186    1.111   .     S
C170   H189    1.109   .     S
C171   C172    1.421   .     A
C171   C826    1.415   .     S
C171   C830    1.424   .     S
C172   C176    1.411   .     A
C173   C828    1.424   1_554 S
C173   C831    1.422   1_554 S
C174   C175    1.391   .     A
C174   C830    1.422   .     S
C174   C818    1.399   .     S
C175   H181    1.084   .     S
C175   C176    1.383   .     A
C176   H192    1.080   .     S
H177   C592    1.088   1_545 S
H179   C20     1.111   1_655 S
H180   C374    1.086   .     S
H198   C19     1.112   1_655 S
O201   Zn218   1.947   .     S
O201   Zn216   1.960   .     S
O201   Zn217   1.940   .     S
O201   Zn219   1.935   .     S
O202   Zn217   1.945   .     S
O203   Zn219   1.950   .     S
O204   Zn218   1.941   .     S
O205   Zn216   1.937   .     S
O206   C7      1.395   1_655 S
O208   Zn216   1.926   .     S
O209   Zn219   1.933   .     S
O210   Zn217   1.931   .     S
O211   Zn218   1.937   .     S
O212   Zn219   1.933   .     S
O213   Zn216   1.930   .     S
O214   Zn217   1.936   .     S
O215   Zn218   1.927   .     S
C220   O285    1.269   .     A
C220   O283    1.266   .     A
C220   C226    1.440   .     S
C221   C235    1.403   .     A
C221   O280    1.388   .     S
C221   C246    1.416   .     A
C222   H268    1.084   .     S
C222   C234    1.386   .     A
C222   C235    1.395   .     A
C223   C225    1.456   .     S
C223   O284    1.291   .     A
C223   O286    1.276   .     A
C224   C236    1.403   .     A
C224   C245    1.418   .     A
C224   C233    1.471   .     S
C225   C299    1.346   .     S
C225   H339    1.087   .     S
C226   C371    1.346   1_455 S
C226   O425    1.395   1_455 S
C227   C230    1.451   .     S
C227   C447    1.331   .     S
C227   H469    1.088   .     S
C228   C229    1.435   .     S
C229   O287    1.277   .     A
C229   O281    1.277   .     A
C230   O288    1.275   .     A
C230   O282    1.276   .     A
C231   C236    1.386   .     A
C231   H264    1.083   .     S
C231   C899    1.389   .     S
C232   C235    1.445   .     S
C232   O275    1.269   .     A
C232   O277    1.277   .     A
C233   O278    1.282   .     A
C233   O276    1.281   .     A
C234   H261    1.084   .     S
C234   C904    1.399   1_554 S
C236   H267    1.083   .     S
C237   H269    1.111   .     S
C237   O279    1.418   .     S
C237   C311    1.533   .     S
C237   H343    1.116   .     S
C238   H272    1.110   .     S
C238   C239    1.526   .     S
C238   C383    1.533   1_455 S
C238   H417    1.112   1_455 S
C239   H273    1.111   .     S
C239   H251    1.110   .     S
C239   H398    1.111   1_455 S
C240   O280    1.421   .     S
C240   H255    1.111   .     S
C240   C241    1.532   .     S
C240   H256    1.117   .     S
C241   C243    1.526   .     S
C241   H258    1.110   .     S
C241   H257    1.112   .     S
C242   H263    1.077   .     S
C242   C888    1.389   1_554 S
C242   C901    1.415   1_554 S
C243   H260    1.110   .     S
C243   H259    1.111   .     S
C243   H262    1.109   .     S
C244   C245    1.421   .     A
C244   C899    1.415   .     S
C244   C903    1.424   .     S
C245   C249    1.411   .     A
C246   C901    1.424   1_554 S
C246   C904    1.422   1_554 S
C247   C248    1.391   .     A
C247   C903    1.422   .     S
C247   C891    1.399   .     S
C248   H254    1.084   .     S
C248   C249    1.383   .     A
C249   H265    1.080   .     S
H252   C312    1.111   .     S
H253   C447    1.086   .     S
H266   C371    1.087   1_455 S
H270   C383    1.116   1_455 S
H271   C311    1.112   .     S
O274   Zn291   1.947   .     S
O274   Zn289   1.960   .     S
O274   Zn290   1.940   .     S
O274   Zn292   1.935   .     S
O275   Zn290   1.945   .     S
O276   Zn292   1.950   .     S
O277   Zn291   1.941   .     S
O278   Zn289   1.937   .     S
O279   C299    1.395   .     S
O281   Zn289   1.926   .     S
O282   Zn292   1.933   .     S
O283   Zn290   1.931   .     S
O284   Zn291   1.937   .     S
O285   Zn292   1.933   .     S
O286   Zn289   1.930   .     S
O287   Zn290   1.936   .     S
O288   Zn291   1.927   .     S
C293   O358    1.269   .     A
C293   O356    1.266   .     A
C293   C299    1.440   .     S
C294   C308    1.403   .     A
C294   O353    1.388   .     S
C294   C319    1.416   .     A
C295   H341    1.084   .     S
C295   C307    1.386   .     A
C295   C308    1.395   .     A
C296   C298    1.456   .     S
C296   O357    1.291   .     A
C296   O359    1.276   .     A
C297   C309    1.403   .     A
C297   C318    1.418   .     A
C297   C306    1.471   .     S
C298   C372    1.346   .     S
C298   H412    1.087   .     S
C300   C303    1.451   .     S
C300   C520    1.331   .     S
C300   H542    1.088   .     S
C301   C302    1.435   .     S
C302   O360    1.277   .     A
C302   O354    1.277   .     A
C303   O361    1.275   .     A
C303   O355    1.276   .     A
C304   C309    1.386   .     A
C304   H337    1.083   .     S
C304   C972    1.389   .     S
C305   C308    1.445   .     S
C305   O348    1.269   .     A
C305   O350    1.277   .     A
C306   O351    1.282   .     A
C306   O349    1.281   .     A
C307   H334    1.084   .     S
C307   C977    1.399   1_554 S
C309   H340    1.083   .     S
C310   H342    1.111   .     S
C310   O352    1.418   .     S
C310   C384    1.533   .     S
C310   H416    1.116   .     S
C311   H345    1.110   .     S
C311   C312    1.526   .     S
C312   H346    1.111   .     S
C312   H324    1.110   .     S
C313   O353    1.421   .     S
C313   H328    1.111   .     S
C313   C314    1.532   .     S
C313   H329    1.117   .     S
C314   C316    1.526   .     S
C314   H331    1.110   .     S
C314   H330    1.112   .     S
C315   H336    1.077   .     S
C315   C961    1.389   1_554 S
C315   C974    1.415   1_554 S
C316   H333    1.110   .     S
C316   H332    1.111   .     S
C316   H335    1.109   .     S
C317   C318    1.421   .     A
C317   C972    1.415   .     S
C317   C976    1.424   .     S
C318   C322    1.411   .     A
C319   C974    1.424   1_554 S
C319   C977    1.422   1_554 S
C320   C321    1.391   .     A
C320   C976    1.422   .     S
C320   C964    1.399   .     S
C321   H327    1.084   .     S
C321   C322    1.383   .     A
C322   H338    1.080   .     S
H325   C385    1.111   .     S
H326   C520    1.086   .     S
H344   C384    1.112   .     S
O347   Zn364   1.947   .     S
O347   Zn362   1.960   .     S
O347   Zn363   1.940   .     S
O347   Zn365   1.935   .     S
O348   Zn363   1.945   .     S
O349   Zn365   1.950   .     S
O350   Zn364   1.941   .     S
O351   Zn362   1.937   .     S
O352   C372    1.395   .     S
O354   Zn362   1.926   .     S
O355   Zn365   1.933   .     S
O356   Zn363   1.931   .     S
O357   Zn364   1.937   .     S
O358   Zn365   1.933   .     S
O359   Zn362   1.930   .     S
O360   Zn363   1.936   .     S
O361   Zn364   1.927   .     S
C366   O431    1.269   .     A
C366   O429    1.266   .     A
C366   C372    1.440   .     S
C367   C381    1.403   .     A
C367   O426    1.388   .     S
C367   C392    1.416   .     A
C368   H414    1.084   .     S
C368   C380    1.386   .     A
C368   C381    1.395   .     A
C369   C371    1.456   .     S
C369   O430    1.291   .     A
C369   O432    1.276   .     A
C370   C382    1.403   .     A
C370   C391    1.418   .     A
C370   C379    1.471   .     S
C371   C226    1.346   1_655 S
C371   H266    1.087   1_655 S
C373   C376    1.451   .     S
C373   C593    1.331   .     S
C373   H615    1.088   .     S
C374   C375    1.435   .     S
C375   O433    1.277   .     A
C375   O427    1.277   .     A
C376   O434    1.275   .     A
C376   O428    1.276   .     A
C377   C382    1.386   .     A
C377   H410    1.083   .     S
C377   C1045   1.389   .     S
C378   C381    1.445   .     S
C378   O421    1.269   .     A
C378   O423    1.277   .     A
C379   O424    1.282   .     A
C379   O422    1.281   .     A
C380   H407    1.084   .     S
C380   C1050   1.399   1_554 S
C382   H413    1.083   .     S
C383   H415    1.111   .     S
C383   O425    1.418   .     S
C383   C238    1.533   1_655 S
C383   H270    1.116   1_655 S
C384   H418    1.110   .     S
C384   C385    1.526   .     S
C385   H419    1.111   .     S
C385   H397    1.110   .     S
C386   O426    1.421   .     S
C386   H401    1.111   .     S
C386   C387    1.532   .     S
C386   H402    1.117   .     S
C387   C389    1.526   .     S
C387   H404    1.110   .     S
C387   H403    1.112   .     S
C388   H409    1.077   .     S
C388   C1034   1.389   1_554 S
C388   C1047   1.415   1_554 S
C389   H406    1.110   .     S
C389   H405    1.111   .     S
C389   H408    1.109   .     S
C390   C391    1.421   .     A
C390   C1045   1.415   .     S
C390   C1049   1.424   .     S
C391   C395    1.411   .     A
C392   C1047   1.424   1_554 S
C392   C1050   1.422   1_554 S
C393   C394    1.391   .     A
C393   C1049   1.422   .     S
C393   C1037   1.399   .     S
C394   H400    1.084   .     S
C394   C395    1.383   .     A
C395   H411    1.080   .     S
H398   C239    1.111   1_655 S
H399   C593    1.086   .     S
H417   C238    1.112   1_655 S
O420   Zn437   1.947   .     S
O420   Zn435   1.960   .     S
O420   Zn436   1.940   .     S
O420   Zn438   1.935   .     S
O421   Zn436   1.945   .     S
O422   Zn438   1.950   .     S
O423   Zn437   1.941   .     S
O424   Zn435   1.937   .     S
O425   C226    1.395   1_655 S
O427   Zn435   1.926   .     S
O428   Zn438   1.933   .     S
O429   Zn436   1.931   .     S
O430   Zn437   1.937   .     S
O431   Zn438   1.933   .     S
O432   Zn435   1.930   .     S
O433   Zn436   1.936   .     S
O434   Zn437   1.927   .     S
C439   O504    1.269   .     A
C439   O502    1.266   .     A
C439   C445    1.440   .     S
C440   C454    1.403   .     A
C440   O499    1.388   .     S
C440   C465    1.416   .     A
C441   H487    1.084   .     S
C441   C453    1.386   .     A
C441   C454    1.395   .     A
C442   C444    1.456   .     S
C442   O503    1.291   .     A
C442   O505    1.276   .     A
C443   C455    1.403   .     A
C443   C464    1.418   .     A
C443   C452    1.471   .     S
C444   C518    1.346   .     S
C444   H558    1.087   .     S
C445   C590    1.346   1_455 S
C445   O644    1.395   1_455 S
C446   C449    1.451   .     S
C446   C9      1.331   1_565 S
C446   H31     1.088   1_565 S
C447   C448    1.435   .     S
C448   O506    1.277   .     A
C448   O500    1.277   .     A
C449   O507    1.275   .     A
C449   O501    1.276   .     A
C450   C455    1.386   .     A
C450   H483    1.083   .     S
C450   C1118   1.389   .     S
C451   C454    1.445   .     S
C451   O494    1.269   .     A
C451   O496    1.277   .     A
C452   O497    1.282   .     A
C452   O495    1.281   .     A
C453   H480    1.084   .     S
C453   C1123   1.399   1_554 S
C455   H486    1.083   .     S
C456   H488    1.111   .     S
C456   O498    1.418   .     S
C456   C530    1.533   .     S
C456   H562    1.116   .     S
C457   H491    1.110   .     S
C457   C458    1.526   .     S
C457   C602    1.533   1_455 S
C457   H636    1.112   1_455 S
C458   H492    1.111   .     S
C458   H470    1.110   .     S
C458   H617    1.111   1_455 S
C459   O499    1.421   .     S
C459   H474    1.111   .     S
C459   C460    1.532   .     S
C459   H475    1.117   .     S
C460   C462    1.526   .     S
C460   H477    1.110   .     S
C460   H476    1.112   .     S
C461   H482    1.077   .     S
C461   C1107   1.389   1_554 S
C461   C1120   1.415   1_554 S
C462   H479    1.110   .     S
C462   H478    1.111   .     S
C462   H481    1.109   .     S
C463   C464    1.421   .     A
C463   C1118   1.415   .     S
C463   C1122   1.424   .     S
C464   C468    1.411   .     A
C465   C1120   1.424   1_554 S
C465   C1123   1.422   1_554 S
C466   C467    1.391   .     A
C466   C1122   1.422   .     S
C466   C1110   1.399   .     S
C467   H473    1.084   .     S
C467   C468    1.383   .     A
C468   H484    1.080   .     S
H471   C531    1.111   .     S
H472   C9      1.086   1_565 S
H485   C590    1.087   1_455 S
H489   C602    1.116   1_455 S
H490   C530    1.112   .     S
O493   Zn510   1.947   .     S
O493   Zn508   1.960   .     S
O493   Zn509   1.940   .     S
O493   Zn511   1.935   .     S
O494   Zn509   1.945   .     S
O495   Zn511   1.950   .     S
O496   Zn510   1.941   .     S
O497   Zn508   1.937   .     S
O498   C518    1.395   .     S
O500   Zn508   1.926   .     S
O501   Zn511   1.933   .     S
O502   Zn509   1.931   .     S
O503   Zn510   1.937   .     S
O504   Zn511   1.933   .     S
O505   Zn508   1.930   .     S
O506   Zn509   1.936   .     S
O507   Zn510   1.927   .     S
C512   O577    1.269   .     A
C512   O575    1.266   .     A
C512   C518    1.440   .     S
C513   C527    1.403   .     A
C513   O572    1.388   .     S
C513   C538    1.416   .     A
C514   H560    1.084   .     S
C514   C526    1.386   .     A
C514   C527    1.395   .     A
C515   C517    1.456   .     S
C515   O576    1.291   .     A
C515   O578    1.276   .     A
C516   C528    1.403   .     A
C516   C537    1.418   .     A
C516   C525    1.471   .     S
C517   C591    1.346   .     S
C517   H631    1.087   .     S
C519   C522    1.451   .     S
C519   C82     1.331   1_565 S
C519   H104    1.088   1_565 S
C520   C521    1.435   .     S
C521   O579    1.277   .     A
C521   O573    1.277   .     A
C522   O580    1.275   .     A
C522   O574    1.276   .     A
C523   C528    1.386   .     A
C523   H556    1.083   .     S
C523   C1191   1.389   .     S
C524   C527    1.445   .     S
C524   O567    1.269   .     A
C524   O569    1.277   .     A
C525   O570    1.282   .     A
C525   O568    1.281   .     A
C526   H553    1.084   .     S
C526   C1196   1.399   1_554 S
C528   H559    1.083   .     S
C529   H561    1.111   .     S
C529   O571    1.418   .     S
C529   C603    1.533   .     S
C529   H635    1.116   .     S
C530   H564    1.110   .     S
C530   C531    1.526   .     S
C531   H565    1.111   .     S
C531   H543    1.110   .     S
C532   O572    1.421   .     S
C532   H547    1.111   .     S
C532   C533    1.532   .     S
C532   H548    1.117   .     S
C533   C535    1.526   .     S
C533   H550    1.110   .     S
C533   H549    1.112   .     S
C534   H555    1.077   .     S
C534   C1180   1.389   1_554 S
C534   C1193   1.415   1_554 S
C535   H552    1.110   .     S
C535   H551    1.111   .     S
C535   H554    1.109   .     S
C536   C537    1.421   .     A
C536   C1191   1.415   .     S
C536   C1195   1.424   .     S
C537   C541    1.411   .     A
C538   C1193   1.424   1_554 S
C538   C1196   1.422   1_554 S
C539   C540    1.391   .     A
C539   C1195   1.422   .     S
C539   C1183   1.399   .     S
C540   H546    1.084   .     S
C540   C541    1.383   .     A
C541   H557    1.080   .     S
H544   C604    1.111   .     S
H545   C82     1.086   1_565 S
H563   C603    1.112   .     S
O566   Zn583   1.947   .     S
O566   Zn581   1.960   .     S
O566   Zn582   1.940   .     S
O566   Zn584   1.935   .     S
O567   Zn582   1.945   .     S
O568   Zn584   1.950   .     S
O569   Zn583   1.941   .     S
O570   Zn581   1.937   .     S
O571   C591    1.395   .     S
O573   Zn581   1.926   .     S
O574   Zn584   1.933   .     S
O575   Zn582   1.931   .     S
O576   Zn583   1.937   .     S
O577   Zn584   1.933   .     S
O578   Zn581   1.930   .     S
O579   Zn582   1.936   .     S
O580   Zn583   1.927   .     S
C585   O650    1.269   .     A
C585   O648    1.266   .     A
C585   C591    1.440   .     S
C586   C600    1.403   .     A
C586   O645    1.388   .     S
C586   C611    1.416   .     A
C587   H633    1.084   .     S
C587   C599    1.386   .     A
C587   C600    1.395   .     A
C588   C590    1.456   .     S
C588   O649    1.291   .     A
C588   O651    1.276   .     A
C589   C601    1.403   .     A
C589   C610    1.418   .     A
C589   C598    1.471   .     S
C590   C445    1.346   1_655 S
C590   H485    1.087   1_655 S
C592   C595    1.451   .     S
C592   C155    1.331   1_565 S
C592   H177    1.088   1_565 S
C593   C594    1.435   .     S
C594   O652    1.277   .     A
C594   O646    1.277   .     A
C595   O653    1.275   .     A
C595   O647    1.276   .     A
C596   C601    1.386   .     A
C596   H629    1.083   .     S
C596   C1264   1.389   .     S
C597   C600    1.445   .     S
C597   O640    1.269   .     A
C597   O642    1.277   .     A
C598   O643    1.282   .     A
C598   O641    1.281   .     A
C599   H626    1.084   .     S
C599   C1269   1.399   1_554 S
C601   H632    1.083   .     S
C602   H634    1.111   .     S
C602   O644    1.418   .     S
C602   C457    1.533   1_655 S
C602   H489    1.116   1_655 S
C603   H637    1.110   .     S
C603   C604    1.526   .     S
C604   H638    1.111   .     S
C604   H616    1.110   .     S
C605   O645    1.421   .     S
C605   H620    1.111   .     S
C605   C606    1.532   .     S
C605   H621    1.117   .     S
C606   C608    1.526   .     S
C606   H623    1.110   .     S
C606   H622    1.112   .     S
C607   H628    1.077   .     S
C607   C1253   1.389   1_554 S
C607   C1266   1.415   1_554 S
C608   H625    1.110   .     S
C608   H624    1.111   .     S
C608   H627    1.109   .     S
C609   C610    1.421   .     A
C609   C1264   1.415   .     S
C609   C1268   1.424   .     S
C610   C614    1.411   .     A
C611   C1266   1.424   1_554 S
C611   C1269   1.422   1_554 S
C612   C613    1.391   .     A
C612   C1268   1.422   .     S
C612   C1256   1.399   .     S
C613   H619    1.084   .     S
C613   C614    1.383   .     A
C614   H630    1.080   .     S
H617   C458    1.111   1_655 S
H618   C155    1.086   1_565 S
H636   C457    1.112   1_655 S
O639   Zn656   1.947   .     S
O639   Zn654   1.960   .     S
O639   Zn655   1.940   .     S
O639   Zn657   1.935   .     S
O640   Zn655   1.945   .     S
O641   Zn657   1.950   .     S
O642   Zn656   1.941   .     S
O643   Zn654   1.937   .     S
O644   C445    1.395   1_655 S
O646   Zn654   1.926   .     S
O647   Zn657   1.933   .     S
O648   Zn655   1.931   .     S
O649   Zn656   1.937   .     S
O650   Zn657   1.933   .     S
O651   Zn654   1.930   .     S
O652   Zn655   1.936   .     S
O653   Zn656   1.927   .     S
C658   O723    1.269   .     A
C658   O721    1.266   .     A
C658   C664    1.440   .     S
C659   C673    1.403   .     A
C659   O718    1.388   .     S
C659   C684    1.416   .     A
C660   H706    1.084   .     S
C660   C672    1.386   .     A
C660   C673    1.395   .     A
C661   C663    1.456   .     S
C661   O722    1.291   .     A
C661   O724    1.276   .     A
C662   C674    1.403   .     A
C662   C683    1.418   .     A
C662   C671    1.471   .     S
C663   C737    1.346   .     S
C663   H777    1.087   .     S
C664   C809    1.346   1_455 S
C664   O863    1.395   1_455 S
C665   C668    1.451   .     S
C665   C885    1.331   .     S
C665   H907    1.088   .     S
C666   C667    1.435   .     S
C666   C1103   1.331   1_545 S
C666   H1129   1.086   1_545 S
C667   O725    1.277   .     A
C667   O719    1.277   .     A
C668   O726    1.275   .     A
C668   O720    1.276   .     A
C669   C674    1.386   .     A
C669   H702    1.083   .     S
C669   C23     1.389   1_556 S
C670   C673    1.445   .     S
C670   O713    1.269   .     A
C670   O715    1.277   .     A
C671   O716    1.282   .     A
C671   O714    1.281   .     A
C672   H699    1.084   .     S
C674   H705    1.083   .     S
C675   H707    1.111   .     S
C675   O717    1.418   .     S
C675   C749    1.533   .     S
C675   H781    1.116   .     S
C676   H710    1.110   .     S
C676   C677    1.526   .     S
C676   C821    1.533   1_455 S
C676   H855    1.112   1_455 S
C677   H711    1.111   .     S
C677   H689    1.110   .     S
C677   H836    1.111   1_455 S
C678   O718    1.421   .     S
C678   H693    1.111   .     S
C678   C679    1.532   .     S
C678   H694    1.117   .     S
C679   C681    1.526   .     S
C679   H696    1.110   .     S
C679   H695    1.112   .     S
C680   H701    1.077   .     S
C681   H698    1.110   .     S
C681   H697    1.111   .     S
C681   H700    1.109   .     S
C682   C683    1.421   .     A
C682   C23     1.415   1_556 S
C682   C27     1.424   1_556 S
C683   C687    1.411   .     A
C685   C686    1.391   .     A
C685   C27     1.422   1_556 S
C685   C15     1.399   1_556 S
C686   H692    1.084   .     S
C686   C687    1.383   .     A
C687   H703    1.080   .     S
H688   C1103   1.088   1_545 S
H690   C750    1.111   .     S
H691   C885    1.086   .     S
H704   C809    1.087   1_455 S
H708   C821    1.116   1_455 S
H709   C749    1.112   .     S
O712   Zn729   1.947   .     S
O712   Zn727   1.960   .     S
O712   Zn728   1.940   .     S
O712   Zn730   1.935   .     S
O713   Zn728   1.945   .     S
O714   Zn730   1.950   .     S
O715   Zn729   1.941   .     S
O716   Zn727   1.937   .     S
O717   C737    1.395   .     S
O719   Zn727   1.926   .     S
O720   Zn730   1.933   .     S
O721   Zn728   1.931   .     S
O722   Zn729   1.937   .     S
O723   Zn730   1.933   .     S
O724   Zn727   1.930   .     S
O725   Zn728   1.936   .     S
O726   Zn729   1.927   .     S
C731   O796    1.269   .     A
C731   O794    1.266   .     A
C731   C737    1.440   .     S
C732   C746    1.403   .     A
C732   O791    1.388   .     S
C732   C757    1.416   .     A
C733   H779    1.084   .     S
C733   C745    1.386   .     A
C733   C746    1.395   .     A
C734   C736    1.456   .     S
C734   O795    1.291   .     A
C734   O797    1.276   .     A
C735   C747    1.403   .     A
C735   C756    1.418   .     A
C735   C744    1.471   .     S
C736   C810    1.346   .     S
C736   H850    1.087   .     S
C738   C741    1.451   .     S
C738   C958    1.331   .     S
C738   H980    1.088   .     S
C739   C740    1.435   .     S
C739   C1176   1.331   1_545 S
C739   H1202   1.086   1_545 S
C740   O798    1.277   .     A
C740   O792    1.277   .     A
C741   O799    1.275   .     A
C741   O793    1.276   .     A
C742   C747    1.386   .     A
C742   H775    1.083   .     S
C742   C96     1.389   1_556 S
C743   C746    1.445   .     S
C743   O786    1.269   .     A
C743   O788    1.277   .     A
C744   O789    1.282   .     A
C744   O787    1.281   .     A
C745   H772    1.084   .     S
C747   H778    1.083   .     S
C748   H780    1.111   .     S
C748   O790    1.418   .     S
C748   C822    1.533   .     S
C748   H854    1.116   .     S
C749   H783    1.110   .     S
C749   C750    1.526   .     S
C750   H784    1.111   .     S
C750   H762    1.110   .     S
C751   O791    1.421   .     S
C751   H766    1.111   .     S
C751   C752    1.532   .     S
C751   H767    1.117   .     S
C752   C754    1.526   .     S
C752   H769    1.110   .     S
C752   H768    1.112   .     S
C753   H774    1.077   .     S
C754   H771    1.110   .     S
C754   H770    1.111   .     S
C754   H773    1.109   .     S
C755   C756    1.421   .     A
C755   C96     1.415   1_556 S
C755   C100    1.424   1_556 S
C756   C760    1.411   .     A
C758   C759    1.391   .     A
C758   C100    1.422   1_556 S
C758   C88     1.399   1_556 S
C759   H765    1.084   .     S
C759   C760    1.383   .     A
C760   H776    1.080   .     S
H761   C1176   1.088   1_545 S
H763   C823    1.111   .     S
H764   C958    1.086   .     S
H782   C822    1.112   .     S
O785   Zn802   1.947   .     S
O785   Zn800   1.960   .     S
O785   Zn801   1.940   .     S
O785   Zn803   1.935   .     S
O786   Zn801   1.945   .     S
O787   Zn803   1.950   .     S
O788   Zn802   1.941   .     S
O789   Zn800   1.937   .     S
O790   C810    1.395   .     S
O792   Zn800   1.926   .     S
O793   Zn803   1.933   .     S
O794   Zn801   1.931   .     S
O795   Zn802   1.937   .     S
O796   Zn803   1.933   .     S
O797   Zn800   1.930   .     S
O798   Zn801   1.936   .     S
O799   Zn802   1.927   .     S
C804   O869    1.269   .     A
C804   O867    1.266   .     A
C804   C810    1.440   .     S
C805   C819    1.403   .     A
C805   O864    1.388   .     S
C805   C830    1.416   .     A
C806   H852    1.084   .     S
C806   C818    1.386   .     A
C806   C819    1.395   .     A
C807   C809    1.456   .     S
C807   O868    1.291   .     A
C807   O870    1.276   .     A
C808   C820    1.403   .     A
C808   C829    1.418   .     A
C808   C817    1.471   .     S
C809   C664    1.346   1_655 S
C809   H704    1.087   1_655 S
C811   C814    1.451   .     S
C811   C1031   1.331   .     S
C811   H1053   1.088   .     S
C812   C813    1.435   .     S
C812   C1249   1.331   1_545 S
C812   H1275   1.086   1_545 S
C813   O871    1.277   .     A
C813   O865    1.277   .     A
C814   O872    1.275   .     A
C814   O866    1.276   .     A
C815   C820    1.386   .     A
C815   H848    1.083   .     S
C815   C169    1.389   1_556 S
C816   C819    1.445   .     S
C816   O859    1.269   .     A
C816   O861    1.277   .     A
C817   O862    1.282   .     A
C817   O860    1.281   .     A
C818   H845    1.084   .     S
C820   H851    1.083   .     S
C821   H853    1.111   .     S
C821   O863    1.418   .     S
C821   C676    1.533   1_655 S
C821   H708    1.116   1_655 S
C822   H856    1.110   .     S
C822   C823    1.526   .     S
C823   H857    1.111   .     S
C823   H835    1.110   .     S
C824   O864    1.421   .     S
C824   H839    1.111   .     S
C824   C825    1.532   .     S
C824   H840    1.117   .     S
C825   C827    1.526   .     S
C825   H842    1.110   .     S
C825   H841    1.112   .     S
C826   H847    1.077   .     S
C827   H844    1.110   .     S
C827   H843    1.111   .     S
C827   H846    1.109   .     S
C828   C829    1.421   .     A
C828   C169    1.415   1_556 S
C828   C173    1.424   1_556 S
C829   C833    1.411   .     A
C831   C832    1.391   .     A
C831   C173    1.422   1_556 S
C831   C161    1.399   1_556 S
C832   H838    1.084   .     S
C832   C833    1.383   .     A
C833   H849    1.080   .     S
H834   C1249   1.088   1_545 S
H836   C677    1.111   1_655 S
H837   C1031   1.086   .     S
H855   C676    1.112   1_655 S
O858   Zn875   1.947   .     S
O858   Zn873   1.960   .     S
O858   Zn874   1.940   .     S
O858   Zn876   1.935   .     S
O859   Zn874   1.945   .     S
O860   Zn876   1.950   .     S
O861   Zn875   1.941   .     S
O862   Zn873   1.937   .     S
O863   C664    1.395   1_655 S
O865   Zn873   1.926   .     S
O866   Zn876   1.933   .     S
O867   Zn874   1.931   .     S
O868   Zn875   1.937   .     S
O869   Zn876   1.933   .     S
O870   Zn873   1.930   .     S
O871   Zn874   1.936   .     S
O872   Zn875   1.927   .     S
C877   O942    1.269   .     A
C877   O940    1.266   .     A
C877   C883    1.440   .     S
C878   C892    1.403   .     A
C878   O937    1.388   .     S
C878   C903    1.416   .     A
C879   H925    1.084   .     S
C879   C891    1.386   .     A
C879   C892    1.395   .     A
C880   C882    1.456   .     S
C880   O941    1.291   .     A
C880   O943    1.276   .     A
C881   C893    1.403   .     A
C881   C902    1.418   .     A
C881   C890    1.471   .     S
C882   C956    1.346   .     S
C882   H996    1.087   .     S
C883   C1028   1.346   1_455 S
C883   O1082   1.395   1_455 S
C884   C887    1.451   .     S
C884   C1104   1.331   .     S
C884   H1126   1.088   .     S
C885   C886    1.435   .     S
C886   O944    1.277   .     A
C886   O938    1.277   .     A
C887   O945    1.275   .     A
C887   O939    1.276   .     A
C888   C893    1.386   .     A
C888   H921    1.083   .     S
C888   C242    1.389   1_556 S
C889   C892    1.445   .     S
C889   O932    1.269   .     A
C889   O934    1.277   .     A
C890   O935    1.282   .     A
C890   O933    1.281   .     A
C891   H918    1.084   .     S
C893   H924    1.083   .     S
C894   H926    1.111   .     S
C894   O936    1.418   .     S
C894   C968    1.533   .     S
C894   H1000   1.116   .     S
C895   H929    1.110   .     S
C895   C896    1.526   .     S
C895   C1040   1.533   1_455 S
C895   H1074   1.112   1_455 S
C896   H930    1.111   .     S
C896   H908    1.110   .     S
C896   H1055   1.111   1_455 S
C897   O937    1.421   .     S
C897   H912    1.111   .     S
C897   C898    1.532   .     S
C897   H913    1.117   .     S
C898   C900    1.526   .     S
C898   H915    1.110   .     S
C898   H914    1.112   .     S
C899   H920    1.077   .     S
C900   H917    1.110   .     S
C900   H916    1.111   .     S
C900   H919    1.109   .     S
C901   C902    1.421   .     A
C901   C242    1.415   1_556 S
C901   C246    1.424   1_556 S
C902   C906    1.411   .     A
C904   C905    1.391   .     A
C904   C246    1.422   1_556 S
C904   C234    1.399   1_556 S
C905   H911    1.084   .     S
C905   C906    1.383   .     A
C906   H922    1.080   .     S
H909   C969    1.111   .     S
H910   C1104   1.086   .     S
H923   C1028   1.087   1_455 S
H927   C1040   1.116   1_455 S
H928   C968    1.112   .     S
O931   Zn948   1.947   .     S
O931   Zn946   1.960   .     S
O931   Zn947   1.940   .     S
O931   Zn949   1.935   .     S
O932   Zn947   1.945   .     S
O933   Zn949   1.950   .     S
O934   Zn948   1.941   .     S
O935   Zn946   1.937   .     S
O936   C956    1.395   .     S
O938   Zn946   1.926   .     S
O939   Zn949   1.933   .     S
O940   Zn947   1.931   .     S
O941   Zn948   1.937   .     S
O942   Zn949   1.933   .     S
O943   Zn946   1.930   .     S
O944   Zn947   1.936   .     S
O945   Zn948   1.927   .     S
C950   O1015   1.269   .     A
C950   O1013   1.266   .     A
C950   C956    1.440   .     S
C951   C965    1.403   .     A
C951   O1010   1.388   .     S
C951   C976    1.416   .     A
C952   H998    1.084   .     S
C952   C964    1.386   .     A
C952   C965    1.395   .     A
C953   C955    1.456   .     S
C953   O1014   1.291   .     A
C953   O1016   1.276   .     A
C954   C966    1.403   .     A
C954   C975    1.418   .     A
C954   C963    1.471   .     S
C955   C1029   1.346   .     S
C955   H1069   1.087   .     S
C957   C960    1.451   .     S
C957   C1177   1.331   .     S
C957   H1199   1.088   .     S
C958   C959    1.435   .     S
C959   O1017   1.277   .     A
C959   O1011   1.277   .     A
C960   O1018   1.275   .     A
C960   O1012   1.276   .     A
C961   C966    1.386   .     A
C961   H994    1.083   .     S
C961   C315    1.389   1_556 S
C962   C965    1.445   .     S
C962   O1005   1.269   .     A
C962   O1007   1.277   .     A
C963   O1008   1.282   .     A
C963   O1006   1.281   .     A
C964   H991    1.084   .     S
C966   H997    1.083   .     S
C967   H999    1.111   .     S
C967   O1009   1.418   .     S
C967   C1041   1.533   .     S
C967   H1073   1.116   .     S
C968   H1002   1.110   .     S
C968   C969    1.526   .     S
C969   H1003   1.111   .     S
C969   H981    1.110   .     S
C970   O1010   1.421   .     S
C970   H985    1.111   .     S
C970   C971    1.532   .     S
C970   H986    1.117   .     S
C971   C973    1.526   .     S
C971   H988    1.110   .     S
C971   H987    1.112   .     S
C972   H993    1.077   .     S
C973   H990    1.110   .     S
C973   H989    1.111   .     S
C973   H992    1.109   .     S
C974   C975    1.421   .     A
C974   C315    1.415   1_556 S
C974   C319    1.424   1_556 S
C975   C979    1.411   .     A
C977   C978    1.391   .     A
C977   C319    1.422   1_556 S
C977   C307    1.399   1_556 S
C978   H984    1.084   .     S
C978   C979    1.383   .     A
C979   H995    1.080   .     S
H982   C1042   1.111   .     S
H983   C1177   1.086   .     S
H1001  C1041   1.112   .     S
O1004  Zn1021  1.947   .     S
O1004  Zn1019  1.960   .     S
O1004  Zn1020  1.940   .     S
O1004  Zn1022  1.935   .     S
O1005  Zn1020  1.945   .     S
O1006  Zn1022  1.950   .     S
O1007  Zn1021  1.941   .     S
O1008  Zn1019  1.937   .     S
O1009  C1029   1.395   .     S
O1011  Zn1019  1.926   .     S
O1012  Zn1022  1.933   .     S
O1013  Zn1020  1.931   .     S
O1014  Zn1021  1.937   .     S
O1015  Zn1022  1.933   .     S
O1016  Zn1019  1.930   .     S
O1017  Zn1020  1.936   .     S
O1018  Zn1021  1.927   .     S
C1023  O1088   1.269   .     A
C1023  O1086   1.266   .     A
C1023  C1029   1.440   .     S
C1024  C1038   1.403   .     A
C1024  O1083   1.388   .     S
C1024  C1049   1.416   .     A
C1025  H1071   1.084   .     S
C1025  C1037   1.386   .     A
C1025  C1038   1.395   .     A
C1026  C1028   1.456   .     S
C1026  O1087   1.291   .     A
C1026  O1089   1.276   .     A
C1027  C1039   1.403   .     A
C1027  C1048   1.418   .     A
C1027  C1036   1.471   .     S
C1028  C883    1.346   1_655 S
C1028  H923    1.087   1_655 S
C1030  C1033   1.451   .     S
C1030  C1250   1.331   .     S
C1030  H1272   1.088   .     S
C1031  C1032   1.435   .     S
C1032  O1090   1.277   .     A
C1032  O1084   1.277   .     A
C1033  O1091   1.275   .     A
C1033  O1085   1.276   .     A
C1034  C1039   1.386   .     A
C1034  H1067   1.083   .     S
C1034  C388    1.389   1_556 S
C1035  C1038   1.445   .     S
C1035  O1078   1.269   .     A
C1035  O1080   1.277   .     A
C1036  O1081   1.282   .     A
C1036  O1079   1.281   .     A
C1037  H1064   1.084   .     S
C1039  H1070   1.083   .     S
C1040  H1072   1.111   .     S
C1040  O1082   1.418   .     S
C1040  C895    1.533   1_655 S
C1040  H927    1.116   1_655 S
C1041  H1075   1.110   .     S
C1041  C1042   1.526   .     S
C1042  H1076   1.111   .     S
C1042  H1054   1.110   .     S
C1043  O1083   1.421   .     S
C1043  H1058   1.111   .     S
C1043  C1044   1.532   .     S
C1043  H1059   1.117   .     S
C1044  C1046   1.526   .     S
C1044  H1061   1.110   .     S
C1044  H1060   1.112   .     S
C1045  H1066   1.077   .     S
C1046  H1063   1.110   .     S
C1046  H1062   1.111   .     S
C1046  H1065   1.109   .     S
C1047  C1048   1.421   .     A
C1047  C388    1.415   1_556 S
C1047  C392    1.424   1_556 S
C1048  C1052   1.411   .     A
C1050  C1051   1.391   .     A
C1050  C392    1.422   1_556 S
C1050  C380    1.399   1_556 S
C1051  H1057   1.084   .     S
C1051  C1052   1.383   .     A
C1052  H1068   1.080   .     S
H1055  C896    1.111   1_655 S
H1056  C1250   1.086   .     S
H1074  C895    1.112   1_655 S
O1077  Zn1094  1.947   .     S
O1077  Zn1092  1.960   .     S
O1077  Zn1093  1.940   .     S
O1077  Zn1095  1.935   .     S
O1078  Zn1093  1.945   .     S
O1079  Zn1095  1.950   .     S
O1080  Zn1094  1.941   .     S
O1081  Zn1092  1.937   .     S
O1082  C883    1.395   1_655 S
O1084  Zn1092  1.926   .     S
O1085  Zn1095  1.933   .     S
O1086  Zn1093  1.931   .     S
O1087  Zn1094  1.937   .     S
O1088  Zn1095  1.933   .     S
O1089  Zn1092  1.930   .     S
O1090  Zn1093  1.936   .     S
O1091  Zn1094  1.927   .     S
C1096  O1161   1.269   .     A
C1096  O1159   1.266   .     A
C1096  C1102   1.440   .     S
C1097  C1111   1.403   .     A
C1097  O1156   1.388   .     S
C1097  C1122   1.416   .     A
C1098  H1144   1.084   .     S
C1098  C1110   1.386   .     A
C1098  C1111   1.395   .     A
C1099  C1101   1.456   .     S
C1099  O1160   1.291   .     A
C1099  O1162   1.276   .     A
C1100  C1112   1.403   .     A
C1100  C1121   1.418   .     A
C1100  C1109   1.471   .     S
C1101  C1175   1.346   .     S
C1101  H1215   1.087   .     S
C1102  C1247   1.346   1_455 S
C1102  O1301   1.395   1_455 S
C1103  C1106   1.451   .     S
C1103  C666    1.331   1_565 S
C1103  H688    1.088   1_565 S
C1104  C1105   1.435   .     S
C1105  O1163   1.277   .     A
C1105  O1157   1.277   .     A
C1106  O1164   1.275   .     A
C1106  O1158   1.276   .     A
C1107  C1112   1.386   .     A
C1107  H1140   1.083   .     S
C1107  C461    1.389   1_556 S
C1108  C1111   1.445   .     S
C1108  O1151   1.269   .     A
C1108  O1153   1.277   .     A
C1109  O1154   1.282   .     A
C1109  O1152   1.281   .     A
C1110  H1137   1.084   .     S
C1112  H1143   1.083   .     S
C1113  H1145   1.111   .     S
C1113  O1155   1.418   .     S
C1113  C1187   1.533   .     S
C1113  H1219   1.116   .     S
C1114  H1148   1.110   .     S
C1114  C1115   1.526   .     S
C1114  C1259   1.533   1_455 S
C1114  H1293   1.112   1_455 S
C1115  H1149   1.111   .     S
C1115  H1127   1.110   .     S
C1115  H1274   1.111   1_455 S
C1116  O1156   1.421   .     S
C1116  H1131   1.111   .     S
C1116  C1117   1.532   .     S
C1116  H1132   1.117   .     S
C1117  C1119   1.526   .     S
C1117  H1134   1.110   .     S
C1117  H1133   1.112   .     S
C1118  H1139   1.077   .     S
C1119  H1136   1.110   .     S
C1119  H1135   1.111   .     S
C1119  H1138   1.109   .     S
C1120  C1121   1.421   .     A
C1120  C461    1.415   1_556 S
C1120  C465    1.424   1_556 S
C1121  C1125   1.411   .     A
C1123  C1124   1.391   .     A
C1123  C465    1.422   1_556 S
C1123  C453    1.399   1_556 S
C1124  H1130   1.084   .     S
C1124  C1125   1.383   .     A
C1125  H1141   1.080   .     S
H1128  C1188   1.111   .     S
H1129  C666    1.086   1_565 S
H1142  C1247   1.087   1_455 S
H1146  C1259   1.116   1_455 S
H1147  C1187   1.112   .     S
O1150  Zn1167  1.947   .     S
O1150  Zn1165  1.960   .     S
O1150  Zn1166  1.940   .     S
O1150  Zn1168  1.935   .     S
O1151  Zn1166  1.945   .     S
O1152  Zn1168  1.950   .     S
O1153  Zn1167  1.941   .     S
O1154  Zn1165  1.937   .     S
O1155  C1175   1.395   .     S
O1157  Zn1165  1.926   .     S
O1158  Zn1168  1.933   .     S
O1159  Zn1166  1.931   .     S
O1160  Zn1167  1.937   .     S
O1161  Zn1168  1.933   .     S
O1162  Zn1165  1.930   .     S
O1163  Zn1166  1.936   .     S
O1164  Zn1167  1.927   .     S
C1169  O1234   1.269   .     A
C1169  O1232   1.266   .     A
C1169  C1175   1.440   .     S
C1170  C1184   1.403   .     A
C1170  O1229   1.388   .     S
C1170  C1195   1.416   .     A
C1171  H1217   1.084   .     S
C1171  C1183   1.386   .     A
C1171  C1184   1.395   .     A
C1172  C1174   1.456   .     S
C1172  O1233   1.291   .     A
C1172  O1235   1.276   .     A
C1173  C1185   1.403   .     A
C1173  C1194   1.418   .     A
C1173  C1182   1.471   .     S
C1174  C1248   1.346   .     S
C1174  H1288   1.087   .     S
C1176  C1179   1.451   .     S
C1176  C739    1.331   1_565 S
C1176  H761    1.088   1_565 S
C1177  C1178   1.435   .     S
C1178  O1236   1.277   .     A
C1178  O1230   1.277   .     A
C1179  O1237   1.275   .     A
C1179  O1231   1.276   .     A
C1180  C1185   1.386   .     A
C1180  H1213   1.083   .     S
C1180  C534    1.389   1_556 S
C1181  C1184   1.445   .     S
C1181  O1224   1.269   .     A
C1181  O1226   1.277   .     A
C1182  O1227   1.282   .     A
C1182  O1225   1.281   .     A
C1183  H1210   1.084   .     S
C1185  H1216   1.083   .     S
C1186  H1218   1.111   .     S
C1186  O1228   1.418   .     S
C1186  C1260   1.533   .     S
C1186  H1292   1.116   .     S
C1187  H1221   1.110   .     S
C1187  C1188   1.526   .     S
C1188  H1222   1.111   .     S
C1188  H1200   1.110   .     S
C1189  O1229   1.421   .     S
C1189  H1204   1.111   .     S
C1189  C1190   1.532   .     S
C1189  H1205   1.117   .     S
C1190  C1192   1.526   .     S
C1190  H1207   1.110   .     S
C1190  H1206   1.112   .     S
C1191  H1212   1.077   .     S
C1192  H1209   1.110   .     S
C1192  H1208   1.111   .     S
C1192  H1211   1.109   .     S
C1193  C1194   1.421   .     A
C1193  C534    1.415   1_556 S
C1193  C538    1.424   1_556 S
C1194  C1198   1.411   .     A
C1196  C1197   1.391   .     A
C1196  C538    1.422   1_556 S
C1196  C526    1.399   1_556 S
C1197  H1203   1.084   .     S
C1197  C1198   1.383   .     A
C1198  H1214   1.080   .     S
H1201  C1261   1.111   .     S
H1202  C739    1.086   1_565 S
H1220  C1260   1.112   .     S
O1223  Zn1240  1.947   .     S
O1223  Zn1238  1.960   .     S
O1223  Zn1239  1.940   .     S
O1223  Zn1241  1.935   .     S
O1224  Zn1239  1.945   .     S
O1225  Zn1241  1.950   .     S
O1226  Zn1240  1.941   .     S
O1227  Zn1238  1.937   .     S
O1228  C1248   1.395   .     S
O1230  Zn1238  1.926   .     S
O1231  Zn1241  1.933   .     S
O1232  Zn1239  1.931   .     S
O1233  Zn1240  1.937   .     S
O1234  Zn1241  1.933   .     S
O1235  Zn1238  1.930   .     S
O1236  Zn1239  1.936   .     S
O1237  Zn1240  1.927   .     S
C1242  O1307   1.269   .     A
C1242  O1305   1.266   .     A
C1242  C1248   1.440   .     S
C1243  C1257   1.403   .     A
C1243  O1302   1.388   .     S
C1243  C1268   1.416   .     A
C1244  H1290   1.084   .     S
C1244  C1256   1.386   .     A
C1244  C1257   1.395   .     A
C1245  C1247   1.456   .     S
C1245  O1306   1.291   .     A
C1245  O1308   1.276   .     A
C1246  C1258   1.403   .     A
C1246  C1267   1.418   .     A
C1246  C1255   1.471   .     S
C1247  C1102   1.346   1_655 S
C1247  H1142   1.087   1_655 S
C1249  C1252   1.451   .     S
C1249  C812    1.331   1_565 S
C1249  H834    1.088   1_565 S
C1250  C1251   1.435   .     S
C1251  O1309   1.277   .     A
C1251  O1303   1.277   .     A
C1252  O1310   1.275   .     A
C1252  O1304   1.276   .     A
C1253  C1258   1.386   .     A
C1253  H1286   1.083   .     S
C1253  C607    1.389   1_556 S
C1254  C1257   1.445   .     S
C1254  O1297   1.269   .     A
C1254  O1299   1.277   .     A
C1255  O1300   1.282   .     A
C1255  O1298   1.281   .     A
C1256  H1283   1.084   .     S
C1258  H1289   1.083   .     S
C1259  H1291   1.111   .     S
C1259  O1301   1.418   .     S
C1259  C1114   1.533   1_655 S
C1259  H1146   1.116   1_655 S
C1260  H1294   1.110   .     S
C1260  C1261   1.526   .     S
C1261  H1295   1.111   .     S
C1261  H1273   1.110   .     S
C1262  O1302   1.421   .     S
C1262  H1277   1.111   .     S
C1262  C1263   1.532   .     S
C1262  H1278   1.117   .     S
C1263  C1265   1.526   .     S
C1263  H1280   1.110   .     S
C1263  H1279   1.112   .     S
C1264  H1285   1.077   .     S
C1265  H1282   1.110   .     S
C1265  H1281   1.111   .     S
C1265  H1284   1.109   .     S
C1266  C1267   1.421   .     A
C1266  C607    1.415   1_556 S
C1266  C611    1.424   1_556 S
C1267  C1271   1.411   .     A
C1269  C1270   1.391   .     A
C1269  C611    1.422   1_556 S
C1269  C599    1.399   1_556 S
C1270  H1276   1.084   .     S
C1270  C1271   1.383   .     A
C1271  H1287   1.080   .     S
H1274  C1115   1.111   1_655 S
H1275  C812    1.086   1_565 S
H1293  C1114   1.112   1_655 S
O1296  Zn1313  1.947   .     S
O1296  Zn1311  1.960   .     S
O1296  Zn1312  1.940   .     S
O1296  Zn1314  1.935   .     S
O1297  Zn1312  1.945   .     S
O1298  Zn1314  1.950   .     S
O1299  Zn1313  1.941   .     S
O1300  Zn1311  1.937   .     S
O1301  C1102   1.395   1_655 S
O1303  Zn1311  1.926   .     S
O1304  Zn1314  1.933   .     S
O1305  Zn1312  1.931   .     S
O1306  Zn1313  1.937   .     S
O1307  Zn1314  1.933   .     S
O1308  Zn1311  1.930   .     S
O1309  Zn1312  1.936   .     S
O1310  Zn1313  1.927   .     S
