data_str_m2_o1_o16_pcu_sym.168
_audit_creation_date              2020-01-03
_audit_creation_method            'Materials Studio'
_symmetry_space_group_name_H-M    'P1'
_symmetry_Int_Tables_number       1
_symmetry_cell_setting            triclinic
loop_
_symmetry_equiv_pos_as_xyz
  x,y,z
_cell_length_a                    28.7265
_cell_length_b                    32.6568
_cell_length_c                    26.7494
_cell_angle_alpha                 91.4997
_cell_angle_beta                  73.7807
_cell_angle_gamma                 89.2508
loop_
_atom_site_label
_atom_site_type_symbol
_atom_site_fract_x
_atom_site_fract_y
_atom_site_fract_z
_atom_site_U_iso_or_equiv
_atom_site_adp_type
_atom_site_occupancy
C1     C     0.16686   0.24577   0.24757   0.00000  Uiso   1.00
C2     C     0.14621   0.15605   0.48725   0.00000  Uiso   1.00
C3     C     0.16298   0.14815   0.43282   0.00000  Uiso   1.00
C4     C     0.18165   0.16470   0.01404   0.00000  Uiso   1.00
C5     C     0.22923   0.17440   0.48551   0.00000  Uiso   1.00
C6     C     0.24528   0.16328   0.43296   0.00000  Uiso   1.00
C7     C     0.21378   0.14387   0.40939   0.00000  Uiso   1.00
C8     C     0.17308   0.16011   0.06751   0.00000  Uiso   1.00
C9     C     0.24871   0.19361   0.06561   0.00000  Uiso   1.00
C10    C     0.12869   0.14583   0.40372   0.00000  Uiso   1.00
C11    C     0.20688   0.31039   0.25283   0.00000  Uiso   1.00
C12    C     0.14167   0.15938   0.34853   0.00000  Uiso   1.00
C13    C     0.20997   0.01932   0.25161   0.00000  Uiso   1.00
C14    C     0.16993   0.04253   0.24529   0.00000  Uiso   1.00
C15    C     0.13051   0.02236   0.23538   0.00000  Uiso   1.00
C16    C     0.12943   0.31313   0.23224   0.00000  Uiso   1.00
C17    C     0.16715   0.29028   0.24392   0.00000  Uiso   1.00
C18    C     0.29955   0.19196   0.28374   0.00000  Uiso   1.00
C19    C     0.01569   0.19186   0.28387   0.00000  Uiso   1.00
C20    C     0.03317   0.14116   0.21600   0.00000  Uiso   1.00
C21    C     0.31700   0.14202   0.21620   0.00000  Uiso   1.00
C22    C     0.16763   0.08735   0.24857   0.00000  Uiso   1.00
C23    C     0.19224   0.16942   0.15039   0.00000  Uiso   1.00
C24    C     0.26148   0.19081   0.01101   0.00000  Uiso   1.00
C25    C     0.20584   0.17427   0.09379   0.00000  Uiso   1.00
C26    C     0.08132   0.13307   0.42943   0.00000  Uiso   1.00
C27    C     0.06466   0.13686   0.48456   0.00000  Uiso   1.00
C28    C     0.09525   0.15490   0.01199   0.00000  Uiso   1.00
Cu29   Cu    0.11978   0.16666   0.25000   0.00000  Uiso   1.00
Cu30   Cu    0.21355   0.16667   0.25000   0.00000  Uiso   1.00
H31    H     0.10103   0.03994   0.22792   0.00000  Uiso   1.00
H32    H     0.30453   0.12288   0.18916   0.00000  Uiso   1.00
H33    H     0.28332   0.16495   0.41239   0.00000  Uiso   1.00
H34    H     0.29655   0.20115   0.48825   0.00000  Uiso   1.00
H35    H     0.14155   0.14390   0.08884   0.00000  Uiso   1.00
H36    H     0.23683   0.29293   0.25945   0.00000  Uiso   1.00
N37    N     0.04931   0.16666   0.24999   0.00000  Uiso   1.00
N38    N     0.28402   0.16669   0.25000   0.00000  Uiso   1.00
O39    O     0.12708   0.22678   0.25001   0.00000  Uiso   1.00
O40    O     0.20627   0.22679   0.25001   0.00000  Uiso   1.00
O41    O     0.10775   0.16665   0.32549   0.00000  Uiso   1.00
O42    O     0.18694   0.16666   0.32549   0.00000  Uiso   1.00
O43    O     0.12706   0.10654   0.25000   0.00000  Uiso   1.00
O44    O     0.20625   0.10655   0.25000   0.00000  Uiso   1.00
O45    O     0.14640   0.16667   0.17451   0.00000  Uiso   1.00
O46    O     0.22559   0.16668   0.17451   0.00000  Uiso   1.00
C47    C     0.27949   0.21758   0.09159   0.00000  Uiso   1.00
H48    H     0.26790   0.22446   0.13308   0.00000  Uiso   1.00
O49    O     0.31778   0.23161   0.06634   0.00000  Uiso   1.00
C50    C     0.25650   0.03686   0.25495   0.00000  Uiso   1.00
H51    H     0.27295   0.06146   0.23030   0.00000  Uiso   1.00
O52    O     0.27822   0.02252   0.28395   0.00000  Uiso   1.00
C53    C     0.09034   0.29417   0.21351   0.00000  Uiso   1.00
H54    H     0.09644   0.26511   0.19195   0.00000  Uiso   1.00
O55    O     0.05097   0.31150   0.22075   0.00000  Uiso   1.00
Cl56   Cl    0.25859   0.22640   0.32678   0.00000  Uiso   1.00
C57    C     0.03048   0.21979   0.32052   0.00000  Uiso   1.00
H58    H     0.04901   0.24774   0.30703   0.00000  Uiso   1.00
O59    O     0.01987   0.21264   0.36684   0.00000  Uiso   1.00
C60    C     0.06564   0.11156   0.17841   0.00000  Uiso   1.00
H61    H     0.10347   0.10807   0.17496   0.00000  Uiso   1.00
O62    O     0.04984   0.08948   0.14963   0.00000  Uiso   1.00
C63    C     0.04974   0.11548   0.39911   0.00000  Uiso   1.00
H64    H     0.01085   0.12010   0.41236   0.00000  Uiso   1.00
O65    O     0.06691   0.09414   0.35994   0.00000  Uiso   1.00
C66    C     0.07299   0.17542   0.06365   0.00000  Uiso   1.00
H67    H     0.04401   0.16135   0.09260   0.00000  Uiso   1.00
O68    O     0.08657   0.20908   0.07395   0.00000  Uiso   1.00
C69    C     0.01586   0.12233   0.01380   0.00000  Uiso   1.00
H70    H     0.32832   0.13806   0.04917   0.00000  Uiso   1.00
O71    O     0.33249   0.09127   0.49991   0.00000  Uiso   1.00
C72    C     0.23513   0.11335   0.36686   0.00000  Uiso   1.00
H73    H     0.27339   0.11408   0.34599   0.00000  Uiso   1.00
O74    O     0.21050   0.08606   0.35628   0.00000  Uiso   1.00
C75    C     0.50019   0.24577   0.24757   0.00000  Uiso   1.00
C76    C     0.47954   0.15605   0.48725   0.00000  Uiso   1.00
C77    C     0.49631   0.14815   0.43282   0.00000  Uiso   1.00
C78    C     0.51499   0.16470   0.01404   0.00000  Uiso   1.00
C79    C     0.56256   0.17440   0.48551   0.00000  Uiso   1.00
C80    C     0.57862   0.16328   0.43296   0.00000  Uiso   1.00
C81    C     0.54711   0.14387   0.40939   0.00000  Uiso   1.00
C82    C     0.50641   0.16011   0.06751   0.00000  Uiso   1.00
C83    C     0.58205   0.19361   0.06561   0.00000  Uiso   1.00
C84    C     0.46202   0.14583   0.40372   0.00000  Uiso   1.00
C85    C     0.54021   0.31039   0.25283   0.00000  Uiso   1.00
C86    C     0.47500   0.15938   0.34853   0.00000  Uiso   1.00
C87    C     0.54330   0.01932   0.25161   0.00000  Uiso   1.00
C88    C     0.50326   0.04253   0.24529   0.00000  Uiso   1.00
C89    C     0.46384   0.02236   0.23538   0.00000  Uiso   1.00
C90    C     0.46277   0.31313   0.23224   0.00000  Uiso   1.00
C91    C     0.50048   0.29028   0.24392   0.00000  Uiso   1.00
C92    C     0.63288   0.19196   0.28374   0.00000  Uiso   1.00
C93    C     0.34902   0.19186   0.28387   0.00000  Uiso   1.00
C94    C     0.36650   0.14116   0.21600   0.00000  Uiso   1.00
C95    C     0.65034   0.14202   0.21620   0.00000  Uiso   1.00
C96    C     0.50096   0.08735   0.24857   0.00000  Uiso   1.00
C97    C     0.52557   0.16942   0.15039   0.00000  Uiso   1.00
C98    C     0.59482   0.19081   0.01101   0.00000  Uiso   1.00
C99    C     0.53918   0.17427   0.09379   0.00000  Uiso   1.00
C100   C     0.41465   0.13307   0.42943   0.00000  Uiso   1.00
C101   C     0.39799   0.13686   0.48456   0.00000  Uiso   1.00
C102   C     0.42859   0.15490   0.01199   0.00000  Uiso   1.00
Cu103  Cu    0.45311   0.16666   0.25000   0.00000  Uiso   1.00
Cu104  Cu    0.54689   0.16667   0.25000   0.00000  Uiso   1.00
H105   H     0.43436   0.03994   0.22792   0.00000  Uiso   1.00
H106   H     0.63786   0.12288   0.18916   0.00000  Uiso   1.00
H107   H     0.61665   0.16495   0.41239   0.00000  Uiso   1.00
H108   H     0.62989   0.20115   0.48825   0.00000  Uiso   1.00
H109   H     0.47488   0.14390   0.08884   0.00000  Uiso   1.00
H110   H     0.57016   0.29293   0.25945   0.00000  Uiso   1.00
N111   N     0.38265   0.16666   0.24999   0.00000  Uiso   1.00
N112   N     0.61735   0.16669   0.25000   0.00000  Uiso   1.00
O113   O     0.46042   0.22678   0.25001   0.00000  Uiso   1.00
O114   O     0.53961   0.22679   0.25001   0.00000  Uiso   1.00
O115   O     0.44108   0.16665   0.32549   0.00000  Uiso   1.00
O116   O     0.52027   0.16666   0.32549   0.00000  Uiso   1.00
O117   O     0.46039   0.10654   0.25000   0.00000  Uiso   1.00
O118   O     0.53958   0.10655   0.25000   0.00000  Uiso   1.00
O119   O     0.47973   0.16667   0.17451   0.00000  Uiso   1.00
O120   O     0.55892   0.16668   0.17451   0.00000  Uiso   1.00
C121   C     0.61283   0.21758   0.09159   0.00000  Uiso   1.00
H122   H     0.60124   0.22446   0.13308   0.00000  Uiso   1.00
O123   O     0.65112   0.23161   0.06634   0.00000  Uiso   1.00
C124   C     0.58983   0.03686   0.25495   0.00000  Uiso   1.00
H125   H     0.60628   0.06146   0.23030   0.00000  Uiso   1.00
O126   O     0.61155   0.02252   0.28395   0.00000  Uiso   1.00
C127   C     0.42367   0.29417   0.21351   0.00000  Uiso   1.00
H128   H     0.42977   0.26511   0.19195   0.00000  Uiso   1.00
O129   O     0.38430   0.31150   0.22075   0.00000  Uiso   1.00
Cl130  Cl    0.59192   0.22640   0.32678   0.00000  Uiso   1.00
C131   C     0.36381   0.21979   0.32052   0.00000  Uiso   1.00
H132   H     0.38235   0.24774   0.30703   0.00000  Uiso   1.00
O133   O     0.35320   0.21264   0.36684   0.00000  Uiso   1.00
C134   C     0.39897   0.11156   0.17841   0.00000  Uiso   1.00
H135   H     0.43680   0.10807   0.17496   0.00000  Uiso   1.00
O136   O     0.38317   0.08948   0.14963   0.00000  Uiso   1.00
C137   C     0.38307   0.11548   0.39911   0.00000  Uiso   1.00
H138   H     0.34418   0.12010   0.41236   0.00000  Uiso   1.00
O139   O     0.40024   0.09414   0.35994   0.00000  Uiso   1.00
C140   C     0.40632   0.17542   0.06365   0.00000  Uiso   1.00
H141   H     0.37735   0.16135   0.09260   0.00000  Uiso   1.00
O142   O     0.41990   0.20908   0.07395   0.00000  Uiso   1.00
C143   C     0.34919   0.12233   0.01380   0.00000  Uiso   1.00
H144   H     0.66165   0.13806   0.04917   0.00000  Uiso   1.00
O145   O     0.66582   0.09127   0.49991   0.00000  Uiso   1.00
C146   C     0.56846   0.11335   0.36686   0.00000  Uiso   1.00
H147   H     0.60673   0.11408   0.34599   0.00000  Uiso   1.00
O148   O     0.54383   0.08606   0.35628   0.00000  Uiso   1.00
C149   C     0.83353   0.24577   0.24757   0.00000  Uiso   1.00
C150   C     0.81288   0.15605   0.48725   0.00000  Uiso   1.00
C151   C     0.82965   0.14815   0.43282   0.00000  Uiso   1.00
C152   C     0.84832   0.16470   0.01404   0.00000  Uiso   1.00
C153   C     0.89590   0.17440   0.48551   0.00000  Uiso   1.00
C154   C     0.91195   0.16328   0.43296   0.00000  Uiso   1.00
C155   C     0.88045   0.14387   0.40939   0.00000  Uiso   1.00
C156   C     0.83974   0.16011   0.06751   0.00000  Uiso   1.00
C157   C     0.91538   0.19361   0.06561   0.00000  Uiso   1.00
C158   C     0.79535   0.14583   0.40372   0.00000  Uiso   1.00
C159   C     0.87354   0.31039   0.25283   0.00000  Uiso   1.00
C160   C     0.80833   0.15938   0.34853   0.00000  Uiso   1.00
C161   C     0.87664   0.01932   0.25161   0.00000  Uiso   1.00
C162   C     0.83660   0.04253   0.24529   0.00000  Uiso   1.00
C163   C     0.79717   0.02236   0.23538   0.00000  Uiso   1.00
C164   C     0.79610   0.31313   0.23224   0.00000  Uiso   1.00
C165   C     0.83381   0.29028   0.24392   0.00000  Uiso   1.00
C166   C     0.96622   0.19196   0.28374   0.00000  Uiso   1.00
C167   C     0.68235   0.19186   0.28387   0.00000  Uiso   1.00
C168   C     0.69983   0.14116   0.21600   0.00000  Uiso   1.00
C169   C     0.98367   0.14202   0.21620   0.00000  Uiso   1.00
C170   C     0.83430   0.08735   0.24857   0.00000  Uiso   1.00
C171   C     0.85890   0.16942   0.15039   0.00000  Uiso   1.00
C172   C     0.92815   0.19081   0.01101   0.00000  Uiso   1.00
C173   C     0.87251   0.17427   0.09379   0.00000  Uiso   1.00
C174   C     0.74799   0.13307   0.42943   0.00000  Uiso   1.00
C175   C     0.73133   0.13686   0.48456   0.00000  Uiso   1.00
C176   C     0.76192   0.15490   0.01199   0.00000  Uiso   1.00
Cu177  Cu    0.78645   0.16666   0.25000   0.00000  Uiso   1.00
Cu178  Cu    0.88022   0.16667   0.25000   0.00000  Uiso   1.00
H179   H     0.76770   0.03994   0.22792   0.00000  Uiso   1.00
H180   H     0.97119   0.12288   0.18916   0.00000  Uiso   1.00
H181   H     0.94999   0.16495   0.41239   0.00000  Uiso   1.00
H182   H     0.96322   0.20115   0.48825   0.00000  Uiso   1.00
H183   H     0.80821   0.14390   0.08884   0.00000  Uiso   1.00
H184   H     0.90350   0.29293   0.25945   0.00000  Uiso   1.00
N185   N     0.71598   0.16666   0.24999   0.00000  Uiso   1.00
N186   N     0.95069   0.16669   0.25000   0.00000  Uiso   1.00
O187   O     0.79375   0.22678   0.25001   0.00000  Uiso   1.00
O188   O     0.87294   0.22679   0.25001   0.00000  Uiso   1.00
O189   O     0.77441   0.16665   0.32549   0.00000  Uiso   1.00
O190   O     0.85360   0.16666   0.32549   0.00000  Uiso   1.00
O191   O     0.79373   0.10654   0.25000   0.00000  Uiso   1.00
O192   O     0.87292   0.10655   0.25000   0.00000  Uiso   1.00
O193   O     0.81306   0.16667   0.17451   0.00000  Uiso   1.00
O194   O     0.89225   0.16668   0.17451   0.00000  Uiso   1.00
C195   C     0.94616   0.21758   0.09159   0.00000  Uiso   1.00
H196   H     0.93457   0.22446   0.13308   0.00000  Uiso   1.00
O197   O     0.98445   0.23161   0.06634   0.00000  Uiso   1.00
C198   C     0.92316   0.03686   0.25495   0.00000  Uiso   1.00
H199   H     0.93961   0.06146   0.23030   0.00000  Uiso   1.00
O200   O     0.94488   0.02252   0.28395   0.00000  Uiso   1.00
C201   C     0.75700   0.29417   0.21351   0.00000  Uiso   1.00
H202   H     0.76311   0.26511   0.19195   0.00000  Uiso   1.00
O203   O     0.71763   0.31150   0.22075   0.00000  Uiso   1.00
Cl204  Cl    0.92525   0.22640   0.32678   0.00000  Uiso   1.00
C205   C     0.69714   0.21979   0.32052   0.00000  Uiso   1.00
H206   H     0.71568   0.24774   0.30703   0.00000  Uiso   1.00
O207   O     0.68654   0.21264   0.36684   0.00000  Uiso   1.00
C208   C     0.73230   0.11156   0.17841   0.00000  Uiso   1.00
H209   H     0.77013   0.10807   0.17496   0.00000  Uiso   1.00
O210   O     0.71651   0.08948   0.14963   0.00000  Uiso   1.00
C211   C     0.71640   0.11548   0.39911   0.00000  Uiso   1.00
H212   H     0.67751   0.12010   0.41236   0.00000  Uiso   1.00
O213   O     0.73357   0.09414   0.35994   0.00000  Uiso   1.00
C214   C     0.73966   0.17542   0.06365   0.00000  Uiso   1.00
H215   H     0.71068   0.16135   0.09260   0.00000  Uiso   1.00
O216   O     0.75324   0.20908   0.07395   0.00000  Uiso   1.00
C217   C     0.68253   0.12233   0.01380   0.00000  Uiso   1.00
H218   H     0.99498   0.13806   0.04917   0.00000  Uiso   1.00
O219   O     0.99915   0.09127   0.49991   0.00000  Uiso   1.00
C220   C     0.90179   0.11335   0.36686   0.00000  Uiso   1.00
H221   H     0.94006   0.11408   0.34599   0.00000  Uiso   1.00
O222   O     0.87716   0.08606   0.35628   0.00000  Uiso   1.00
C223   C     0.16686   0.57910   0.24757   0.00000  Uiso   1.00
C224   C     0.14621   0.48938   0.48725   0.00000  Uiso   1.00
C225   C     0.16298   0.48148   0.43282   0.00000  Uiso   1.00
C226   C     0.18165   0.49803   0.01404   0.00000  Uiso   1.00
C227   C     0.22923   0.50773   0.48551   0.00000  Uiso   1.00
C228   C     0.24528   0.49661   0.43296   0.00000  Uiso   1.00
C229   C     0.21378   0.47720   0.40939   0.00000  Uiso   1.00
C230   C     0.17308   0.49344   0.06751   0.00000  Uiso   1.00
C231   C     0.24871   0.52694   0.06561   0.00000  Uiso   1.00
C232   C     0.12869   0.47917   0.40372   0.00000  Uiso   1.00
C233   C     0.20688   0.64372   0.25283   0.00000  Uiso   1.00
C234   C     0.14167   0.49271   0.34853   0.00000  Uiso   1.00
C235   C     0.20997   0.35266   0.25161   0.00000  Uiso   1.00
C236   C     0.16993   0.37587   0.24529   0.00000  Uiso   1.00
C237   C     0.13051   0.35569   0.23538   0.00000  Uiso   1.00
C238   C     0.12943   0.64646   0.23224   0.00000  Uiso   1.00
C239   C     0.16715   0.62362   0.24392   0.00000  Uiso   1.00
C240   C     0.29955   0.52529   0.28374   0.00000  Uiso   1.00
C241   C     0.01569   0.52519   0.28387   0.00000  Uiso   1.00
C242   C     0.03317   0.47450   0.21600   0.00000  Uiso   1.00
C243   C     0.31700   0.47536   0.21620   0.00000  Uiso   1.00
C244   C     0.16763   0.42068   0.24857   0.00000  Uiso   1.00
C245   C     0.19224   0.50275   0.15039   0.00000  Uiso   1.00
C246   C     0.26148   0.52414   0.01101   0.00000  Uiso   1.00
C247   C     0.20584   0.50761   0.09379   0.00000  Uiso   1.00
C248   C     0.08132   0.46640   0.42943   0.00000  Uiso   1.00
C249   C     0.06466   0.47020   0.48456   0.00000  Uiso   1.00
C250   C     0.09525   0.48823   0.01199   0.00000  Uiso   1.00
Cu251  Cu    0.11978   0.49999   0.25000   0.00000  Uiso   1.00
Cu252  Cu    0.21355   0.50001   0.25000   0.00000  Uiso   1.00
H253   H     0.10103   0.37327   0.22792   0.00000  Uiso   1.00
H254   H     0.30453   0.45621   0.18916   0.00000  Uiso   1.00
H255   H     0.28332   0.49828   0.41239   0.00000  Uiso   1.00
H256   H     0.29655   0.53448   0.48825   0.00000  Uiso   1.00
H257   H     0.14155   0.47724   0.08884   0.00000  Uiso   1.00
H258   H     0.23683   0.62627   0.25945   0.00000  Uiso   1.00
N259   N     0.04931   0.49999   0.24999   0.00000  Uiso   1.00
N260   N     0.28402   0.50002   0.25000   0.00000  Uiso   1.00
O261   O     0.12708   0.56011   0.25001   0.00000  Uiso   1.00
O262   O     0.20627   0.56012   0.25001   0.00000  Uiso   1.00
O263   O     0.10775   0.49998   0.32549   0.00000  Uiso   1.00
O264   O     0.18694   0.49999   0.32549   0.00000  Uiso   1.00
O265   O     0.12706   0.43988   0.25000   0.00000  Uiso   1.00
O266   O     0.20625   0.43989   0.25000   0.00000  Uiso   1.00
O267   O     0.14640   0.50001   0.17451   0.00000  Uiso   1.00
O268   O     0.22559   0.50002   0.17451   0.00000  Uiso   1.00
C269   C     0.27949   0.55091   0.09159   0.00000  Uiso   1.00
H270   H     0.26790   0.55779   0.13308   0.00000  Uiso   1.00
O271   O     0.31778   0.56495   0.06634   0.00000  Uiso   1.00
C272   C     0.25650   0.37020   0.25495   0.00000  Uiso   1.00
H273   H     0.27295   0.39479   0.23030   0.00000  Uiso   1.00
O274   O     0.27822   0.35586   0.28395   0.00000  Uiso   1.00
C275   C     0.09034   0.62750   0.21351   0.00000  Uiso   1.00
H276   H     0.09644   0.59844   0.19195   0.00000  Uiso   1.00
O277   O     0.05097   0.64483   0.22075   0.00000  Uiso   1.00
Cl278  Cl    0.25859   0.55973   0.32678   0.00000  Uiso   1.00
C279   C     0.03048   0.55312   0.32052   0.00000  Uiso   1.00
H280   H     0.04901   0.58108   0.30703   0.00000  Uiso   1.00
O281   O     0.01987   0.54598   0.36684   0.00000  Uiso   1.00
C282   C     0.06564   0.44489   0.17841   0.00000  Uiso   1.00
H283   H     0.10347   0.44140   0.17496   0.00000  Uiso   1.00
O284   O     0.04984   0.42281   0.14963   0.00000  Uiso   1.00
C285   C     0.04974   0.44882   0.39911   0.00000  Uiso   1.00
H286   H     0.01085   0.45344   0.41236   0.00000  Uiso   1.00
O287   O     0.06691   0.42748   0.35994   0.00000  Uiso   1.00
C288   C     0.07299   0.50875   0.06365   0.00000  Uiso   1.00
H289   H     0.04401   0.49468   0.09260   0.00000  Uiso   1.00
O290   O     0.08657   0.54241   0.07395   0.00000  Uiso   1.00
C291   C     0.01586   0.45567   0.01380   0.00000  Uiso   1.00
H292   H     0.32832   0.47139   0.04917   0.00000  Uiso   1.00
O293   O     0.33249   0.42460   0.49991   0.00000  Uiso   1.00
C294   C     0.23513   0.44668   0.36686   0.00000  Uiso   1.00
H295   H     0.27339   0.44741   0.34599   0.00000  Uiso   1.00
O296   O     0.21050   0.41939   0.35628   0.00000  Uiso   1.00
C297   C     0.50019   0.57910   0.24757   0.00000  Uiso   1.00
C298   C     0.47954   0.48938   0.48725   0.00000  Uiso   1.00
C299   C     0.49631   0.48148   0.43282   0.00000  Uiso   1.00
C300   C     0.51499   0.49803   0.01404   0.00000  Uiso   1.00
C301   C     0.56256   0.50773   0.48551   0.00000  Uiso   1.00
C302   C     0.57862   0.49661   0.43296   0.00000  Uiso   1.00
C303   C     0.54711   0.47720   0.40939   0.00000  Uiso   1.00
C304   C     0.50641   0.49344   0.06751   0.00000  Uiso   1.00
C305   C     0.58205   0.52694   0.06561   0.00000  Uiso   1.00
C306   C     0.46202   0.47917   0.40372   0.00000  Uiso   1.00
C307   C     0.54021   0.64372   0.25283   0.00000  Uiso   1.00
C308   C     0.47500   0.49271   0.34853   0.00000  Uiso   1.00
C309   C     0.54330   0.35266   0.25161   0.00000  Uiso   1.00
C310   C     0.50326   0.37587   0.24529   0.00000  Uiso   1.00
C311   C     0.46384   0.35569   0.23538   0.00000  Uiso   1.00
C312   C     0.46277   0.64646   0.23224   0.00000  Uiso   1.00
C313   C     0.50048   0.62362   0.24392   0.00000  Uiso   1.00
C314   C     0.63288   0.52529   0.28374   0.00000  Uiso   1.00
C315   C     0.34902   0.52519   0.28387   0.00000  Uiso   1.00
C316   C     0.36650   0.47450   0.21600   0.00000  Uiso   1.00
C317   C     0.65034   0.47536   0.21620   0.00000  Uiso   1.00
C318   C     0.50096   0.42068   0.24857   0.00000  Uiso   1.00
C319   C     0.52557   0.50275   0.15039   0.00000  Uiso   1.00
C320   C     0.59482   0.52414   0.01101   0.00000  Uiso   1.00
C321   C     0.53918   0.50761   0.09379   0.00000  Uiso   1.00
C322   C     0.41465   0.46640   0.42943   0.00000  Uiso   1.00
C323   C     0.39799   0.47020   0.48456   0.00000  Uiso   1.00
C324   C     0.42859   0.48823   0.01199   0.00000  Uiso   1.00
Cu325  Cu    0.45311   0.49999   0.25000   0.00000  Uiso   1.00
Cu326  Cu    0.54689   0.50001   0.25000   0.00000  Uiso   1.00
H327   H     0.43436   0.37327   0.22792   0.00000  Uiso   1.00
H328   H     0.63786   0.45621   0.18916   0.00000  Uiso   1.00
H329   H     0.61665   0.49828   0.41239   0.00000  Uiso   1.00
H330   H     0.62989   0.53448   0.48825   0.00000  Uiso   1.00
H331   H     0.47488   0.47724   0.08884   0.00000  Uiso   1.00
H332   H     0.57016   0.62627   0.25945   0.00000  Uiso   1.00
N333   N     0.38265   0.49999   0.24999   0.00000  Uiso   1.00
N334   N     0.61735   0.50002   0.25000   0.00000  Uiso   1.00
O335   O     0.46042   0.56011   0.25001   0.00000  Uiso   1.00
O336   O     0.53961   0.56012   0.25001   0.00000  Uiso   1.00
O337   O     0.44108   0.49998   0.32549   0.00000  Uiso   1.00
O338   O     0.52027   0.49999   0.32549   0.00000  Uiso   1.00
O339   O     0.46039   0.43988   0.25000   0.00000  Uiso   1.00
O340   O     0.53958   0.43989   0.25000   0.00000  Uiso   1.00
O341   O     0.47973   0.50001   0.17451   0.00000  Uiso   1.00
O342   O     0.55892   0.50002   0.17451   0.00000  Uiso   1.00
C343   C     0.61283   0.55091   0.09159   0.00000  Uiso   1.00
H344   H     0.60124   0.55779   0.13308   0.00000  Uiso   1.00
O345   O     0.65112   0.56495   0.06634   0.00000  Uiso   1.00
C346   C     0.58983   0.37020   0.25495   0.00000  Uiso   1.00
H347   H     0.60628   0.39479   0.23030   0.00000  Uiso   1.00
O348   O     0.61155   0.35586   0.28395   0.00000  Uiso   1.00
C349   C     0.42367   0.62750   0.21351   0.00000  Uiso   1.00
H350   H     0.42977   0.59844   0.19195   0.00000  Uiso   1.00
O351   O     0.38430   0.64483   0.22075   0.00000  Uiso   1.00
Cl352  Cl    0.59192   0.55973   0.32678   0.00000  Uiso   1.00
C353   C     0.36381   0.55312   0.32052   0.00000  Uiso   1.00
H354   H     0.38235   0.58108   0.30703   0.00000  Uiso   1.00
O355   O     0.35320   0.54598   0.36684   0.00000  Uiso   1.00
C356   C     0.39897   0.44489   0.17841   0.00000  Uiso   1.00
H357   H     0.43680   0.44140   0.17496   0.00000  Uiso   1.00
O358   O     0.38317   0.42281   0.14963   0.00000  Uiso   1.00
C359   C     0.38307   0.44882   0.39911   0.00000  Uiso   1.00
H360   H     0.34418   0.45344   0.41236   0.00000  Uiso   1.00
O361   O     0.40024   0.42748   0.35994   0.00000  Uiso   1.00
C362   C     0.40632   0.50875   0.06365   0.00000  Uiso   1.00
H363   H     0.37735   0.49468   0.09260   0.00000  Uiso   1.00
O364   O     0.41990   0.54241   0.07395   0.00000  Uiso   1.00
C365   C     0.34919   0.45567   0.01380   0.00000  Uiso   1.00
H366   H     0.66165   0.47139   0.04917   0.00000  Uiso   1.00
O367   O     0.66582   0.42460   0.49991   0.00000  Uiso   1.00
C368   C     0.56846   0.44668   0.36686   0.00000  Uiso   1.00
H369   H     0.60673   0.44741   0.34599   0.00000  Uiso   1.00
O370   O     0.54383   0.41939   0.35628   0.00000  Uiso   1.00
C371   C     0.83353   0.57910   0.24757   0.00000  Uiso   1.00
C372   C     0.81288   0.48938   0.48725   0.00000  Uiso   1.00
C373   C     0.82965   0.48148   0.43282   0.00000  Uiso   1.00
C374   C     0.84832   0.49803   0.01404   0.00000  Uiso   1.00
C375   C     0.89590   0.50773   0.48551   0.00000  Uiso   1.00
C376   C     0.91195   0.49661   0.43296   0.00000  Uiso   1.00
C377   C     0.88045   0.47720   0.40939   0.00000  Uiso   1.00
C378   C     0.83974   0.49344   0.06751   0.00000  Uiso   1.00
C379   C     0.91538   0.52694   0.06561   0.00000  Uiso   1.00
C380   C     0.79535   0.47917   0.40372   0.00000  Uiso   1.00
C381   C     0.87354   0.64372   0.25283   0.00000  Uiso   1.00
C382   C     0.80833   0.49271   0.34853   0.00000  Uiso   1.00
C383   C     0.87664   0.35266   0.25161   0.00000  Uiso   1.00
C384   C     0.83660   0.37587   0.24529   0.00000  Uiso   1.00
C385   C     0.79717   0.35569   0.23538   0.00000  Uiso   1.00
C386   C     0.79610   0.64646   0.23224   0.00000  Uiso   1.00
C387   C     0.83381   0.62362   0.24392   0.00000  Uiso   1.00
C388   C     0.96622   0.52529   0.28374   0.00000  Uiso   1.00
C389   C     0.68235   0.52519   0.28387   0.00000  Uiso   1.00
C390   C     0.69983   0.47450   0.21600   0.00000  Uiso   1.00
C391   C     0.98367   0.47536   0.21620   0.00000  Uiso   1.00
C392   C     0.83430   0.42068   0.24857   0.00000  Uiso   1.00
C393   C     0.85890   0.50275   0.15039   0.00000  Uiso   1.00
C394   C     0.92815   0.52414   0.01101   0.00000  Uiso   1.00
C395   C     0.87251   0.50761   0.09379   0.00000  Uiso   1.00
C396   C     0.74799   0.46640   0.42943   0.00000  Uiso   1.00
C397   C     0.73133   0.47020   0.48456   0.00000  Uiso   1.00
C398   C     0.76192   0.48823   0.01199   0.00000  Uiso   1.00
Cu399  Cu    0.78645   0.49999   0.25000   0.00000  Uiso   1.00
Cu400  Cu    0.88022   0.50001   0.25000   0.00000  Uiso   1.00
H401   H     0.76770   0.37327   0.22792   0.00000  Uiso   1.00
H402   H     0.97119   0.45621   0.18916   0.00000  Uiso   1.00
H403   H     0.94999   0.49828   0.41239   0.00000  Uiso   1.00
H404   H     0.96322   0.53448   0.48825   0.00000  Uiso   1.00
H405   H     0.80821   0.47724   0.08884   0.00000  Uiso   1.00
H406   H     0.90350   0.62627   0.25945   0.00000  Uiso   1.00
N407   N     0.71598   0.49999   0.24999   0.00000  Uiso   1.00
N408   N     0.95069   0.50002   0.25000   0.00000  Uiso   1.00
O409   O     0.79375   0.56011   0.25001   0.00000  Uiso   1.00
O410   O     0.87294   0.56012   0.25001   0.00000  Uiso   1.00
O411   O     0.77441   0.49998   0.32549   0.00000  Uiso   1.00
O412   O     0.85360   0.49999   0.32549   0.00000  Uiso   1.00
O413   O     0.79373   0.43988   0.25000   0.00000  Uiso   1.00
O414   O     0.87292   0.43989   0.25000   0.00000  Uiso   1.00
O415   O     0.81306   0.50001   0.17451   0.00000  Uiso   1.00
O416   O     0.89225   0.50002   0.17451   0.00000  Uiso   1.00
C417   C     0.94616   0.55091   0.09159   0.00000  Uiso   1.00
H418   H     0.93457   0.55779   0.13308   0.00000  Uiso   1.00
O419   O     0.98445   0.56495   0.06634   0.00000  Uiso   1.00
C420   C     0.92316   0.37020   0.25495   0.00000  Uiso   1.00
H421   H     0.93961   0.39479   0.23030   0.00000  Uiso   1.00
O422   O     0.94488   0.35586   0.28395   0.00000  Uiso   1.00
C423   C     0.75700   0.62750   0.21351   0.00000  Uiso   1.00
H424   H     0.76311   0.59844   0.19195   0.00000  Uiso   1.00
O425   O     0.71763   0.64483   0.22075   0.00000  Uiso   1.00
Cl426  Cl    0.92525   0.55973   0.32678   0.00000  Uiso   1.00
C427   C     0.69714   0.55312   0.32052   0.00000  Uiso   1.00
H428   H     0.71568   0.58108   0.30703   0.00000  Uiso   1.00
O429   O     0.68654   0.54598   0.36684   0.00000  Uiso   1.00
C430   C     0.73230   0.44489   0.17841   0.00000  Uiso   1.00
H431   H     0.77013   0.44140   0.17496   0.00000  Uiso   1.00
O432   O     0.71651   0.42281   0.14963   0.00000  Uiso   1.00
C433   C     0.71640   0.44882   0.39911   0.00000  Uiso   1.00
H434   H     0.67751   0.45344   0.41236   0.00000  Uiso   1.00
O435   O     0.73357   0.42748   0.35994   0.00000  Uiso   1.00
C436   C     0.73966   0.50875   0.06365   0.00000  Uiso   1.00
H437   H     0.71068   0.49468   0.09260   0.00000  Uiso   1.00
O438   O     0.75324   0.54241   0.07395   0.00000  Uiso   1.00
C439   C     0.68253   0.45567   0.01380   0.00000  Uiso   1.00
H440   H     0.99498   0.47139   0.04917   0.00000  Uiso   1.00
O441   O     0.99915   0.42460   0.49991   0.00000  Uiso   1.00
C442   C     0.90179   0.44668   0.36686   0.00000  Uiso   1.00
H443   H     0.94006   0.44741   0.34599   0.00000  Uiso   1.00
O444   O     0.87716   0.41939   0.35628   0.00000  Uiso   1.00
C445   C     0.16686   0.91244   0.24757   0.00000  Uiso   1.00
C446   C     0.14621   0.82271   0.48725   0.00000  Uiso   1.00
C447   C     0.16298   0.81481   0.43282   0.00000  Uiso   1.00
C448   C     0.18165   0.83136   0.01404   0.00000  Uiso   1.00
C449   C     0.22923   0.84106   0.48551   0.00000  Uiso   1.00
C450   C     0.24528   0.82994   0.43296   0.00000  Uiso   1.00
C451   C     0.21378   0.81054   0.40939   0.00000  Uiso   1.00
C452   C     0.17308   0.82677   0.06751   0.00000  Uiso   1.00
C453   C     0.24871   0.86027   0.06561   0.00000  Uiso   1.00
C454   C     0.12869   0.81250   0.40372   0.00000  Uiso   1.00
C455   C     0.20688   0.97706   0.25283   0.00000  Uiso   1.00
C456   C     0.14167   0.82604   0.34853   0.00000  Uiso   1.00
C457   C     0.20997   0.68599   0.25161   0.00000  Uiso   1.00
C458   C     0.16993   0.70920   0.24529   0.00000  Uiso   1.00
C459   C     0.13051   0.68903   0.23538   0.00000  Uiso   1.00
C460   C     0.12943   0.97979   0.23224   0.00000  Uiso   1.00
C461   C     0.16715   0.95695   0.24392   0.00000  Uiso   1.00
C462   C     0.29955   0.85862   0.28374   0.00000  Uiso   1.00
C463   C     0.01569   0.85853   0.28387   0.00000  Uiso   1.00
C464   C     0.03317   0.80783   0.21600   0.00000  Uiso   1.00
C465   C     0.31700   0.80869   0.21620   0.00000  Uiso   1.00
C466   C     0.16763   0.75401   0.24857   0.00000  Uiso   1.00
C467   C     0.19224   0.83609   0.15039   0.00000  Uiso   1.00
C468   C     0.26148   0.85748   0.01101   0.00000  Uiso   1.00
C469   C     0.20584   0.84094   0.09379   0.00000  Uiso   1.00
C470   C     0.08132   0.79974   0.42943   0.00000  Uiso   1.00
C471   C     0.06466   0.80353   0.48456   0.00000  Uiso   1.00
C472   C     0.09525   0.82156   0.01199   0.00000  Uiso   1.00
Cu473  Cu    0.11978   0.83333   0.25000   0.00000  Uiso   1.00
Cu474  Cu    0.21355   0.83334   0.25000   0.00000  Uiso   1.00
H475   H     0.10103   0.70660   0.22792   0.00000  Uiso   1.00
H476   H     0.30453   0.78955   0.18916   0.00000  Uiso   1.00
H477   H     0.28332   0.83161   0.41239   0.00000  Uiso   1.00
H478   H     0.29655   0.86782   0.48825   0.00000  Uiso   1.00
H479   H     0.14155   0.81057   0.08884   0.00000  Uiso   1.00
H480   H     0.23683   0.95960   0.25945   0.00000  Uiso   1.00
N481   N     0.04931   0.83332   0.24999   0.00000  Uiso   1.00
N482   N     0.28402   0.83335   0.25000   0.00000  Uiso   1.00
O483   O     0.12708   0.89345   0.25001   0.00000  Uiso   1.00
O484   O     0.20627   0.89346   0.25001   0.00000  Uiso   1.00
O485   O     0.10775   0.83332   0.32549   0.00000  Uiso   1.00
O486   O     0.18694   0.83333   0.32549   0.00000  Uiso   1.00
O487   O     0.12706   0.77321   0.25000   0.00000  Uiso   1.00
O488   O     0.20625   0.77322   0.25000   0.00000  Uiso   1.00
O489   O     0.14640   0.83334   0.17451   0.00000  Uiso   1.00
O490   O     0.22559   0.83335   0.17451   0.00000  Uiso   1.00
C491   C     0.27949   0.88425   0.09159   0.00000  Uiso   1.00
H492   H     0.26790   0.89112   0.13308   0.00000  Uiso   1.00
O493   O     0.31778   0.89828   0.06634   0.00000  Uiso   1.00
C494   C     0.25650   0.70353   0.25495   0.00000  Uiso   1.00
H495   H     0.27295   0.72813   0.23030   0.00000  Uiso   1.00
O496   O     0.27822   0.68919   0.28395   0.00000  Uiso   1.00
C497   C     0.09034   0.96083   0.21351   0.00000  Uiso   1.00
H498   H     0.09644   0.93178   0.19195   0.00000  Uiso   1.00
O499   O     0.05097   0.97817   0.22075   0.00000  Uiso   1.00
Cl500  Cl    0.25859   0.89307   0.32678   0.00000  Uiso   1.00
C501   C     0.03048   0.88645   0.32052   0.00000  Uiso   1.00
H502   H     0.04901   0.91441   0.30703   0.00000  Uiso   1.00
O503   O     0.01987   0.87931   0.36684   0.00000  Uiso   1.00
C504   C     0.06564   0.77823   0.17841   0.00000  Uiso   1.00
H505   H     0.10347   0.77473   0.17496   0.00000  Uiso   1.00
O506   O     0.04984   0.75615   0.14963   0.00000  Uiso   1.00
C507   C     0.04974   0.78215   0.39911   0.00000  Uiso   1.00
H508   H     0.01085   0.78677   0.41236   0.00000  Uiso   1.00
O509   O     0.06691   0.76081   0.35994   0.00000  Uiso   1.00
C510   C     0.07299   0.84208   0.06365   0.00000  Uiso   1.00
H511   H     0.04401   0.82802   0.09260   0.00000  Uiso   1.00
O512   O     0.08657   0.87574   0.07395   0.00000  Uiso   1.00
C513   C     0.01586   0.78900   0.01380   0.00000  Uiso   1.00
H514   H     0.32832   0.80472   0.04917   0.00000  Uiso   1.00
O515   O     0.33249   0.75793   0.49991   0.00000  Uiso   1.00
C516   C     0.23513   0.78001   0.36686   0.00000  Uiso   1.00
H517   H     0.27339   0.78074   0.34599   0.00000  Uiso   1.00
O518   O     0.21050   0.75273   0.35628   0.00000  Uiso   1.00
C519   C     0.50019   0.91244   0.24757   0.00000  Uiso   1.00
C520   C     0.47954   0.82271   0.48725   0.00000  Uiso   1.00
C521   C     0.49631   0.81481   0.43282   0.00000  Uiso   1.00
C522   C     0.51499   0.83136   0.01404   0.00000  Uiso   1.00
C523   C     0.56256   0.84106   0.48551   0.00000  Uiso   1.00
C524   C     0.57862   0.82994   0.43296   0.00000  Uiso   1.00
C525   C     0.54711   0.81054   0.40939   0.00000  Uiso   1.00
C526   C     0.50641   0.82677   0.06751   0.00000  Uiso   1.00
C527   C     0.58205   0.86027   0.06561   0.00000  Uiso   1.00
C528   C     0.46202   0.81250   0.40372   0.00000  Uiso   1.00
C529   C     0.54021   0.97706   0.25283   0.00000  Uiso   1.00
C530   C     0.47500   0.82604   0.34853   0.00000  Uiso   1.00
C531   C     0.54330   0.68599   0.25161   0.00000  Uiso   1.00
C532   C     0.50326   0.70920   0.24529   0.00000  Uiso   1.00
C533   C     0.46384   0.68903   0.23538   0.00000  Uiso   1.00
C534   C     0.46277   0.97979   0.23224   0.00000  Uiso   1.00
C535   C     0.50048   0.95695   0.24392   0.00000  Uiso   1.00
C536   C     0.63288   0.85862   0.28374   0.00000  Uiso   1.00
C537   C     0.34902   0.85853   0.28387   0.00000  Uiso   1.00
C538   C     0.36650   0.80783   0.21600   0.00000  Uiso   1.00
C539   C     0.65034   0.80869   0.21620   0.00000  Uiso   1.00
C540   C     0.50096   0.75401   0.24857   0.00000  Uiso   1.00
C541   C     0.52557   0.83609   0.15039   0.00000  Uiso   1.00
C542   C     0.59482   0.85748   0.01101   0.00000  Uiso   1.00
C543   C     0.53918   0.84094   0.09379   0.00000  Uiso   1.00
C544   C     0.41465   0.79974   0.42943   0.00000  Uiso   1.00
C545   C     0.39799   0.80353   0.48456   0.00000  Uiso   1.00
C546   C     0.42859   0.82156   0.01199   0.00000  Uiso   1.00
Cu547  Cu    0.45311   0.83333   0.25000   0.00000  Uiso   1.00
Cu548  Cu    0.54689   0.83334   0.25000   0.00000  Uiso   1.00
H549   H     0.43436   0.70660   0.22792   0.00000  Uiso   1.00
H550   H     0.63786   0.78955   0.18916   0.00000  Uiso   1.00
H551   H     0.61665   0.83161   0.41239   0.00000  Uiso   1.00
H552   H     0.62989   0.86782   0.48825   0.00000  Uiso   1.00
H553   H     0.47488   0.81057   0.08884   0.00000  Uiso   1.00
H554   H     0.57016   0.95960   0.25945   0.00000  Uiso   1.00
N555   N     0.38265   0.83332   0.24999   0.00000  Uiso   1.00
N556   N     0.61735   0.83335   0.25000   0.00000  Uiso   1.00
O557   O     0.46042   0.89345   0.25001   0.00000  Uiso   1.00
O558   O     0.53961   0.89346   0.25001   0.00000  Uiso   1.00
O559   O     0.44108   0.83332   0.32549   0.00000  Uiso   1.00
O560   O     0.52027   0.83333   0.32549   0.00000  Uiso   1.00
O561   O     0.46039   0.77321   0.25000   0.00000  Uiso   1.00
O562   O     0.53958   0.77322   0.25000   0.00000  Uiso   1.00
O563   O     0.47973   0.83334   0.17451   0.00000  Uiso   1.00
O564   O     0.55892   0.83335   0.17451   0.00000  Uiso   1.00
C565   C     0.61283   0.88425   0.09159   0.00000  Uiso   1.00
H566   H     0.60124   0.89112   0.13308   0.00000  Uiso   1.00
O567   O     0.65112   0.89828   0.06634   0.00000  Uiso   1.00
C568   C     0.58983   0.70353   0.25495   0.00000  Uiso   1.00
H569   H     0.60628   0.72813   0.23030   0.00000  Uiso   1.00
O570   O     0.61155   0.68919   0.28395   0.00000  Uiso   1.00
C571   C     0.42367   0.96083   0.21351   0.00000  Uiso   1.00
H572   H     0.42977   0.93178   0.19195   0.00000  Uiso   1.00
O573   O     0.38430   0.97817   0.22075   0.00000  Uiso   1.00
Cl574  Cl    0.59192   0.89307   0.32678   0.00000  Uiso   1.00
C575   C     0.36381   0.88645   0.32052   0.00000  Uiso   1.00
H576   H     0.38235   0.91441   0.30703   0.00000  Uiso   1.00
O577   O     0.35320   0.87931   0.36684   0.00000  Uiso   1.00
C578   C     0.39897   0.77823   0.17841   0.00000  Uiso   1.00
H579   H     0.43680   0.77473   0.17496   0.00000  Uiso   1.00
O580   O     0.38317   0.75615   0.14963   0.00000  Uiso   1.00
C581   C     0.38307   0.78215   0.39911   0.00000  Uiso   1.00
H582   H     0.34418   0.78677   0.41236   0.00000  Uiso   1.00
O583   O     0.40024   0.76081   0.35994   0.00000  Uiso   1.00
C584   C     0.40632   0.84208   0.06365   0.00000  Uiso   1.00
H585   H     0.37735   0.82802   0.09260   0.00000  Uiso   1.00
O586   O     0.41990   0.87574   0.07395   0.00000  Uiso   1.00
C587   C     0.34919   0.78900   0.01380   0.00000  Uiso   1.00
H588   H     0.66165   0.80472   0.04917   0.00000  Uiso   1.00
O589   O     0.66582   0.75793   0.49991   0.00000  Uiso   1.00
C590   C     0.56846   0.78001   0.36686   0.00000  Uiso   1.00
H591   H     0.60673   0.78074   0.34599   0.00000  Uiso   1.00
O592   O     0.54383   0.75273   0.35628   0.00000  Uiso   1.00
C593   C     0.83353   0.91244   0.24757   0.00000  Uiso   1.00
C594   C     0.81288   0.82271   0.48725   0.00000  Uiso   1.00
C595   C     0.82965   0.81481   0.43282   0.00000  Uiso   1.00
C596   C     0.84832   0.83136   0.01404   0.00000  Uiso   1.00
C597   C     0.89590   0.84106   0.48551   0.00000  Uiso   1.00
C598   C     0.91195   0.82994   0.43296   0.00000  Uiso   1.00
C599   C     0.88045   0.81054   0.40939   0.00000  Uiso   1.00
C600   C     0.83974   0.82677   0.06751   0.00000  Uiso   1.00
C601   C     0.91538   0.86027   0.06561   0.00000  Uiso   1.00
C602   C     0.79535   0.81250   0.40372   0.00000  Uiso   1.00
C603   C     0.87354   0.97706   0.25283   0.00000  Uiso   1.00
C604   C     0.80833   0.82604   0.34853   0.00000  Uiso   1.00
C605   C     0.87664   0.68599   0.25161   0.00000  Uiso   1.00
C606   C     0.83660   0.70920   0.24529   0.00000  Uiso   1.00
C607   C     0.79717   0.68903   0.23538   0.00000  Uiso   1.00
C608   C     0.79610   0.97979   0.23224   0.00000  Uiso   1.00
C609   C     0.83381   0.95695   0.24392   0.00000  Uiso   1.00
C610   C     0.96622   0.85862   0.28374   0.00000  Uiso   1.00
C611   C     0.68235   0.85853   0.28387   0.00000  Uiso   1.00
C612   C     0.69983   0.80783   0.21600   0.00000  Uiso   1.00
C613   C     0.98367   0.80869   0.21620   0.00000  Uiso   1.00
C614   C     0.83430   0.75401   0.24857   0.00000  Uiso   1.00
C615   C     0.85890   0.83609   0.15039   0.00000  Uiso   1.00
C616   C     0.92815   0.85748   0.01101   0.00000  Uiso   1.00
C617   C     0.87251   0.84094   0.09379   0.00000  Uiso   1.00
C618   C     0.74799   0.79974   0.42943   0.00000  Uiso   1.00
C619   C     0.73133   0.80353   0.48456   0.00000  Uiso   1.00
C620   C     0.76192   0.82156   0.01199   0.00000  Uiso   1.00
Cu621  Cu    0.78645   0.83333   0.25000   0.00000  Uiso   1.00
Cu622  Cu    0.88022   0.83334   0.25000   0.00000  Uiso   1.00
H623   H     0.76770   0.70660   0.22792   0.00000  Uiso   1.00
H624   H     0.97119   0.78955   0.18916   0.00000  Uiso   1.00
H625   H     0.94999   0.83161   0.41239   0.00000  Uiso   1.00
H626   H     0.96322   0.86782   0.48825   0.00000  Uiso   1.00
H627   H     0.80821   0.81057   0.08884   0.00000  Uiso   1.00
H628   H     0.90350   0.95960   0.25945   0.00000  Uiso   1.00
N629   N     0.71598   0.83332   0.24999   0.00000  Uiso   1.00
N630   N     0.95069   0.83335   0.25000   0.00000  Uiso   1.00
O631   O     0.79375   0.89345   0.25001   0.00000  Uiso   1.00
O632   O     0.87294   0.89346   0.25001   0.00000  Uiso   1.00
O633   O     0.77441   0.83332   0.32549   0.00000  Uiso   1.00
O634   O     0.85360   0.83333   0.32549   0.00000  Uiso   1.00
O635   O     0.79373   0.77321   0.25000   0.00000  Uiso   1.00
O636   O     0.87292   0.77322   0.25000   0.00000  Uiso   1.00
O637   O     0.81306   0.83334   0.17451   0.00000  Uiso   1.00
O638   O     0.89225   0.83335   0.17451   0.00000  Uiso   1.00
C639   C     0.94616   0.88425   0.09159   0.00000  Uiso   1.00
H640   H     0.93457   0.89112   0.13308   0.00000  Uiso   1.00
O641   O     0.98445   0.89828   0.06634   0.00000  Uiso   1.00
C642   C     0.92316   0.70353   0.25495   0.00000  Uiso   1.00
H643   H     0.93961   0.72813   0.23030   0.00000  Uiso   1.00
O644   O     0.94488   0.68919   0.28395   0.00000  Uiso   1.00
C645   C     0.75700   0.96083   0.21351   0.00000  Uiso   1.00
H646   H     0.76311   0.93178   0.19195   0.00000  Uiso   1.00
O647   O     0.71763   0.97817   0.22075   0.00000  Uiso   1.00
Cl648  Cl    0.92525   0.89307   0.32678   0.00000  Uiso   1.00
C649   C     0.69714   0.88645   0.32052   0.00000  Uiso   1.00
H650   H     0.71568   0.91441   0.30703   0.00000  Uiso   1.00
O651   O     0.68654   0.87931   0.36684   0.00000  Uiso   1.00
C652   C     0.73230   0.77823   0.17841   0.00000  Uiso   1.00
H653   H     0.77013   0.77473   0.17496   0.00000  Uiso   1.00
O654   O     0.71651   0.75615   0.14963   0.00000  Uiso   1.00
C655   C     0.71640   0.78215   0.39911   0.00000  Uiso   1.00
H656   H     0.67751   0.78677   0.41236   0.00000  Uiso   1.00
O657   O     0.73357   0.76081   0.35994   0.00000  Uiso   1.00
C658   C     0.73966   0.84208   0.06365   0.00000  Uiso   1.00
H659   H     0.71068   0.82802   0.09260   0.00000  Uiso   1.00
O660   O     0.75324   0.87574   0.07395   0.00000  Uiso   1.00
C661   C     0.68253   0.78900   0.01380   0.00000  Uiso   1.00
H662   H     0.99498   0.80472   0.04917   0.00000  Uiso   1.00
O663   O     0.99915   0.75793   0.49991   0.00000  Uiso   1.00
C664   C     0.90179   0.78001   0.36686   0.00000  Uiso   1.00
H665   H     0.94006   0.78074   0.34599   0.00000  Uiso   1.00
O666   O     0.87716   0.75273   0.35628   0.00000  Uiso   1.00
C667   C     0.16686   0.24577   0.74757   0.00000  Uiso   1.00
C668   C     0.14621   0.15605   0.98725   0.00000  Uiso   1.00
C669   C     0.16298   0.14815   0.93282   0.00000  Uiso   1.00
C670   C     0.18165   0.16470   0.51404   0.00000  Uiso   1.00
C671   C     0.22923   0.17440   0.98551   0.00000  Uiso   1.00
C672   C     0.24528   0.16328   0.93296   0.00000  Uiso   1.00
C673   C     0.21378   0.14387   0.90939   0.00000  Uiso   1.00
C674   C     0.17308   0.16011   0.56751   0.00000  Uiso   1.00
C675   C     0.24871   0.19361   0.56561   0.00000  Uiso   1.00
C676   C     0.12869   0.14583   0.90372   0.00000  Uiso   1.00
C677   C     0.20688   0.31039   0.75283   0.00000  Uiso   1.00
C678   C     0.14167   0.15938   0.84853   0.00000  Uiso   1.00
C679   C     0.20997   0.01932   0.75161   0.00000  Uiso   1.00
C680   C     0.16993   0.04253   0.74529   0.00000  Uiso   1.00
C681   C     0.13051   0.02236   0.73538   0.00000  Uiso   1.00
C682   C     0.12943   0.31313   0.73224   0.00000  Uiso   1.00
C683   C     0.16715   0.29028   0.74392   0.00000  Uiso   1.00
C684   C     0.29955   0.19196   0.78374   0.00000  Uiso   1.00
C685   C     0.01569   0.19186   0.78387   0.00000  Uiso   1.00
C686   C     0.03317   0.14116   0.71600   0.00000  Uiso   1.00
C687   C     0.31700   0.14202   0.71620   0.00000  Uiso   1.00
C688   C     0.16763   0.08735   0.74857   0.00000  Uiso   1.00
C689   C     0.19224   0.16942   0.65039   0.00000  Uiso   1.00
C690   C     0.26148   0.19081   0.51101   0.00000  Uiso   1.00
C691   C     0.20584   0.17427   0.59379   0.00000  Uiso   1.00
C692   C     0.08132   0.13307   0.92943   0.00000  Uiso   1.00
C693   C     0.06466   0.13686   0.98456   0.00000  Uiso   1.00
C694   C     0.09525   0.15490   0.51199   0.00000  Uiso   1.00
Cu695  Cu    0.11978   0.16666   0.75000   0.00000  Uiso   1.00
Cu696  Cu    0.21355   0.16667   0.75000   0.00000  Uiso   1.00
H697   H     0.10103   0.03994   0.72792   0.00000  Uiso   1.00
H698   H     0.30453   0.12288   0.68916   0.00000  Uiso   1.00
H699   H     0.28332   0.16495   0.91239   0.00000  Uiso   1.00
H700   H     0.29655   0.20115   0.98825   0.00000  Uiso   1.00
H701   H     0.14155   0.14390   0.58884   0.00000  Uiso   1.00
H702   H     0.23683   0.29293   0.75945   0.00000  Uiso   1.00
N703   N     0.04931   0.16666   0.74999   0.00000  Uiso   1.00
N704   N     0.28402   0.16669   0.75000   0.00000  Uiso   1.00
O705   O     0.12708   0.22678   0.75001   0.00000  Uiso   1.00
O706   O     0.20627   0.22679   0.75001   0.00000  Uiso   1.00
O707   O     0.10775   0.16665   0.82549   0.00000  Uiso   1.00
O708   O     0.18694   0.16666   0.82549   0.00000  Uiso   1.00
O709   O     0.12706   0.10654   0.75000   0.00000  Uiso   1.00
O710   O     0.20625   0.10655   0.75000   0.00000  Uiso   1.00
O711   O     0.14640   0.16667   0.67451   0.00000  Uiso   1.00
O712   O     0.22559   0.16668   0.67451   0.00000  Uiso   1.00
C713   C     0.27949   0.21758   0.59159   0.00000  Uiso   1.00
H714   H     0.26790   0.22446   0.63308   0.00000  Uiso   1.00
O715   O     0.31778   0.23161   0.56634   0.00000  Uiso   1.00
C716   C     0.25650   0.03686   0.75495   0.00000  Uiso   1.00
H717   H     0.27295   0.06146   0.73030   0.00000  Uiso   1.00
O718   O     0.27822   0.02252   0.78395   0.00000  Uiso   1.00
C719   C     0.09034   0.29417   0.71351   0.00000  Uiso   1.00
H720   H     0.09644   0.26511   0.69195   0.00000  Uiso   1.00
O721   O     0.05097   0.31150   0.72075   0.00000  Uiso   1.00
Cl722  Cl    0.25859   0.22640   0.82678   0.00000  Uiso   1.00
C723   C     0.03048   0.21979   0.82052   0.00000  Uiso   1.00
H724   H     0.04901   0.24774   0.80703   0.00000  Uiso   1.00
O725   O     0.01987   0.21264   0.86684   0.00000  Uiso   1.00
C726   C     0.06564   0.11156   0.67841   0.00000  Uiso   1.00
H727   H     0.10347   0.10807   0.67496   0.00000  Uiso   1.00
O728   O     0.04984   0.08948   0.64963   0.00000  Uiso   1.00
C729   C     0.04974   0.11548   0.89911   0.00000  Uiso   1.00
H730   H     0.01085   0.12010   0.91236   0.00000  Uiso   1.00
O731   O     0.06691   0.09414   0.85994   0.00000  Uiso   1.00
C732   C     0.07299   0.17542   0.56365   0.00000  Uiso   1.00
H733   H     0.04401   0.16135   0.59260   0.00000  Uiso   1.00
O734   O     0.08657   0.20908   0.57395   0.00000  Uiso   1.00
C735   C     0.01586   0.12233   0.51380   0.00000  Uiso   1.00
H736   H     0.32832   0.13806   0.54917   0.00000  Uiso   1.00
O737   O     0.33249   0.09127   0.99991   0.00000  Uiso   1.00
C738   C     0.23513   0.11335   0.86686   0.00000  Uiso   1.00
H739   H     0.27339   0.11408   0.84599   0.00000  Uiso   1.00
O740   O     0.21050   0.08606   0.85628   0.00000  Uiso   1.00
C741   C     0.50019   0.24577   0.74757   0.00000  Uiso   1.00
C742   C     0.47954   0.15605   0.98725   0.00000  Uiso   1.00
C743   C     0.49631   0.14815   0.93282   0.00000  Uiso   1.00
C744   C     0.51499   0.16470   0.51404   0.00000  Uiso   1.00
C745   C     0.56256   0.17440   0.98551   0.00000  Uiso   1.00
C746   C     0.57862   0.16328   0.93296   0.00000  Uiso   1.00
C747   C     0.54711   0.14387   0.90939   0.00000  Uiso   1.00
C748   C     0.50641   0.16011   0.56751   0.00000  Uiso   1.00
C749   C     0.58205   0.19361   0.56561   0.00000  Uiso   1.00
C750   C     0.46202   0.14583   0.90372   0.00000  Uiso   1.00
C751   C     0.54021   0.31039   0.75283   0.00000  Uiso   1.00
C752   C     0.47500   0.15938   0.84853   0.00000  Uiso   1.00
C753   C     0.54330   0.01932   0.75161   0.00000  Uiso   1.00
C754   C     0.50326   0.04253   0.74529   0.00000  Uiso   1.00
C755   C     0.46384   0.02236   0.73538   0.00000  Uiso   1.00
C756   C     0.46277   0.31313   0.73224   0.00000  Uiso   1.00
C757   C     0.50048   0.29028   0.74392   0.00000  Uiso   1.00
C758   C     0.63288   0.19196   0.78374   0.00000  Uiso   1.00
C759   C     0.34902   0.19186   0.78387   0.00000  Uiso   1.00
C760   C     0.36650   0.14116   0.71600   0.00000  Uiso   1.00
C761   C     0.65034   0.14202   0.71620   0.00000  Uiso   1.00
C762   C     0.50096   0.08735   0.74857   0.00000  Uiso   1.00
C763   C     0.52557   0.16942   0.65039   0.00000  Uiso   1.00
C764   C     0.59482   0.19081   0.51101   0.00000  Uiso   1.00
C765   C     0.53918   0.17427   0.59379   0.00000  Uiso   1.00
C766   C     0.41465   0.13307   0.92943   0.00000  Uiso   1.00
C767   C     0.39799   0.13686   0.98456   0.00000  Uiso   1.00
C768   C     0.42859   0.15490   0.51199   0.00000  Uiso   1.00
Cu769  Cu    0.45311   0.16666   0.75000   0.00000  Uiso   1.00
Cu770  Cu    0.54689   0.16667   0.75000   0.00000  Uiso   1.00
H771   H     0.43436   0.03994   0.72792   0.00000  Uiso   1.00
H772   H     0.63786   0.12288   0.68916   0.00000  Uiso   1.00
H773   H     0.61665   0.16495   0.91239   0.00000  Uiso   1.00
H774   H     0.62989   0.20115   0.98825   0.00000  Uiso   1.00
H775   H     0.47488   0.14390   0.58884   0.00000  Uiso   1.00
H776   H     0.57016   0.29293   0.75945   0.00000  Uiso   1.00
N777   N     0.38265   0.16666   0.74999   0.00000  Uiso   1.00
N778   N     0.61735   0.16669   0.75000   0.00000  Uiso   1.00
O779   O     0.46042   0.22678   0.75001   0.00000  Uiso   1.00
O780   O     0.53961   0.22679   0.75001   0.00000  Uiso   1.00
O781   O     0.44108   0.16665   0.82549   0.00000  Uiso   1.00
O782   O     0.52027   0.16666   0.82549   0.00000  Uiso   1.00
O783   O     0.46039   0.10654   0.75000   0.00000  Uiso   1.00
O784   O     0.53958   0.10655   0.75000   0.00000  Uiso   1.00
O785   O     0.47973   0.16667   0.67451   0.00000  Uiso   1.00
O786   O     0.55892   0.16668   0.67451   0.00000  Uiso   1.00
C787   C     0.61283   0.21758   0.59159   0.00000  Uiso   1.00
H788   H     0.60124   0.22446   0.63308   0.00000  Uiso   1.00
O789   O     0.65112   0.23161   0.56634   0.00000  Uiso   1.00
C790   C     0.58983   0.03686   0.75495   0.00000  Uiso   1.00
H791   H     0.60628   0.06146   0.73030   0.00000  Uiso   1.00
O792   O     0.61155   0.02252   0.78395   0.00000  Uiso   1.00
C793   C     0.42367   0.29417   0.71351   0.00000  Uiso   1.00
H794   H     0.42977   0.26511   0.69195   0.00000  Uiso   1.00
O795   O     0.38430   0.31150   0.72075   0.00000  Uiso   1.00
Cl796  Cl    0.59192   0.22640   0.82678   0.00000  Uiso   1.00
C797   C     0.36381   0.21979   0.82052   0.00000  Uiso   1.00
H798   H     0.38235   0.24774   0.80703   0.00000  Uiso   1.00
O799   O     0.35320   0.21264   0.86684   0.00000  Uiso   1.00
C800   C     0.39897   0.11156   0.67841   0.00000  Uiso   1.00
H801   H     0.43680   0.10807   0.67496   0.00000  Uiso   1.00
O802   O     0.38317   0.08948   0.64963   0.00000  Uiso   1.00
C803   C     0.38307   0.11548   0.89911   0.00000  Uiso   1.00
H804   H     0.34418   0.12010   0.91236   0.00000  Uiso   1.00
O805   O     0.40024   0.09414   0.85994   0.00000  Uiso   1.00
C806   C     0.40632   0.17542   0.56365   0.00000  Uiso   1.00
H807   H     0.37735   0.16135   0.59260   0.00000  Uiso   1.00
O808   O     0.41990   0.20908   0.57395   0.00000  Uiso   1.00
C809   C     0.34919   0.12233   0.51380   0.00000  Uiso   1.00
H810   H     0.66165   0.13806   0.54917   0.00000  Uiso   1.00
O811   O     0.66582   0.09127   0.99991   0.00000  Uiso   1.00
C812   C     0.56846   0.11335   0.86686   0.00000  Uiso   1.00
H813   H     0.60673   0.11408   0.84599   0.00000  Uiso   1.00
O814   O     0.54383   0.08606   0.85628   0.00000  Uiso   1.00
C815   C     0.83353   0.24577   0.74757   0.00000  Uiso   1.00
C816   C     0.81288   0.15605   0.98725   0.00000  Uiso   1.00
C817   C     0.82965   0.14815   0.93282   0.00000  Uiso   1.00
C818   C     0.84832   0.16470   0.51404   0.00000  Uiso   1.00
C819   C     0.89590   0.17440   0.98551   0.00000  Uiso   1.00
C820   C     0.91195   0.16328   0.93296   0.00000  Uiso   1.00
C821   C     0.88045   0.14387   0.90939   0.00000  Uiso   1.00
C822   C     0.83974   0.16011   0.56751   0.00000  Uiso   1.00
C823   C     0.91538   0.19361   0.56561   0.00000  Uiso   1.00
C824   C     0.79535   0.14583   0.90372   0.00000  Uiso   1.00
C825   C     0.87354   0.31039   0.75283   0.00000  Uiso   1.00
C826   C     0.80833   0.15938   0.84853   0.00000  Uiso   1.00
C827   C     0.87664   0.01932   0.75161   0.00000  Uiso   1.00
C828   C     0.83660   0.04253   0.74529   0.00000  Uiso   1.00
C829   C     0.79717   0.02236   0.73538   0.00000  Uiso   1.00
C830   C     0.79610   0.31313   0.73224   0.00000  Uiso   1.00
C831   C     0.83381   0.29028   0.74392   0.00000  Uiso   1.00
C832   C     0.96622   0.19196   0.78374   0.00000  Uiso   1.00
C833   C     0.68235   0.19186   0.78387   0.00000  Uiso   1.00
C834   C     0.69983   0.14116   0.71600   0.00000  Uiso   1.00
C835   C     0.98367   0.14202   0.71620   0.00000  Uiso   1.00
C836   C     0.83430   0.08735   0.74857   0.00000  Uiso   1.00
C837   C     0.85890   0.16942   0.65039   0.00000  Uiso   1.00
C838   C     0.92815   0.19081   0.51101   0.00000  Uiso   1.00
C839   C     0.87251   0.17427   0.59379   0.00000  Uiso   1.00
C840   C     0.74799   0.13307   0.92943   0.00000  Uiso   1.00
C841   C     0.73133   0.13686   0.98456   0.00000  Uiso   1.00
C842   C     0.76192   0.15490   0.51199   0.00000  Uiso   1.00
Cu843  Cu    0.78645   0.16666   0.75000   0.00000  Uiso   1.00
Cu844  Cu    0.88022   0.16667   0.75000   0.00000  Uiso   1.00
H845   H     0.76770   0.03994   0.72792   0.00000  Uiso   1.00
H846   H     0.97119   0.12288   0.68916   0.00000  Uiso   1.00
H847   H     0.94999   0.16495   0.91239   0.00000  Uiso   1.00
H848   H     0.96322   0.20115   0.98825   0.00000  Uiso   1.00
H849   H     0.80821   0.14390   0.58884   0.00000  Uiso   1.00
H850   H     0.90350   0.29293   0.75945   0.00000  Uiso   1.00
N851   N     0.71598   0.16666   0.74999   0.00000  Uiso   1.00
N852   N     0.95069   0.16669   0.75000   0.00000  Uiso   1.00
O853   O     0.79375   0.22678   0.75001   0.00000  Uiso   1.00
O854   O     0.87294   0.22679   0.75001   0.00000  Uiso   1.00
O855   O     0.77441   0.16665   0.82549   0.00000  Uiso   1.00
O856   O     0.85360   0.16666   0.82549   0.00000  Uiso   1.00
O857   O     0.79373   0.10654   0.75000   0.00000  Uiso   1.00
O858   O     0.87292   0.10655   0.75000   0.00000  Uiso   1.00
O859   O     0.81306   0.16667   0.67451   0.00000  Uiso   1.00
O860   O     0.89225   0.16668   0.67451   0.00000  Uiso   1.00
C861   C     0.94616   0.21758   0.59159   0.00000  Uiso   1.00
H862   H     0.93457   0.22446   0.63308   0.00000  Uiso   1.00
O863   O     0.98445   0.23161   0.56634   0.00000  Uiso   1.00
C864   C     0.92316   0.03686   0.75495   0.00000  Uiso   1.00
H865   H     0.93961   0.06146   0.73030   0.00000  Uiso   1.00
O866   O     0.94488   0.02252   0.78395   0.00000  Uiso   1.00
C867   C     0.75700   0.29417   0.71351   0.00000  Uiso   1.00
H868   H     0.76311   0.26511   0.69195   0.00000  Uiso   1.00
O869   O     0.71763   0.31150   0.72075   0.00000  Uiso   1.00
Cl870  Cl    0.92525   0.22640   0.82678   0.00000  Uiso   1.00
C871   C     0.69714   0.21979   0.82052   0.00000  Uiso   1.00
H872   H     0.71568   0.24774   0.80703   0.00000  Uiso   1.00
O873   O     0.68654   0.21264   0.86684   0.00000  Uiso   1.00
C874   C     0.73230   0.11156   0.67841   0.00000  Uiso   1.00
H875   H     0.77013   0.10807   0.67496   0.00000  Uiso   1.00
O876   O     0.71651   0.08948   0.64963   0.00000  Uiso   1.00
C877   C     0.71640   0.11548   0.89911   0.00000  Uiso   1.00
H878   H     0.67751   0.12010   0.91236   0.00000  Uiso   1.00
O879   O     0.73357   0.09414   0.85994   0.00000  Uiso   1.00
C880   C     0.73966   0.17542   0.56365   0.00000  Uiso   1.00
H881   H     0.71068   0.16135   0.59260   0.00000  Uiso   1.00
O882   O     0.75324   0.20908   0.57395   0.00000  Uiso   1.00
C883   C     0.68253   0.12233   0.51380   0.00000  Uiso   1.00
H884   H     0.99498   0.13806   0.54917   0.00000  Uiso   1.00
O885   O     0.99915   0.09127   0.99991   0.00000  Uiso   1.00
C886   C     0.90179   0.11335   0.86686   0.00000  Uiso   1.00
H887   H     0.94006   0.11408   0.84599   0.00000  Uiso   1.00
O888   O     0.87716   0.08606   0.85628   0.00000  Uiso   1.00
C889   C     0.16686   0.57910   0.74757   0.00000  Uiso   1.00
C890   C     0.14621   0.48938   0.98725   0.00000  Uiso   1.00
C891   C     0.16298   0.48148   0.93282   0.00000  Uiso   1.00
C892   C     0.18165   0.49803   0.51404   0.00000  Uiso   1.00
C893   C     0.22923   0.50773   0.98551   0.00000  Uiso   1.00
C894   C     0.24528   0.49661   0.93296   0.00000  Uiso   1.00
C895   C     0.21378   0.47720   0.90939   0.00000  Uiso   1.00
C896   C     0.17308   0.49344   0.56751   0.00000  Uiso   1.00
C897   C     0.24871   0.52694   0.56561   0.00000  Uiso   1.00
C898   C     0.12869   0.47917   0.90372   0.00000  Uiso   1.00
C899   C     0.20688   0.64372   0.75283   0.00000  Uiso   1.00
C900   C     0.14167   0.49271   0.84853   0.00000  Uiso   1.00
C901   C     0.20997   0.35266   0.75161   0.00000  Uiso   1.00
C902   C     0.16993   0.37587   0.74529   0.00000  Uiso   1.00
C903   C     0.13051   0.35569   0.73538   0.00000  Uiso   1.00
C904   C     0.12943   0.64646   0.73224   0.00000  Uiso   1.00
C905   C     0.16715   0.62362   0.74392   0.00000  Uiso   1.00
C906   C     0.29955   0.52529   0.78374   0.00000  Uiso   1.00
C907   C     0.01569   0.52519   0.78387   0.00000  Uiso   1.00
C908   C     0.03317   0.47450   0.71600   0.00000  Uiso   1.00
C909   C     0.31700   0.47536   0.71620   0.00000  Uiso   1.00
C910   C     0.16763   0.42068   0.74857   0.00000  Uiso   1.00
C911   C     0.19224   0.50275   0.65039   0.00000  Uiso   1.00
C912   C     0.26148   0.52414   0.51101   0.00000  Uiso   1.00
C913   C     0.20584   0.50761   0.59379   0.00000  Uiso   1.00
C914   C     0.08132   0.46640   0.92943   0.00000  Uiso   1.00
C915   C     0.06466   0.47020   0.98456   0.00000  Uiso   1.00
C916   C     0.09525   0.48823   0.51199   0.00000  Uiso   1.00
Cu917  Cu    0.11978   0.49999   0.75000   0.00000  Uiso   1.00
Cu918  Cu    0.21355   0.50001   0.75000   0.00000  Uiso   1.00
H919   H     0.10103   0.37327   0.72792   0.00000  Uiso   1.00
H920   H     0.30453   0.45621   0.68916   0.00000  Uiso   1.00
H921   H     0.28332   0.49828   0.91239   0.00000  Uiso   1.00
H922   H     0.29655   0.53448   0.98825   0.00000  Uiso   1.00
H923   H     0.14155   0.47724   0.58884   0.00000  Uiso   1.00
H924   H     0.23683   0.62627   0.75945   0.00000  Uiso   1.00
N925   N     0.04931   0.49999   0.74999   0.00000  Uiso   1.00
N926   N     0.28402   0.50002   0.75000   0.00000  Uiso   1.00
O927   O     0.12708   0.56011   0.75001   0.00000  Uiso   1.00
O928   O     0.20627   0.56012   0.75001   0.00000  Uiso   1.00
O929   O     0.10775   0.49998   0.82549   0.00000  Uiso   1.00
O930   O     0.18694   0.49999   0.82549   0.00000  Uiso   1.00
O931   O     0.12706   0.43988   0.75000   0.00000  Uiso   1.00
O932   O     0.20625   0.43989   0.75000   0.00000  Uiso   1.00
O933   O     0.14640   0.50001   0.67451   0.00000  Uiso   1.00
O934   O     0.22559   0.50002   0.67451   0.00000  Uiso   1.00
C935   C     0.27949   0.55091   0.59159   0.00000  Uiso   1.00
H936   H     0.26790   0.55779   0.63308   0.00000  Uiso   1.00
O937   O     0.31778   0.56495   0.56634   0.00000  Uiso   1.00
C938   C     0.25650   0.37020   0.75495   0.00000  Uiso   1.00
H939   H     0.27295   0.39479   0.73030   0.00000  Uiso   1.00
O940   O     0.27822   0.35586   0.78395   0.00000  Uiso   1.00
C941   C     0.09034   0.62750   0.71351   0.00000  Uiso   1.00
H942   H     0.09644   0.59844   0.69195   0.00000  Uiso   1.00
O943   O     0.05097   0.64483   0.72075   0.00000  Uiso   1.00
Cl944  Cl    0.25859   0.55973   0.82678   0.00000  Uiso   1.00
C945   C     0.03048   0.55312   0.82052   0.00000  Uiso   1.00
H946   H     0.04901   0.58108   0.80703   0.00000  Uiso   1.00
O947   O     0.01987   0.54598   0.86684   0.00000  Uiso   1.00
C948   C     0.06564   0.44489   0.67841   0.00000  Uiso   1.00
H949   H     0.10347   0.44140   0.67496   0.00000  Uiso   1.00
O950   O     0.04984   0.42281   0.64963   0.00000  Uiso   1.00
C951   C     0.04974   0.44882   0.89911   0.00000  Uiso   1.00
H952   H     0.01085   0.45344   0.91236   0.00000  Uiso   1.00
O953   O     0.06691   0.42748   0.85994   0.00000  Uiso   1.00
C954   C     0.07299   0.50875   0.56365   0.00000  Uiso   1.00
H955   H     0.04401   0.49468   0.59260   0.00000  Uiso   1.00
O956   O     0.08657   0.54241   0.57395   0.00000  Uiso   1.00
C957   C     0.01586   0.45567   0.51380   0.00000  Uiso   1.00
H958   H     0.32832   0.47139   0.54917   0.00000  Uiso   1.00
O959   O     0.33249   0.42460   0.99991   0.00000  Uiso   1.00
C960   C     0.23513   0.44668   0.86686   0.00000  Uiso   1.00
H961   H     0.27339   0.44741   0.84599   0.00000  Uiso   1.00
O962   O     0.21050   0.41939   0.85628   0.00000  Uiso   1.00
C963   C     0.50019   0.57910   0.74757   0.00000  Uiso   1.00
C964   C     0.47954   0.48938   0.98725   0.00000  Uiso   1.00
C965   C     0.49631   0.48148   0.93282   0.00000  Uiso   1.00
C966   C     0.51499   0.49803   0.51404   0.00000  Uiso   1.00
C967   C     0.56256   0.50773   0.98551   0.00000  Uiso   1.00
C968   C     0.57862   0.49661   0.93296   0.00000  Uiso   1.00
C969   C     0.54711   0.47720   0.90939   0.00000  Uiso   1.00
C970   C     0.50641   0.49344   0.56751   0.00000  Uiso   1.00
C971   C     0.58205   0.52694   0.56561   0.00000  Uiso   1.00
C972   C     0.46202   0.47917   0.90372   0.00000  Uiso   1.00
C973   C     0.54021   0.64372   0.75283   0.00000  Uiso   1.00
C974   C     0.47500   0.49271   0.84853   0.00000  Uiso   1.00
C975   C     0.54330   0.35266   0.75161   0.00000  Uiso   1.00
C976   C     0.50326   0.37587   0.74529   0.00000  Uiso   1.00
C977   C     0.46384   0.35569   0.73538   0.00000  Uiso   1.00
C978   C     0.46277   0.64646   0.73224   0.00000  Uiso   1.00
C979   C     0.50048   0.62362   0.74392   0.00000  Uiso   1.00
C980   C     0.63288   0.52529   0.78374   0.00000  Uiso   1.00
C981   C     0.34902   0.52519   0.78387   0.00000  Uiso   1.00
C982   C     0.36650   0.47450   0.71600   0.00000  Uiso   1.00
C983   C     0.65034   0.47536   0.71620   0.00000  Uiso   1.00
C984   C     0.50096   0.42068   0.74857   0.00000  Uiso   1.00
C985   C     0.52557   0.50275   0.65039   0.00000  Uiso   1.00
C986   C     0.59482   0.52414   0.51101   0.00000  Uiso   1.00
C987   C     0.53918   0.50761   0.59379   0.00000  Uiso   1.00
C988   C     0.41465   0.46640   0.92943   0.00000  Uiso   1.00
C989   C     0.39799   0.47020   0.98456   0.00000  Uiso   1.00
C990   C     0.42859   0.48823   0.51199   0.00000  Uiso   1.00
Cu991  Cu    0.45311   0.49999   0.75000   0.00000  Uiso   1.00
Cu992  Cu    0.54689   0.50001   0.75000   0.00000  Uiso   1.00
H993   H     0.43436   0.37327   0.72792   0.00000  Uiso   1.00
H994   H     0.63786   0.45621   0.68916   0.00000  Uiso   1.00
H995   H     0.61665   0.49828   0.91239   0.00000  Uiso   1.00
H996   H     0.62989   0.53448   0.98825   0.00000  Uiso   1.00
H997   H     0.47488   0.47724   0.58884   0.00000  Uiso   1.00
H998   H     0.57016   0.62627   0.75945   0.00000  Uiso   1.00
N999   N     0.38265   0.49999   0.74999   0.00000  Uiso   1.00
N1000  N     0.61735   0.50002   0.75000   0.00000  Uiso   1.00
O1001  O     0.46042   0.56011   0.75001   0.00000  Uiso   1.00
O1002  O     0.53961   0.56012   0.75001   0.00000  Uiso   1.00
O1003  O     0.44108   0.49998   0.82549   0.00000  Uiso   1.00
O1004  O     0.52027   0.49999   0.82549   0.00000  Uiso   1.00
O1005  O     0.46039   0.43988   0.75000   0.00000  Uiso   1.00
O1006  O     0.53958   0.43989   0.75000   0.00000  Uiso   1.00
O1007  O     0.47973   0.50001   0.67451   0.00000  Uiso   1.00
O1008  O     0.55892   0.50002   0.67451   0.00000  Uiso   1.00
C1009  C     0.61283   0.55091   0.59159   0.00000  Uiso   1.00
H1010  H     0.60124   0.55779   0.63308   0.00000  Uiso   1.00
O1011  O     0.65112   0.56495   0.56634   0.00000  Uiso   1.00
C1012  C     0.58983   0.37020   0.75495   0.00000  Uiso   1.00
H1013  H     0.60628   0.39479   0.73030   0.00000  Uiso   1.00
O1014  O     0.61155   0.35586   0.78395   0.00000  Uiso   1.00
C1015  C     0.42367   0.62750   0.71351   0.00000  Uiso   1.00
H1016  H     0.42977   0.59844   0.69195   0.00000  Uiso   1.00
O1017  O     0.38430   0.64483   0.72075   0.00000  Uiso   1.00
Cl1018 Cl    0.59192   0.55973   0.82678   0.00000  Uiso   1.00
C1019  C     0.36381   0.55312   0.82052   0.00000  Uiso   1.00
H1020  H     0.38235   0.58108   0.80703   0.00000  Uiso   1.00
O1021  O     0.35320   0.54598   0.86684   0.00000  Uiso   1.00
C1022  C     0.39897   0.44489   0.67841   0.00000  Uiso   1.00
H1023  H     0.43680   0.44140   0.67496   0.00000  Uiso   1.00
O1024  O     0.38317   0.42281   0.64963   0.00000  Uiso   1.00
C1025  C     0.38307   0.44882   0.89911   0.00000  Uiso   1.00
H1026  H     0.34418   0.45344   0.91236   0.00000  Uiso   1.00
O1027  O     0.40024   0.42748   0.85994   0.00000  Uiso   1.00
C1028  C     0.40632   0.50875   0.56365   0.00000  Uiso   1.00
H1029  H     0.37735   0.49468   0.59260   0.00000  Uiso   1.00
O1030  O     0.41990   0.54241   0.57395   0.00000  Uiso   1.00
C1031  C     0.34919   0.45567   0.51380   0.00000  Uiso   1.00
H1032  H     0.66165   0.47139   0.54917   0.00000  Uiso   1.00
O1033  O     0.66582   0.42460   0.99991   0.00000  Uiso   1.00
C1034  C     0.56846   0.44668   0.86686   0.00000  Uiso   1.00
H1035  H     0.60673   0.44741   0.84599   0.00000  Uiso   1.00
O1036  O     0.54383   0.41939   0.85628   0.00000  Uiso   1.00
C1037  C     0.83353   0.57910   0.74757   0.00000  Uiso   1.00
C1038  C     0.81288   0.48938   0.98725   0.00000  Uiso   1.00
C1039  C     0.82965   0.48148   0.93282   0.00000  Uiso   1.00
C1040  C     0.84832   0.49803   0.51404   0.00000  Uiso   1.00
C1041  C     0.89590   0.50773   0.98551   0.00000  Uiso   1.00
C1042  C     0.91195   0.49661   0.93296   0.00000  Uiso   1.00
C1043  C     0.88045   0.47720   0.90939   0.00000  Uiso   1.00
C1044  C     0.83974   0.49344   0.56751   0.00000  Uiso   1.00
C1045  C     0.91538   0.52694   0.56561   0.00000  Uiso   1.00
C1046  C     0.79535   0.47917   0.90372   0.00000  Uiso   1.00
C1047  C     0.87354   0.64372   0.75283   0.00000  Uiso   1.00
C1048  C     0.80833   0.49271   0.84853   0.00000  Uiso   1.00
C1049  C     0.87664   0.35266   0.75161   0.00000  Uiso   1.00
C1050  C     0.83660   0.37587   0.74529   0.00000  Uiso   1.00
C1051  C     0.79717   0.35569   0.73538   0.00000  Uiso   1.00
C1052  C     0.79610   0.64646   0.73224   0.00000  Uiso   1.00
C1053  C     0.83381   0.62362   0.74392   0.00000  Uiso   1.00
C1054  C     0.96622   0.52529   0.78374   0.00000  Uiso   1.00
C1055  C     0.68235   0.52519   0.78387   0.00000  Uiso   1.00
C1056  C     0.69983   0.47450   0.71600   0.00000  Uiso   1.00
C1057  C     0.98367   0.47536   0.71620   0.00000  Uiso   1.00
C1058  C     0.83430   0.42068   0.74857   0.00000  Uiso   1.00
C1059  C     0.85890   0.50275   0.65039   0.00000  Uiso   1.00
C1060  C     0.92815   0.52414   0.51101   0.00000  Uiso   1.00
C1061  C     0.87251   0.50761   0.59379   0.00000  Uiso   1.00
C1062  C     0.74799   0.46640   0.92943   0.00000  Uiso   1.00
C1063  C     0.73133   0.47020   0.98456   0.00000  Uiso   1.00
C1064  C     0.76192   0.48823   0.51199   0.00000  Uiso   1.00
Cu1065 Cu    0.78645   0.49999   0.75000   0.00000  Uiso   1.00
Cu1066 Cu    0.88022   0.50001   0.75000   0.00000  Uiso   1.00
H1067  H     0.76770   0.37327   0.72792   0.00000  Uiso   1.00
H1068  H     0.97119   0.45621   0.68916   0.00000  Uiso   1.00
H1069  H     0.94999   0.49828   0.91239   0.00000  Uiso   1.00
H1070  H     0.96322   0.53448   0.98825   0.00000  Uiso   1.00
H1071  H     0.80821   0.47724   0.58884   0.00000  Uiso   1.00
H1072  H     0.90350   0.62627   0.75945   0.00000  Uiso   1.00
N1073  N     0.71598   0.49999   0.74999   0.00000  Uiso   1.00
N1074  N     0.95069   0.50002   0.75000   0.00000  Uiso   1.00
O1075  O     0.79375   0.56011   0.75001   0.00000  Uiso   1.00
O1076  O     0.87294   0.56012   0.75001   0.00000  Uiso   1.00
O1077  O     0.77441   0.49998   0.82549   0.00000  Uiso   1.00
O1078  O     0.85360   0.49999   0.82549   0.00000  Uiso   1.00
O1079  O     0.79373   0.43988   0.75000   0.00000  Uiso   1.00
O1080  O     0.87292   0.43989   0.75000   0.00000  Uiso   1.00
O1081  O     0.81306   0.50001   0.67451   0.00000  Uiso   1.00
O1082  O     0.89225   0.50002   0.67451   0.00000  Uiso   1.00
C1083  C     0.94616   0.55091   0.59159   0.00000  Uiso   1.00
H1084  H     0.93457   0.55779   0.63308   0.00000  Uiso   1.00
O1085  O     0.98445   0.56495   0.56634   0.00000  Uiso   1.00
C1086  C     0.92316   0.37020   0.75495   0.00000  Uiso   1.00
H1087  H     0.93961   0.39479   0.73030   0.00000  Uiso   1.00
O1088  O     0.94488   0.35586   0.78395   0.00000  Uiso   1.00
C1089  C     0.75700   0.62750   0.71351   0.00000  Uiso   1.00
H1090  H     0.76311   0.59844   0.69195   0.00000  Uiso   1.00
O1091  O     0.71763   0.64483   0.72075   0.00000  Uiso   1.00
Cl1092 Cl    0.92525   0.55973   0.82678   0.00000  Uiso   1.00
C1093  C     0.69714   0.55312   0.82052   0.00000  Uiso   1.00
H1094  H     0.71568   0.58108   0.80703   0.00000  Uiso   1.00
O1095  O     0.68654   0.54598   0.86684   0.00000  Uiso   1.00
C1096  C     0.73230   0.44489   0.67841   0.00000  Uiso   1.00
H1097  H     0.77013   0.44140   0.67496   0.00000  Uiso   1.00
O1098  O     0.71651   0.42281   0.64963   0.00000  Uiso   1.00
C1099  C     0.71640   0.44882   0.89911   0.00000  Uiso   1.00
H1100  H     0.67751   0.45344   0.91236   0.00000  Uiso   1.00
O1101  O     0.73357   0.42748   0.85994   0.00000  Uiso   1.00
C1102  C     0.73966   0.50875   0.56365   0.00000  Uiso   1.00
H1103  H     0.71068   0.49468   0.59260   0.00000  Uiso   1.00
O1104  O     0.75324   0.54241   0.57395   0.00000  Uiso   1.00
C1105  C     0.68253   0.45567   0.51380   0.00000  Uiso   1.00
H1106  H     0.99498   0.47139   0.54917   0.00000  Uiso   1.00
O1107  O     0.99915   0.42460   0.99991   0.00000  Uiso   1.00
C1108  C     0.90179   0.44668   0.86686   0.00000  Uiso   1.00
H1109  H     0.94006   0.44741   0.84599   0.00000  Uiso   1.00
O1110  O     0.87716   0.41939   0.85628   0.00000  Uiso   1.00
C1111  C     0.16686   0.91244   0.74757   0.00000  Uiso   1.00
C1112  C     0.14621   0.82271   0.98725   0.00000  Uiso   1.00
C1113  C     0.16298   0.81481   0.93282   0.00000  Uiso   1.00
C1114  C     0.18165   0.83136   0.51404   0.00000  Uiso   1.00
C1115  C     0.22923   0.84106   0.98551   0.00000  Uiso   1.00
C1116  C     0.24528   0.82994   0.93296   0.00000  Uiso   1.00
C1117  C     0.21378   0.81054   0.90939   0.00000  Uiso   1.00
C1118  C     0.17308   0.82677   0.56751   0.00000  Uiso   1.00
C1119  C     0.24871   0.86027   0.56561   0.00000  Uiso   1.00
C1120  C     0.12869   0.81250   0.90372   0.00000  Uiso   1.00
C1121  C     0.20688   0.97706   0.75283   0.00000  Uiso   1.00
C1122  C     0.14167   0.82604   0.84853   0.00000  Uiso   1.00
C1123  C     0.20997   0.68599   0.75161   0.00000  Uiso   1.00
C1124  C     0.16993   0.70920   0.74529   0.00000  Uiso   1.00
C1125  C     0.13051   0.68903   0.73538   0.00000  Uiso   1.00
C1126  C     0.12943   0.97979   0.73224   0.00000  Uiso   1.00
C1127  C     0.16715   0.95695   0.74392   0.00000  Uiso   1.00
C1128  C     0.29955   0.85862   0.78374   0.00000  Uiso   1.00
C1129  C     0.01569   0.85853   0.78387   0.00000  Uiso   1.00
C1130  C     0.03317   0.80783   0.71600   0.00000  Uiso   1.00
C1131  C     0.31700   0.80869   0.71620   0.00000  Uiso   1.00
C1132  C     0.16763   0.75401   0.74857   0.00000  Uiso   1.00
C1133  C     0.19224   0.83609   0.65039   0.00000  Uiso   1.00
C1134  C     0.26148   0.85748   0.51101   0.00000  Uiso   1.00
C1135  C     0.20584   0.84094   0.59379   0.00000  Uiso   1.00
C1136  C     0.08132   0.79974   0.92943   0.00000  Uiso   1.00
C1137  C     0.06466   0.80353   0.98456   0.00000  Uiso   1.00
C1138  C     0.09525   0.82156   0.51199   0.00000  Uiso   1.00
Cu1139 Cu    0.11978   0.83333   0.75000   0.00000  Uiso   1.00
Cu1140 Cu    0.21355   0.83334   0.75000   0.00000  Uiso   1.00
H1141  H     0.10103   0.70660   0.72792   0.00000  Uiso   1.00
H1142  H     0.30453   0.78955   0.68916   0.00000  Uiso   1.00
H1143  H     0.28332   0.83161   0.91239   0.00000  Uiso   1.00
H1144  H     0.29655   0.86782   0.98825   0.00000  Uiso   1.00
H1145  H     0.14155   0.81057   0.58884   0.00000  Uiso   1.00
H1146  H     0.23683   0.95960   0.75945   0.00000  Uiso   1.00
N1147  N     0.04931   0.83332   0.74999   0.00000  Uiso   1.00
N1148  N     0.28402   0.83335   0.75000   0.00000  Uiso   1.00
O1149  O     0.12708   0.89345   0.75001   0.00000  Uiso   1.00
O1150  O     0.20627   0.89346   0.75001   0.00000  Uiso   1.00
O1151  O     0.10775   0.83332   0.82549   0.00000  Uiso   1.00
O1152  O     0.18694   0.83333   0.82549   0.00000  Uiso   1.00
O1153  O     0.12706   0.77321   0.75000   0.00000  Uiso   1.00
O1154  O     0.20625   0.77322   0.75000   0.00000  Uiso   1.00
O1155  O     0.14640   0.83334   0.67451   0.00000  Uiso   1.00
O1156  O     0.22559   0.83335   0.67451   0.00000  Uiso   1.00
C1157  C     0.27949   0.88425   0.59159   0.00000  Uiso   1.00
H1158  H     0.26790   0.89112   0.63308   0.00000  Uiso   1.00
O1159  O     0.31778   0.89828   0.56634   0.00000  Uiso   1.00
C1160  C     0.25650   0.70353   0.75495   0.00000  Uiso   1.00
H1161  H     0.27295   0.72813   0.73030   0.00000  Uiso   1.00
O1162  O     0.27822   0.68919   0.78395   0.00000  Uiso   1.00
C1163  C     0.09034   0.96083   0.71351   0.00000  Uiso   1.00
H1164  H     0.09644   0.93178   0.69195   0.00000  Uiso   1.00
O1165  O     0.05097   0.97817   0.72075   0.00000  Uiso   1.00
Cl1166 Cl    0.25859   0.89307   0.82678   0.00000  Uiso   1.00
C1167  C     0.03048   0.88645   0.82052   0.00000  Uiso   1.00
H1168  H     0.04901   0.91441   0.80703   0.00000  Uiso   1.00
O1169  O     0.01987   0.87931   0.86684   0.00000  Uiso   1.00
C1170  C     0.06564   0.77823   0.67841   0.00000  Uiso   1.00
H1171  H     0.10347   0.77473   0.67496   0.00000  Uiso   1.00
O1172  O     0.04984   0.75615   0.64963   0.00000  Uiso   1.00
C1173  C     0.04974   0.78215   0.89911   0.00000  Uiso   1.00
H1174  H     0.01085   0.78677   0.91236   0.00000  Uiso   1.00
O1175  O     0.06691   0.76081   0.85994   0.00000  Uiso   1.00
C1176  C     0.07299   0.84208   0.56365   0.00000  Uiso   1.00
H1177  H     0.04401   0.82802   0.59260   0.00000  Uiso   1.00
O1178  O     0.08657   0.87574   0.57395   0.00000  Uiso   1.00
C1179  C     0.01586   0.78900   0.51380   0.00000  Uiso   1.00
H1180  H     0.32832   0.80472   0.54917   0.00000  Uiso   1.00
O1181  O     0.33249   0.75793   0.99991   0.00000  Uiso   1.00
C1182  C     0.23513   0.78001   0.86686   0.00000  Uiso   1.00
H1183  H     0.27339   0.78074   0.84599   0.00000  Uiso   1.00
O1184  O     0.21050   0.75273   0.85628   0.00000  Uiso   1.00
C1185  C     0.50019   0.91244   0.74757   0.00000  Uiso   1.00
C1186  C     0.47954   0.82271   0.98725   0.00000  Uiso   1.00
C1187  C     0.49631   0.81481   0.93282   0.00000  Uiso   1.00
C1188  C     0.51499   0.83136   0.51404   0.00000  Uiso   1.00
C1189  C     0.56256   0.84106   0.98551   0.00000  Uiso   1.00
C1190  C     0.57862   0.82994   0.93296   0.00000  Uiso   1.00
C1191  C     0.54711   0.81054   0.90939   0.00000  Uiso   1.00
C1192  C     0.50641   0.82677   0.56751   0.00000  Uiso   1.00
C1193  C     0.58205   0.86027   0.56561   0.00000  Uiso   1.00
C1194  C     0.46202   0.81250   0.90372   0.00000  Uiso   1.00
C1195  C     0.54021   0.97706   0.75283   0.00000  Uiso   1.00
C1196  C     0.47500   0.82604   0.84853   0.00000  Uiso   1.00
C1197  C     0.54330   0.68599   0.75161   0.00000  Uiso   1.00
C1198  C     0.50326   0.70920   0.74529   0.00000  Uiso   1.00
C1199  C     0.46384   0.68903   0.73538   0.00000  Uiso   1.00
C1200  C     0.46277   0.97979   0.73224   0.00000  Uiso   1.00
C1201  C     0.50048   0.95695   0.74392   0.00000  Uiso   1.00
C1202  C     0.63288   0.85862   0.78374   0.00000  Uiso   1.00
C1203  C     0.34902   0.85853   0.78387   0.00000  Uiso   1.00
C1204  C     0.36650   0.80783   0.71600   0.00000  Uiso   1.00
C1205  C     0.65034   0.80869   0.71620   0.00000  Uiso   1.00
C1206  C     0.50096   0.75401   0.74857   0.00000  Uiso   1.00
C1207  C     0.52557   0.83609   0.65039   0.00000  Uiso   1.00
C1208  C     0.59482   0.85748   0.51101   0.00000  Uiso   1.00
C1209  C     0.53918   0.84094   0.59379   0.00000  Uiso   1.00
C1210  C     0.41465   0.79974   0.92943   0.00000  Uiso   1.00
C1211  C     0.39799   0.80353   0.98456   0.00000  Uiso   1.00
C1212  C     0.42859   0.82156   0.51199   0.00000  Uiso   1.00
Cu1213 Cu    0.45311   0.83333   0.75000   0.00000  Uiso   1.00
Cu1214 Cu    0.54689   0.83334   0.75000   0.00000  Uiso   1.00
H1215  H     0.43436   0.70660   0.72792   0.00000  Uiso   1.00
H1216  H     0.63786   0.78955   0.68916   0.00000  Uiso   1.00
H1217  H     0.61665   0.83161   0.91239   0.00000  Uiso   1.00
H1218  H     0.62989   0.86782   0.98825   0.00000  Uiso   1.00
H1219  H     0.47488   0.81057   0.58884   0.00000  Uiso   1.00
H1220  H     0.57016   0.95960   0.75945   0.00000  Uiso   1.00
N1221  N     0.38265   0.83332   0.74999   0.00000  Uiso   1.00
N1222  N     0.61735   0.83335   0.75000   0.00000  Uiso   1.00
O1223  O     0.46042   0.89345   0.75001   0.00000  Uiso   1.00
O1224  O     0.53961   0.89346   0.75001   0.00000  Uiso   1.00
O1225  O     0.44108   0.83332   0.82549   0.00000  Uiso   1.00
O1226  O     0.52027   0.83333   0.82549   0.00000  Uiso   1.00
O1227  O     0.46039   0.77321   0.75000   0.00000  Uiso   1.00
O1228  O     0.53958   0.77322   0.75000   0.00000  Uiso   1.00
O1229  O     0.47973   0.83334   0.67451   0.00000  Uiso   1.00
O1230  O     0.55892   0.83335   0.67451   0.00000  Uiso   1.00
C1231  C     0.61283   0.88425   0.59159   0.00000  Uiso   1.00
H1232  H     0.60124   0.89112   0.63308   0.00000  Uiso   1.00
O1233  O     0.65112   0.89828   0.56634   0.00000  Uiso   1.00
C1234  C     0.58983   0.70353   0.75495   0.00000  Uiso   1.00
H1235  H     0.60628   0.72813   0.73030   0.00000  Uiso   1.00
O1236  O     0.61155   0.68919   0.78395   0.00000  Uiso   1.00
C1237  C     0.42367   0.96083   0.71351   0.00000  Uiso   1.00
H1238  H     0.42977   0.93178   0.69195   0.00000  Uiso   1.00
O1239  O     0.38430   0.97817   0.72075   0.00000  Uiso   1.00
Cl1240 Cl    0.59192   0.89307   0.82678   0.00000  Uiso   1.00
C1241  C     0.36381   0.88645   0.82052   0.00000  Uiso   1.00
H1242  H     0.38235   0.91441   0.80703   0.00000  Uiso   1.00
O1243  O     0.35320   0.87931   0.86684   0.00000  Uiso   1.00
C1244  C     0.39897   0.77823   0.67841   0.00000  Uiso   1.00
H1245  H     0.43680   0.77473   0.67496   0.00000  Uiso   1.00
O1246  O     0.38317   0.75615   0.64963   0.00000  Uiso   1.00
C1247  C     0.38307   0.78215   0.89911   0.00000  Uiso   1.00
H1248  H     0.34418   0.78677   0.91236   0.00000  Uiso   1.00
O1249  O     0.40024   0.76081   0.85994   0.00000  Uiso   1.00
C1250  C     0.40632   0.84208   0.56365   0.00000  Uiso   1.00
H1251  H     0.37735   0.82802   0.59260   0.00000  Uiso   1.00
O1252  O     0.41990   0.87574   0.57395   0.00000  Uiso   1.00
C1253  C     0.34919   0.78900   0.51380   0.00000  Uiso   1.00
H1254  H     0.66165   0.80472   0.54917   0.00000  Uiso   1.00
O1255  O     0.66582   0.75793   0.99991   0.00000  Uiso   1.00
C1256  C     0.56846   0.78001   0.86686   0.00000  Uiso   1.00
H1257  H     0.60673   0.78074   0.84599   0.00000  Uiso   1.00
O1258  O     0.54383   0.75273   0.85628   0.00000  Uiso   1.00
C1259  C     0.83353   0.91244   0.74757   0.00000  Uiso   1.00
C1260  C     0.81288   0.82271   0.98725   0.00000  Uiso   1.00
C1261  C     0.82965   0.81481   0.93282   0.00000  Uiso   1.00
C1262  C     0.84832   0.83136   0.51404   0.00000  Uiso   1.00
C1263  C     0.89590   0.84106   0.98551   0.00000  Uiso   1.00
C1264  C     0.91195   0.82994   0.93296   0.00000  Uiso   1.00
C1265  C     0.88045   0.81054   0.90939   0.00000  Uiso   1.00
C1266  C     0.83974   0.82677   0.56751   0.00000  Uiso   1.00
C1267  C     0.91538   0.86027   0.56561   0.00000  Uiso   1.00
C1268  C     0.79535   0.81250   0.90372   0.00000  Uiso   1.00
C1269  C     0.87354   0.97706   0.75283   0.00000  Uiso   1.00
C1270  C     0.80833   0.82604   0.84853   0.00000  Uiso   1.00
C1271  C     0.87664   0.68599   0.75161   0.00000  Uiso   1.00
C1272  C     0.83660   0.70920   0.74529   0.00000  Uiso   1.00
C1273  C     0.79717   0.68903   0.73538   0.00000  Uiso   1.00
C1274  C     0.79610   0.97979   0.73224   0.00000  Uiso   1.00
C1275  C     0.83381   0.95695   0.74392   0.00000  Uiso   1.00
C1276  C     0.96622   0.85862   0.78374   0.00000  Uiso   1.00
C1277  C     0.68235   0.85853   0.78387   0.00000  Uiso   1.00
C1278  C     0.69983   0.80783   0.71600   0.00000  Uiso   1.00
C1279  C     0.98367   0.80869   0.71620   0.00000  Uiso   1.00
C1280  C     0.83430   0.75401   0.74857   0.00000  Uiso   1.00
C1281  C     0.85890   0.83609   0.65039   0.00000  Uiso   1.00
C1282  C     0.92815   0.85748   0.51101   0.00000  Uiso   1.00
C1283  C     0.87251   0.84094   0.59379   0.00000  Uiso   1.00
C1284  C     0.74799   0.79974   0.92943   0.00000  Uiso   1.00
C1285  C     0.73133   0.80353   0.98456   0.00000  Uiso   1.00
C1286  C     0.76192   0.82156   0.51199   0.00000  Uiso   1.00
Cu1287 Cu    0.78645   0.83333   0.75000   0.00000  Uiso   1.00
Cu1288 Cu    0.88022   0.83334   0.75000   0.00000  Uiso   1.00
H1289  H     0.76770   0.70660   0.72792   0.00000  Uiso   1.00
H1290  H     0.97119   0.78955   0.68916   0.00000  Uiso   1.00
H1291  H     0.94999   0.83161   0.91239   0.00000  Uiso   1.00
H1292  H     0.96322   0.86782   0.98825   0.00000  Uiso   1.00
H1293  H     0.80821   0.81057   0.58884   0.00000  Uiso   1.00
H1294  H     0.90350   0.95960   0.75945   0.00000  Uiso   1.00
N1295  N     0.71598   0.83332   0.74999   0.00000  Uiso   1.00
N1296  N     0.95069   0.83335   0.75000   0.00000  Uiso   1.00
O1297  O     0.79375   0.89345   0.75001   0.00000  Uiso   1.00
O1298  O     0.87294   0.89346   0.75001   0.00000  Uiso   1.00
O1299  O     0.77441   0.83332   0.82549   0.00000  Uiso   1.00
O1300  O     0.85360   0.83333   0.82549   0.00000  Uiso   1.00
O1301  O     0.79373   0.77321   0.75000   0.00000  Uiso   1.00
O1302  O     0.87292   0.77322   0.75000   0.00000  Uiso   1.00
O1303  O     0.81306   0.83334   0.67451   0.00000  Uiso   1.00
O1304  O     0.89225   0.83335   0.67451   0.00000  Uiso   1.00
C1305  C     0.94616   0.88425   0.59159   0.00000  Uiso   1.00
H1306  H     0.93457   0.89112   0.63308   0.00000  Uiso   1.00
O1307  O     0.98445   0.89828   0.56634   0.00000  Uiso   1.00
C1308  C     0.92316   0.70353   0.75495   0.00000  Uiso   1.00
H1309  H     0.93961   0.72813   0.73030   0.00000  Uiso   1.00
O1310  O     0.94488   0.68919   0.78395   0.00000  Uiso   1.00
C1311  C     0.75700   0.96083   0.71351   0.00000  Uiso   1.00
H1312  H     0.76311   0.93178   0.69195   0.00000  Uiso   1.00
O1313  O     0.71763   0.97817   0.72075   0.00000  Uiso   1.00
Cl1314 Cl    0.92525   0.89307   0.82678   0.00000  Uiso   1.00
C1315  C     0.69714   0.88645   0.82052   0.00000  Uiso   1.00
H1316  H     0.71568   0.91441   0.80703   0.00000  Uiso   1.00
O1317  O     0.68654   0.87931   0.86684   0.00000  Uiso   1.00
C1318  C     0.73230   0.77823   0.67841   0.00000  Uiso   1.00
H1319  H     0.77013   0.77473   0.67496   0.00000  Uiso   1.00
O1320  O     0.71651   0.75615   0.64963   0.00000  Uiso   1.00
C1321  C     0.71640   0.78215   0.89911   0.00000  Uiso   1.00
H1322  H     0.67751   0.78677   0.91236   0.00000  Uiso   1.00
O1323  O     0.73357   0.76081   0.85994   0.00000  Uiso   1.00
C1324  C     0.73966   0.84208   0.56365   0.00000  Uiso   1.00
H1325  H     0.71068   0.82802   0.59260   0.00000  Uiso   1.00
O1326  O     0.75324   0.87574   0.57395   0.00000  Uiso   1.00
C1327  C     0.68253   0.78900   0.51380   0.00000  Uiso   1.00
H1328  H     0.99498   0.80472   0.54917   0.00000  Uiso   1.00
O1329  O     0.99915   0.75793   0.99991   0.00000  Uiso   1.00
C1330  C     0.90179   0.78001   0.86686   0.00000  Uiso   1.00
H1331  H     0.94006   0.78074   0.84599   0.00000  Uiso   1.00
O1332  O     0.87716   0.75273   0.85628   0.00000  Uiso   1.00
loop_
_geom_bond_atom_site_label_1
_geom_bond_atom_site_label_2
_geom_bond_distance
_geom_bond_site_symmetry_2
_ccdc_geom_bond_type
C1     O39     1.294   .     A
C1     O40     1.302   .     A
C1     C17     1.459   .     S
C2     C3      1.415   .     A
C2     C670    1.427   .     S
C2     C694    1.430   .     S
C3     C7      1.422   .     A
C3     C10     1.418   .     A
C4     C8      1.394   .     A
C4     C668    1.427   1_554 S
C4     C671    1.411   1_554 S
C5     C6      1.388   .     A
C5     C670    1.411   .     S
C5     C690    1.399   .     S
C6     H33     1.080   .     S
C6     C7      1.390   .     A
C7     C72     1.483   .     S
C8     C25     1.399   .     A
C8     H35     1.080   .     S
C9     C24     1.403   .     A
C9     C25     1.418   .     A
C9     C47     1.487   .     S
C10    C26     1.416   .     A
C10    C12     1.498   .     S
C11    H36     1.084   .     S
C11    C17     1.398   .     A
C11    C235    1.385   .     S
C12    O41     1.313   .     A
C12    O42     1.302   .     A
C13    C14     1.421   .     A
C13    C50     1.485   .     S
C13    C455    1.385   1_545 S
C14    C22     1.463   .     S
C14    C15     1.402   .     A
C15    H31     1.083   .     S
C15    C460    1.392   1_545 S
C16    C53     1.487   .     S
C16    C17     1.417   .     A
C16    C237    1.392   .     S
C18    Cl56    1.765   .     S
C18    N38     1.375   .     A
C18    C93     1.422   .     S
C19    C57     1.473   .     S
C19    N37     1.372   .     A
C19    C166    1.422   1_455 S
C20    C60     1.489   .     S
C20    N37     1.393   .     A
C20    C169    1.420   1_455 S
C21    H32     1.082   .     S
C21    N38     1.352   .     A
C21    C94     1.420   .     S
C22    O43     1.307   .     A
C22    O44     1.291   .     A
C23    O46     1.299   .     A
C23    O45     1.300   .     A
C23    C25     1.467   .     S
C24    C671    1.399   1_554 S
C24    H700    1.085   1_554 S
C26    C63     1.487   .     S
C26    C27     1.419   .     A
C27    C694    1.417   .     S
C27    C735    1.492   .     S
C28    C66     1.488   .     S
C28    C668    1.430   1_554 S
C28    C693    1.417   1_554 S
Cu29   O43     1.972   .     S
Cu29   Cu30    2.694   .     S
Cu29   N37     2.024   .     S
Cu29   O39     1.977   .     S
Cu29   O41     1.951   .     S
Cu29   O45     1.949   .     S
Cu30   O44     1.977   .     S
Cu30   O42     1.949   .     S
Cu30   O40     1.972   .     S
Cu30   N38     2.024   .     S
Cu30   O46     1.951   .     S
H34    C690    1.085   .     S
C47    O49     1.221   .     D
C47    H48     1.082   .     S
C50    O52     1.222   .     D
C50    H51     1.080   .     S
C53    O55     1.222   .     D
C53    H54     1.084   .     S
C57    H58     1.082   .     S
C57    O59     1.220   .     D
C60    O62     1.222   .     D
C60    H61     1.069   .     S
C63    O65     1.221   .     D
C63    H64     1.081   .     S
C66    O68     1.221   .     D
C66    H67     1.083   .     S
C69    C693    1.492   1_554 S
C69    H218    1.081   1_455 S
C69    O885    1.221   1_454 S
H70    C143    1.081   .     S
O71    C809    1.221   .     S
C72    O74     1.221   .     D
C72    H73     1.086   .     S
C75    O113    1.294   .     A
C75    O114    1.302   .     A
C75    C91     1.459   .     S
C76    C77     1.415   .     A
C76    C744    1.427   .     S
C76    C768    1.430   .     S
C77    C81     1.422   .     A
C77    C84     1.418   .     A
C78    C82     1.394   .     A
C78    C742    1.427   1_554 S
C78    C745    1.411   1_554 S
C79    C80     1.388   .     A
C79    C744    1.411   .     S
C79    C764    1.399   .     S
C80    H107    1.080   .     S
C80    C81     1.390   .     A
C81    C146    1.483   .     S
C82    C99     1.399   .     A
C82    H109    1.080   .     S
C83    C98     1.403   .     A
C83    C99     1.418   .     A
C83    C121    1.487   .     S
C84    C100    1.416   .     A
C84    C86     1.498   .     S
C85    H110    1.084   .     S
C85    C91     1.398   .     A
C85    C309    1.385   .     S
C86    O115    1.313   .     A
C86    O116    1.302   .     A
C87    C88     1.421   .     A
C87    C124    1.485   .     S
C87    C529    1.385   1_545 S
C88    C96     1.463   .     S
C88    C89     1.402   .     A
C89    H105    1.083   .     S
C89    C534    1.392   1_545 S
C90    C127    1.487   .     S
C90    C91     1.417   .     A
C90    C311    1.392   .     S
C92    Cl130   1.765   .     S
C92    N112    1.375   .     A
C92    C167    1.422   .     S
C93    C131    1.473   .     S
C93    N111    1.372   .     A
C94    C134    1.489   .     S
C94    N111    1.393   .     A
C95    H106    1.082   .     S
C95    N112    1.352   .     A
C95    C168    1.420   .     S
C96    O117    1.307   .     A
C96    O118    1.291   .     A
C97    O120    1.299   .     A
C97    O119    1.300   .     A
C97    C99     1.467   .     S
C98    C745    1.399   1_554 S
C98    H774    1.085   1_554 S
C100   C137    1.487   .     S
C100   C101    1.419   .     A
C101   C768    1.417   .     S
C101   C809    1.492   .     S
C102   C140    1.488   .     S
C102   C742    1.430   1_554 S
C102   C767    1.417   1_554 S
Cu103  O117    1.972   .     S
Cu103  Cu104   2.694   .     S
Cu103  N111    2.024   .     S
Cu103  O113    1.977   .     S
Cu103  O115    1.951   .     S
Cu103  O119    1.949   .     S
Cu104  O118    1.977   .     S
Cu104  O116    1.949   .     S
Cu104  O114    1.972   .     S
Cu104  N112    2.024   .     S
Cu104  O120    1.951   .     S
H108   C764    1.085   .     S
C121   O123    1.221   .     D
C121   H122    1.082   .     S
C124   O126    1.222   .     D
C124   H125    1.080   .     S
C127   O129    1.222   .     D
C127   H128    1.084   .     S
C131   H132    1.082   .     S
C131   O133    1.220   .     D
C134   O136    1.222   .     D
C134   H135    1.069   .     S
C137   O139    1.221   .     D
C137   H138    1.081   .     S
C140   O142    1.221   .     D
C140   H141    1.083   .     S
C143   C767    1.492   1_554 S
C143   O737    1.221   1_554 S
H144   C217    1.081   .     S
O145   C883    1.221   .     S
C146   O148    1.221   .     D
C146   H147    1.086   .     S
C149   O187    1.294   .     A
C149   O188    1.302   .     A
C149   C165    1.459   .     S
C150   C151    1.415   .     A
C150   C818    1.427   .     S
C150   C842    1.430   .     S
C151   C155    1.422   .     A
C151   C158    1.418   .     A
C152   C156    1.394   .     A
C152   C816    1.427   1_554 S
C152   C819    1.411   1_554 S
C153   C154    1.388   .     A
C153   C818    1.411   .     S
C153   C838    1.399   .     S
C154   H181    1.080   .     S
C154   C155    1.390   .     A
C155   C220    1.483   .     S
C156   C173    1.399   .     A
C156   H183    1.080   .     S
C157   C172    1.403   .     A
C157   C173    1.418   .     A
C157   C195    1.487   .     S
C158   C174    1.416   .     A
C158   C160    1.498   .     S
C159   H184    1.084   .     S
C159   C165    1.398   .     A
C159   C383    1.385   .     S
C160   O189    1.313   .     A
C160   O190    1.302   .     A
C161   C162    1.421   .     A
C161   C198    1.485   .     S
C161   C603    1.385   1_545 S
C162   C170    1.463   .     S
C162   C163    1.402   .     A
C163   H179    1.083   .     S
C163   C608    1.392   1_545 S
C164   C201    1.487   .     S
C164   C165    1.417   .     A
C164   C385    1.392   .     S
C166   Cl204   1.765   .     S
C166   N186    1.375   .     A
C166   C19     1.422   1_655 S
C167   C205    1.473   .     S
C167   N185    1.372   .     A
C168   C208    1.489   .     S
C168   N185    1.393   .     A
C169   H180    1.082   .     S
C169   N186    1.352   .     A
C169   C20     1.420   1_655 S
C170   O191    1.307   .     A
C170   O192    1.291   .     A
C171   O194    1.299   .     A
C171   O193    1.300   .     A
C171   C173    1.467   .     S
C172   C819    1.399   1_554 S
C172   H848    1.085   1_554 S
C174   C211    1.487   .     S
C174   C175    1.419   .     A
C175   C842    1.417   .     S
C175   C883    1.492   .     S
C176   C214    1.488   .     S
C176   C816    1.430   1_554 S
C176   C841    1.417   1_554 S
Cu177  O191    1.972   .     S
Cu177  Cu178   2.694   .     S
Cu177  N185    2.024   .     S
Cu177  O187    1.977   .     S
Cu177  O189    1.951   .     S
Cu177  O193    1.949   .     S
Cu178  O192    1.977   .     S
Cu178  O190    1.949   .     S
Cu178  O188    1.972   .     S
Cu178  N186    2.024   .     S
Cu178  O194    1.951   .     S
H182   C838    1.085   .     S
C195   O197    1.221   .     D
C195   H196    1.082   .     S
C198   O200    1.222   .     D
C198   H199    1.080   .     S
C201   O203    1.222   .     D
C201   H202    1.084   .     S
C205   H206    1.082   .     S
C205   O207    1.220   .     D
C208   O210    1.222   .     D
C208   H209    1.069   .     S
C211   O213    1.221   .     D
C211   H212    1.081   .     S
C214   O216    1.221   .     D
C214   H215    1.083   .     S
C217   C841    1.492   1_554 S
C217   O811    1.221   1_554 S
H218   C69     1.081   1_655 S
O219   C735    1.221   1_655 S
C220   O222    1.221   .     D
C220   H221    1.086   .     S
C223   O261    1.294   .     A
C223   O262    1.302   .     A
C223   C239    1.459   .     S
C224   C225    1.415   .     A
C224   C892    1.427   .     S
C224   C916    1.430   .     S
C225   C229    1.422   .     A
C225   C232    1.418   .     A
C226   C230    1.394   .     A
C226   C890    1.427   1_554 S
C226   C893    1.411   1_554 S
C227   C228    1.388   .     A
C227   C892    1.411   .     S
C227   C912    1.399   .     S
C228   H255    1.080   .     S
C228   C229    1.390   .     A
C229   C294    1.483   .     S
C230   C247    1.399   .     A
C230   H257    1.080   .     S
C231   C246    1.403   .     A
C231   C247    1.418   .     A
C231   C269    1.487   .     S
C232   C248    1.416   .     A
C232   C234    1.498   .     S
C233   H258    1.084   .     S
C233   C239    1.398   .     A
C233   C457    1.385   .     S
C234   O263    1.313   .     A
C234   O264    1.302   .     A
C235   C236    1.421   .     A
C235   C272    1.485   .     S
C236   C244    1.463   .     S
C236   C237    1.402   .     A
C237   H253    1.083   .     S
C238   C275    1.487   .     S
C238   C239    1.417   .     A
C238   C459    1.392   .     S
C240   Cl278   1.765   .     S
C240   N260    1.375   .     A
C240   C315    1.422   .     S
C241   C279    1.473   .     S
C241   N259    1.372   .     A
C241   C388    1.422   1_455 S
C242   C282    1.489   .     S
C242   N259    1.393   .     A
C242   C391    1.420   1_455 S
C243   H254    1.082   .     S
C243   N260    1.352   .     A
C243   C316    1.420   .     S
C244   O265    1.307   .     A
C244   O266    1.291   .     A
C245   O268    1.299   .     A
C245   O267    1.300   .     A
C245   C247    1.467   .     S
C246   C893    1.399   1_554 S
C246   H922    1.085   1_554 S
C248   C285    1.487   .     S
C248   C249    1.419   .     A
C249   C916    1.417   .     S
C249   C957    1.492   .     S
C250   C288    1.488   .     S
C250   C890    1.430   1_554 S
C250   C915    1.417   1_554 S
Cu251  O265    1.972   .     S
Cu251  Cu252   2.694   .     S
Cu251  N259    2.024   .     S
Cu251  O261    1.977   .     S
Cu251  O263    1.951   .     S
Cu251  O267    1.949   .     S
Cu252  O266    1.977   .     S
Cu252  O264    1.949   .     S
Cu252  O262    1.972   .     S
Cu252  N260    2.024   .     S
Cu252  O268    1.951   .     S
H256   C912    1.085   .     S
C269   O271    1.221   .     D
C269   H270    1.082   .     S
C272   O274    1.222   .     D
C272   H273    1.080   .     S
C275   O277    1.222   .     D
C275   H276    1.084   .     S
C279   H280    1.082   .     S
C279   O281    1.220   .     D
C282   O284    1.222   .     D
C282   H283    1.069   .     S
C285   O287    1.221   .     D
C285   H286    1.081   .     S
C288   O290    1.221   .     D
C288   H289    1.083   .     S
C291   C915    1.492   1_554 S
C291   H440    1.081   1_455 S
C291   O1107   1.221   1_454 S
H292   C365    1.081   .     S
O293   C1031   1.221   .     S
C294   O296    1.221   .     D
C294   H295    1.086   .     S
C297   O335    1.294   .     A
C297   O336    1.302   .     A
C297   C313    1.459   .     S
C298   C299    1.415   .     A
C298   C966    1.427   .     S
C298   C990    1.430   .     S
C299   C303    1.422   .     A
C299   C306    1.418   .     A
C300   C304    1.394   .     A
C300   C964    1.427   1_554 S
C300   C967    1.411   1_554 S
C301   C302    1.388   .     A
C301   C966    1.411   .     S
C301   C986    1.399   .     S
C302   H329    1.080   .     S
C302   C303    1.390   .     A
C303   C368    1.483   .     S
C304   C321    1.399   .     A
C304   H331    1.080   .     S
C305   C320    1.403   .     A
C305   C321    1.418   .     A
C305   C343    1.487   .     S
C306   C322    1.416   .     A
C306   C308    1.498   .     S
C307   H332    1.084   .     S
C307   C313    1.398   .     A
C307   C531    1.385   .     S
C308   O337    1.313   .     A
C308   O338    1.302   .     A
C309   C310    1.421   .     A
C309   C346    1.485   .     S
C310   C318    1.463   .     S
C310   C311    1.402   .     A
C311   H327    1.083   .     S
C312   C349    1.487   .     S
C312   C313    1.417   .     A
C312   C533    1.392   .     S
C314   Cl352   1.765   .     S
C314   N334    1.375   .     A
C314   C389    1.422   .     S
C315   C353    1.473   .     S
C315   N333    1.372   .     A
C316   C356    1.489   .     S
C316   N333    1.393   .     A
C317   H328    1.082   .     S
C317   N334    1.352   .     A
C317   C390    1.420   .     S
C318   O339    1.307   .     A
C318   O340    1.291   .     A
C319   O342    1.299   .     A
C319   O341    1.300   .     A
C319   C321    1.467   .     S
C320   C967    1.399   1_554 S
C320   H996    1.085   1_554 S
C322   C359    1.487   .     S
C322   C323    1.419   .     A
C323   C990    1.417   .     S
C323   C1031   1.492   .     S
C324   C362    1.488   .     S
C324   C964    1.430   1_554 S
C324   C989    1.417   1_554 S
Cu325  O339    1.972   .     S
Cu325  Cu326   2.694   .     S
Cu325  N333    2.024   .     S
Cu325  O335    1.977   .     S
Cu325  O337    1.951   .     S
Cu325  O341    1.949   .     S
Cu326  O340    1.977   .     S
Cu326  O338    1.949   .     S
Cu326  O336    1.972   .     S
Cu326  N334    2.024   .     S
Cu326  O342    1.951   .     S
H330   C986    1.085   .     S
C343   O345    1.221   .     D
C343   H344    1.082   .     S
C346   O348    1.222   .     D
C346   H347    1.080   .     S
C349   O351    1.222   .     D
C349   H350    1.084   .     S
C353   H354    1.082   .     S
C353   O355    1.220   .     D
C356   O358    1.222   .     D
C356   H357    1.069   .     S
C359   O361    1.221   .     D
C359   H360    1.081   .     S
C362   O364    1.221   .     D
C362   H363    1.083   .     S
C365   C989    1.492   1_554 S
C365   O959    1.221   1_554 S
H366   C439    1.081   .     S
O367   C1105   1.221   .     S
C368   O370    1.221   .     D
C368   H369    1.086   .     S
C371   O409    1.294   .     A
C371   O410    1.302   .     A
C371   C387    1.459   .     S
C372   C373    1.415   .     A
C372   C1040   1.427   .     S
C372   C1064   1.430   .     S
C373   C377    1.422   .     A
C373   C380    1.418   .     A
C374   C378    1.394   .     A
C374   C1038   1.427   1_554 S
C374   C1041   1.411   1_554 S
C375   C376    1.388   .     A
C375   C1040   1.411   .     S
C375   C1060   1.399   .     S
C376   H403    1.080   .     S
C376   C377    1.390   .     A
C377   C442    1.483   .     S
C378   C395    1.399   .     A
C378   H405    1.080   .     S
C379   C394    1.403   .     A
C379   C395    1.418   .     A
C379   C417    1.487   .     S
C380   C396    1.416   .     A
C380   C382    1.498   .     S
C381   H406    1.084   .     S
C381   C387    1.398   .     A
C381   C605    1.385   .     S
C382   O411    1.313   .     A
C382   O412    1.302   .     A
C383   C384    1.421   .     A
C383   C420    1.485   .     S
C384   C392    1.463   .     S
C384   C385    1.402   .     A
C385   H401    1.083   .     S
C386   C423    1.487   .     S
C386   C387    1.417   .     A
C386   C607    1.392   .     S
C388   Cl426   1.765   .     S
C388   N408    1.375   .     A
C388   C241    1.422   1_655 S
C389   C427    1.473   .     S
C389   N407    1.372   .     A
C390   C430    1.489   .     S
C390   N407    1.393   .     A
C391   H402    1.082   .     S
C391   N408    1.352   .     A
C391   C242    1.420   1_655 S
C392   O413    1.307   .     A
C392   O414    1.291   .     A
C393   O416    1.299   .     A
C393   O415    1.300   .     A
C393   C395    1.467   .     S
C394   C1041   1.399   1_554 S
C394   H1070   1.085   1_554 S
C396   C433    1.487   .     S
C396   C397    1.419   .     A
C397   C1064   1.417   .     S
C397   C1105   1.492   .     S
C398   C436    1.488   .     S
C398   C1038   1.430   1_554 S
C398   C1063   1.417   1_554 S
Cu399  O413    1.972   .     S
Cu399  Cu400   2.694   .     S
Cu399  N407    2.024   .     S
Cu399  O409    1.977   .     S
Cu399  O411    1.951   .     S
Cu399  O415    1.949   .     S
Cu400  O414    1.977   .     S
Cu400  O412    1.949   .     S
Cu400  O410    1.972   .     S
Cu400  N408    2.024   .     S
Cu400  O416    1.951   .     S
H404   C1060   1.085   .     S
C417   O419    1.221   .     D
C417   H418    1.082   .     S
C420   O422    1.222   .     D
C420   H421    1.080   .     S
C423   O425    1.222   .     D
C423   H424    1.084   .     S
C427   H428    1.082   .     S
C427   O429    1.220   .     D
C430   O432    1.222   .     D
C430   H431    1.069   .     S
C433   O435    1.221   .     D
C433   H434    1.081   .     S
C436   O438    1.221   .     D
C436   H437    1.083   .     S
C439   C1063   1.492   1_554 S
C439   O1033   1.221   1_554 S
H440   C291    1.081   1_655 S
O441   C957    1.221   1_655 S
C442   O444    1.221   .     D
C442   H443    1.086   .     S
C445   O483    1.294   .     A
C445   O484    1.302   .     A
C445   C461    1.459   .     S
C446   C447    1.415   .     A
C446   C1114   1.427   .     S
C446   C1138   1.430   .     S
C447   C451    1.422   .     A
C447   C454    1.418   .     A
C448   C452    1.394   .     A
C448   C1112   1.427   1_554 S
C448   C1115   1.411   1_554 S
C449   C450    1.388   .     A
C449   C1114   1.411   .     S
C449   C1134   1.399   .     S
C450   H477    1.080   .     S
C450   C451    1.390   .     A
C451   C516    1.483   .     S
C452   C469    1.399   .     A
C452   H479    1.080   .     S
C453   C468    1.403   .     A
C453   C469    1.418   .     A
C453   C491    1.487   .     S
C454   C470    1.416   .     A
C454   C456    1.498   .     S
C455   H480    1.084   .     S
C455   C461    1.398   .     A
C455   C13     1.385   1_565 S
C456   O485    1.313   .     A
C456   O486    1.302   .     A
C457   C458    1.421   .     A
C457   C494    1.485   .     S
C458   C466    1.463   .     S
C458   C459    1.402   .     A
C459   H475    1.083   .     S
C460   C497    1.487   .     S
C460   C461    1.417   .     A
C460   C15     1.392   1_565 S
C462   Cl500   1.765   .     S
C462   N482    1.375   .     A
C462   C537    1.422   .     S
C463   C501    1.473   .     S
C463   N481    1.372   .     A
C463   C610    1.422   1_455 S
C464   C504    1.489   .     S
C464   N481    1.393   .     A
C464   C613    1.420   1_455 S
C465   H476    1.082   .     S
C465   N482    1.352   .     A
C465   C538    1.420   .     S
C466   O487    1.307   .     A
C466   O488    1.291   .     A
C467   O490    1.299   .     A
C467   O489    1.300   .     A
C467   C469    1.467   .     S
C468   C1115   1.399   1_554 S
C468   H1144   1.085   1_554 S
C470   C507    1.487   .     S
C470   C471    1.419   .     A
C471   C1138   1.417   .     S
C471   C1179   1.492   .     S
C472   C510    1.488   .     S
C472   C1112   1.430   1_554 S
C472   C1137   1.417   1_554 S
Cu473  O487    1.972   .     S
Cu473  Cu474   2.694   .     S
Cu473  N481    2.024   .     S
Cu473  O483    1.977   .     S
Cu473  O485    1.951   .     S
Cu473  O489    1.949   .     S
Cu474  O488    1.977   .     S
Cu474  O486    1.949   .     S
Cu474  O484    1.972   .     S
Cu474  N482    2.024   .     S
Cu474  O490    1.951   .     S
H478   C1134   1.085   .     S
C491   O493    1.221   .     D
C491   H492    1.082   .     S
C494   O496    1.222   .     D
C494   H495    1.080   .     S
C497   O499    1.222   .     D
C497   H498    1.084   .     S
C501   H502    1.082   .     S
C501   O503    1.220   .     D
C504   O506    1.222   .     D
C504   H505    1.069   .     S
C507   O509    1.221   .     D
C507   H508    1.081   .     S
C510   O512    1.221   .     D
C510   H511    1.083   .     S
C513   C1137   1.492   1_554 S
C513   H662    1.081   1_455 S
C513   O1329   1.221   1_454 S
H514   C587    1.081   .     S
O515   C1253   1.221   .     S
C516   O518    1.221   .     D
C516   H517    1.086   .     S
C519   O557    1.294   .     A
C519   O558    1.302   .     A
C519   C535    1.459   .     S
C520   C521    1.415   .     A
C520   C1188   1.427   .     S
C520   C1212   1.430   .     S
C521   C525    1.422   .     A
C521   C528    1.418   .     A
C522   C526    1.394   .     A
C522   C1186   1.427   1_554 S
C522   C1189   1.411   1_554 S
C523   C524    1.388   .     A
C523   C1188   1.411   .     S
C523   C1208   1.399   .     S
C524   H551    1.080   .     S
C524   C525    1.390   .     A
C525   C590    1.483   .     S
C526   C543    1.399   .     A
C526   H553    1.080   .     S
C527   C542    1.403   .     A
C527   C543    1.418   .     A
C527   C565    1.487   .     S
C528   C544    1.416   .     A
C528   C530    1.498   .     S
C529   H554    1.084   .     S
C529   C535    1.398   .     A
C529   C87     1.385   1_565 S
C530   O559    1.313   .     A
C530   O560    1.302   .     A
C531   C532    1.421   .     A
C531   C568    1.485   .     S
C532   C540    1.463   .     S
C532   C533    1.402   .     A
C533   H549    1.083   .     S
C534   C571    1.487   .     S
C534   C535    1.417   .     A
C534   C89     1.392   1_565 S
C536   Cl574   1.765   .     S
C536   N556    1.375   .     A
C536   C611    1.422   .     S
C537   C575    1.473   .     S
C537   N555    1.372   .     A
C538   C578    1.489   .     S
C538   N555    1.393   .     A
C539   H550    1.082   .     S
C539   N556    1.352   .     A
C539   C612    1.420   .     S
C540   O561    1.307   .     A
C540   O562    1.291   .     A
C541   O564    1.299   .     A
C541   O563    1.300   .     A
C541   C543    1.467   .     S
C542   C1189   1.399   1_554 S
C542   H1218   1.085   1_554 S
C544   C581    1.487   .     S
C544   C545    1.419   .     A
C545   C1212   1.417   .     S
C545   C1253   1.492   .     S
C546   C584    1.488   .     S
C546   C1186   1.430   1_554 S
C546   C1211   1.417   1_554 S
Cu547  O561    1.972   .     S
Cu547  Cu548   2.694   .     S
Cu547  N555    2.024   .     S
Cu547  O557    1.977   .     S
Cu547  O559    1.951   .     S
Cu547  O563    1.949   .     S
Cu548  O562    1.977   .     S
Cu548  O560    1.949   .     S
Cu548  O558    1.972   .     S
Cu548  N556    2.024   .     S
Cu548  O564    1.951   .     S
H552   C1208   1.085   .     S
C565   O567    1.221   .     D
C565   H566    1.082   .     S
C568   O570    1.222   .     D
C568   H569    1.080   .     S
C571   O573    1.222   .     D
C571   H572    1.084   .     S
C575   H576    1.082   .     S
C575   O577    1.220   .     D
C578   O580    1.222   .     D
C578   H579    1.069   .     S
C581   O583    1.221   .     D
C581   H582    1.081   .     S
C584   O586    1.221   .     D
C584   H585    1.083   .     S
C587   C1211   1.492   1_554 S
C587   O1181   1.221   1_554 S
H588   C661    1.081   .     S
O589   C1327   1.221   .     S
C590   O592    1.221   .     D
C590   H591    1.086   .     S
C593   O631    1.294   .     A
C593   O632    1.302   .     A
C593   C609    1.459   .     S
C594   C595    1.415   .     A
C594   C1262   1.427   .     S
C594   C1286   1.430   .     S
C595   C599    1.422   .     A
C595   C602    1.418   .     A
C596   C600    1.394   .     A
C596   C1260   1.427   1_554 S
C596   C1263   1.411   1_554 S
C597   C598    1.388   .     A
C597   C1262   1.411   .     S
C597   C1282   1.399   .     S
C598   H625    1.080   .     S
C598   C599    1.390   .     A
C599   C664    1.483   .     S
C600   C617    1.399   .     A
C600   H627    1.080   .     S
C601   C616    1.403   .     A
C601   C617    1.418   .     A
C601   C639    1.487   .     S
C602   C618    1.416   .     A
C602   C604    1.498   .     S
C603   H628    1.084   .     S
C603   C609    1.398   .     A
C603   C161    1.385   1_565 S
C604   O633    1.313   .     A
C604   O634    1.302   .     A
C605   C606    1.421   .     A
C605   C642    1.485   .     S
C606   C614    1.463   .     S
C606   C607    1.402   .     A
C607   H623    1.083   .     S
C608   C645    1.487   .     S
C608   C609    1.417   .     A
C608   C163    1.392   1_565 S
C610   Cl648   1.765   .     S
C610   N630    1.375   .     A
C610   C463    1.422   1_655 S
C611   C649    1.473   .     S
C611   N629    1.372   .     A
C612   C652    1.489   .     S
C612   N629    1.393   .     A
C613   H624    1.082   .     S
C613   N630    1.352   .     A
C613   C464    1.420   1_655 S
C614   O635    1.307   .     A
C614   O636    1.291   .     A
C615   O638    1.299   .     A
C615   O637    1.300   .     A
C615   C617    1.467   .     S
C616   C1263   1.399   1_554 S
C616   H1292   1.085   1_554 S
C618   C655    1.487   .     S
C618   C619    1.419   .     A
C619   C1286   1.417   .     S
C619   C1327   1.492   .     S
C620   C658    1.488   .     S
C620   C1260   1.430   1_554 S
C620   C1285   1.417   1_554 S
Cu621  O635    1.972   .     S
Cu621  Cu622   2.694   .     S
Cu621  N629    2.024   .     S
Cu621  O631    1.977   .     S
Cu621  O633    1.951   .     S
Cu621  O637    1.949   .     S
Cu622  O636    1.977   .     S
Cu622  O634    1.949   .     S
Cu622  O632    1.972   .     S
Cu622  N630    2.024   .     S
Cu622  O638    1.951   .     S
H626   C1282   1.085   .     S
C639   O641    1.221   .     D
C639   H640    1.082   .     S
C642   O644    1.222   .     D
C642   H643    1.080   .     S
C645   O647    1.222   .     D
C645   H646    1.084   .     S
C649   H650    1.082   .     S
C649   O651    1.220   .     D
C652   O654    1.222   .     D
C652   H653    1.069   .     S
C655   O657    1.221   .     D
C655   H656    1.081   .     S
C658   O660    1.221   .     D
C658   H659    1.083   .     S
C661   C1285   1.492   1_554 S
C661   O1255   1.221   1_554 S
H662   C513    1.081   1_655 S
O663   C1179   1.221   1_655 S
C664   O666    1.221   .     D
C664   H665    1.086   .     S
C667   O705    1.294   .     A
C667   O706    1.302   .     A
C667   C683    1.459   .     S
C668   C669    1.415   .     A
C668   C4      1.427   1_556 S
C668   C28     1.430   1_556 S
C669   C673    1.422   .     A
C669   C676    1.418   .     A
C670   C674    1.394   .     A
C671   C672    1.388   .     A
C671   C4      1.411   1_556 S
C671   C24     1.399   1_556 S
C672   H699    1.080   .     S
C672   C673    1.390   .     A
C673   C738    1.483   .     S
C674   C691    1.399   .     A
C674   H701    1.080   .     S
C675   C690    1.403   .     A
C675   C691    1.418   .     A
C675   C713    1.487   .     S
C676   C692    1.416   .     A
C676   C678    1.498   .     S
C677   H702    1.084   .     S
C677   C683    1.398   .     A
C677   C901    1.385   .     S
C678   O707    1.313   .     A
C678   O708    1.302   .     A
C679   C680    1.421   .     A
C679   C716    1.485   .     S
C679   C1121   1.385   1_545 S
C680   C688    1.463   .     S
C680   C681    1.402   .     A
C681   H697    1.083   .     S
C681   C1126   1.392   1_545 S
C682   C719    1.487   .     S
C682   C683    1.417   .     A
C682   C903    1.392   .     S
C684   Cl722   1.765   .     S
C684   N704    1.375   .     A
C684   C759    1.422   .     S
C685   C723    1.473   .     S
C685   N703    1.372   .     A
C685   C832    1.422   1_455 S
C686   C726    1.489   .     S
C686   N703    1.393   .     A
C686   C835    1.420   1_455 S
C687   H698    1.082   .     S
C687   N704    1.352   .     A
C687   C760    1.420   .     S
C688   O709    1.307   .     A
C688   O710    1.291   .     A
C689   O712    1.299   .     A
C689   O711    1.300   .     A
C689   C691    1.467   .     S
C692   C729    1.487   .     S
C692   C693    1.419   .     A
C693   C28     1.417   1_556 S
C693   C69     1.492   1_556 S
C694   C732    1.488   .     S
Cu695  O709    1.972   .     S
Cu695  Cu696   2.694   .     S
Cu695  N703    2.024   .     S
Cu695  O705    1.977   .     S
Cu695  O707    1.951   .     S
Cu695  O711    1.949   .     S
Cu696  O710    1.977   .     S
Cu696  O708    1.949   .     S
Cu696  O706    1.972   .     S
Cu696  N704    2.024   .     S
Cu696  O712    1.951   .     S
H700   C24     1.085   1_556 S
C713   O715    1.221   .     D
C713   H714    1.082   .     S
C716   O718    1.222   .     D
C716   H717    1.080   .     S
C719   O721    1.222   .     D
C719   H720    1.084   .     S
C723   H724    1.082   .     S
C723   O725    1.220   .     D
C726   O728    1.222   .     D
C726   H727    1.069   .     S
C729   O731    1.221   .     D
C729   H730    1.081   .     S
C732   O734    1.221   .     D
C732   H733    1.083   .     S
C735   H884    1.081   1_455 S
C735   O219    1.221   1_455 S
H736   C809    1.081   .     S
O737   C143    1.221   1_556 S
C738   O740    1.221   .     D
C738   H739    1.086   .     S
C741   O779    1.294   .     A
C741   O780    1.302   .     A
C741   C757    1.459   .     S
C742   C743    1.415   .     A
C742   C78     1.427   1_556 S
C742   C102    1.430   1_556 S
C743   C747    1.422   .     A
C743   C750    1.418   .     A
C744   C748    1.394   .     A
C745   C746    1.388   .     A
C745   C78     1.411   1_556 S
C745   C98     1.399   1_556 S
C746   H773    1.080   .     S
C746   C747    1.390   .     A
C747   C812    1.483   .     S
C748   C765    1.399   .     A
C748   H775    1.080   .     S
C749   C764    1.403   .     A
C749   C765    1.418   .     A
C749   C787    1.487   .     S
C750   C766    1.416   .     A
C750   C752    1.498   .     S
C751   H776    1.084   .     S
C751   C757    1.398   .     A
C751   C975    1.385   .     S
C752   O781    1.313   .     A
C752   O782    1.302   .     A
C753   C754    1.421   .     A
C753   C790    1.485   .     S
C753   C1195   1.385   1_545 S
C754   C762    1.463   .     S
C754   C755    1.402   .     A
C755   H771    1.083   .     S
C755   C1200   1.392   1_545 S
C756   C793    1.487   .     S
C756   C757    1.417   .     A
C756   C977    1.392   .     S
C758   Cl796   1.765   .     S
C758   N778    1.375   .     A
C758   C833    1.422   .     S
C759   C797    1.473   .     S
C759   N777    1.372   .     A
C760   C800    1.489   .     S
C760   N777    1.393   .     A
C761   H772    1.082   .     S
C761   N778    1.352   .     A
C761   C834    1.420   .     S
C762   O783    1.307   .     A
C762   O784    1.291   .     A
C763   O786    1.299   .     A
C763   O785    1.300   .     A
C763   C765    1.467   .     S
C766   C803    1.487   .     S
C766   C767    1.419   .     A
C767   C102    1.417   1_556 S
C767   C143    1.492   1_556 S
C768   C806    1.488   .     S
Cu769  O783    1.972   .     S
Cu769  Cu770   2.694   .     S
Cu769  N777    2.024   .     S
Cu769  O779    1.977   .     S
Cu769  O781    1.951   .     S
Cu769  O785    1.949   .     S
Cu770  O784    1.977   .     S
Cu770  O782    1.949   .     S
Cu770  O780    1.972   .     S
Cu770  N778    2.024   .     S
Cu770  O786    1.951   .     S
H774   C98     1.085   1_556 S
C787   O789    1.221   .     D
C787   H788    1.082   .     S
C790   O792    1.222   .     D
C790   H791    1.080   .     S
C793   O795    1.222   .     D
C793   H794    1.084   .     S
C797   H798    1.082   .     S
C797   O799    1.220   .     D
C800   O802    1.222   .     D
C800   H801    1.069   .     S
C803   O805    1.221   .     D
C803   H804    1.081   .     S
C806   O808    1.221   .     D
C806   H807    1.083   .     S
H810   C883    1.081   .     S
O811   C217    1.221   1_556 S
C812   O814    1.221   .     D
C812   H813    1.086   .     S
C815   O853    1.294   .     A
C815   O854    1.302   .     A
C815   C831    1.459   .     S
C816   C817    1.415   .     A
C816   C152    1.427   1_556 S
C816   C176    1.430   1_556 S
C817   C821    1.422   .     A
C817   C824    1.418   .     A
C818   C822    1.394   .     A
C819   C820    1.388   .     A
C819   C152    1.411   1_556 S
C819   C172    1.399   1_556 S
C820   H847    1.080   .     S
C820   C821    1.390   .     A
C821   C886    1.483   .     S
C822   C839    1.399   .     A
C822   H849    1.080   .     S
C823   C838    1.403   .     A
C823   C839    1.418   .     A
C823   C861    1.487   .     S
C824   C840    1.416   .     A
C824   C826    1.498   .     S
C825   H850    1.084   .     S
C825   C831    1.398   .     A
C825   C1049   1.385   .     S
C826   O855    1.313   .     A
C826   O856    1.302   .     A
C827   C828    1.421   .     A
C827   C864    1.485   .     S
C827   C1269   1.385   1_545 S
C828   C836    1.463   .     S
C828   C829    1.402   .     A
C829   H845    1.083   .     S
C829   C1274   1.392   1_545 S
C830   C867    1.487   .     S
C830   C831    1.417   .     A
C830   C1051   1.392   .     S
C832   Cl870   1.765   .     S
C832   N852    1.375   .     A
C832   C685    1.422   1_655 S
C833   C871    1.473   .     S
C833   N851    1.372   .     A
C834   C874    1.489   .     S
C834   N851    1.393   .     A
C835   H846    1.082   .     S
C835   N852    1.352   .     A
C835   C686    1.420   1_655 S
C836   O857    1.307   .     A
C836   O858    1.291   .     A
C837   O860    1.299   .     A
C837   O859    1.300   .     A
C837   C839    1.467   .     S
C840   C877    1.487   .     S
C840   C841    1.419   .     A
C841   C176    1.417   1_556 S
C841   C217    1.492   1_556 S
C842   C880    1.488   .     S
Cu843  O857    1.972   .     S
Cu843  Cu844   2.694   .     S
Cu843  N851    2.024   .     S
Cu843  O853    1.977   .     S
Cu843  O855    1.951   .     S
Cu843  O859    1.949   .     S
Cu844  O858    1.977   .     S
Cu844  O856    1.949   .     S
Cu844  O854    1.972   .     S
Cu844  N852    2.024   .     S
Cu844  O860    1.951   .     S
H848   C172    1.085   1_556 S
C861   O863    1.221   .     D
C861   H862    1.082   .     S
C864   O866    1.222   .     D
C864   H865    1.080   .     S
C867   O869    1.222   .     D
C867   H868    1.084   .     S
C871   H872    1.082   .     S
C871   O873    1.220   .     D
C874   O876    1.222   .     D
C874   H875    1.069   .     S
C877   O879    1.221   .     D
C877   H878    1.081   .     S
C880   O882    1.221   .     D
C880   H881    1.083   .     S
H884   C735    1.081   1_655 S
O885   C69     1.221   1_656 S
C886   O888    1.221   .     D
C886   H887    1.086   .     S
C889   O927    1.294   .     A
C889   O928    1.302   .     A
C889   C905    1.459   .     S
C890   C891    1.415   .     A
C890   C226    1.427   1_556 S
C890   C250    1.430   1_556 S
C891   C895    1.422   .     A
C891   C898    1.418   .     A
C892   C896    1.394   .     A
C893   C894    1.388   .     A
C893   C226    1.411   1_556 S
C893   C246    1.399   1_556 S
C894   H921    1.080   .     S
C894   C895    1.390   .     A
C895   C960    1.483   .     S
C896   C913    1.399   .     A
C896   H923    1.080   .     S
C897   C912    1.403   .     A
C897   C913    1.418   .     A
C897   C935    1.487   .     S
C898   C914    1.416   .     A
C898   C900    1.498   .     S
C899   H924    1.084   .     S
C899   C905    1.398   .     A
C899   C1123   1.385   .     S
C900   O929    1.313   .     A
C900   O930    1.302   .     A
C901   C902    1.421   .     A
C901   C938    1.485   .     S
C902   C910    1.463   .     S
C902   C903    1.402   .     A
C903   H919    1.083   .     S
C904   C941    1.487   .     S
C904   C905    1.417   .     A
C904   C1125   1.392   .     S
C906   Cl944   1.765   .     S
C906   N926    1.375   .     A
C906   C981    1.422   .     S
C907   C945    1.473   .     S
C907   N925    1.372   .     A
C907   C1054   1.422   1_455 S
C908   C948    1.489   .     S
C908   N925    1.393   .     A
C908   C1057   1.420   1_455 S
C909   H920    1.082   .     S
C909   N926    1.352   .     A
C909   C982    1.420   .     S
C910   O931    1.307   .     A
C910   O932    1.291   .     A
C911   O934    1.299   .     A
C911   O933    1.300   .     A
C911   C913    1.467   .     S
C914   C951    1.487   .     S
C914   C915    1.419   .     A
C915   C250    1.417   1_556 S
C915   C291    1.492   1_556 S
C916   C954    1.488   .     S
Cu917  O931    1.972   .     S
Cu917  Cu918   2.694   .     S
Cu917  N925    2.024   .     S
Cu917  O927    1.977   .     S
Cu917  O929    1.951   .     S
Cu917  O933    1.949   .     S
Cu918  O932    1.977   .     S
Cu918  O930    1.949   .     S
Cu918  O928    1.972   .     S
Cu918  N926    2.024   .     S
Cu918  O934    1.951   .     S
H922   C246    1.085   1_556 S
C935   O937    1.221   .     D
C935   H936    1.082   .     S
C938   O940    1.222   .     D
C938   H939    1.080   .     S
C941   O943    1.222   .     D
C941   H942    1.084   .     S
C945   H946    1.082   .     S
C945   O947    1.220   .     D
C948   O950    1.222   .     D
C948   H949    1.069   .     S
C951   O953    1.221   .     D
C951   H952    1.081   .     S
C954   O956    1.221   .     D
C954   H955    1.083   .     S
C957   H1106   1.081   1_455 S
C957   O441    1.221   1_455 S
H958   C1031   1.081   .     S
O959   C365    1.221   1_556 S
C960   O962    1.221   .     D
C960   H961    1.086   .     S
C963   O1001   1.294   .     A
C963   O1002   1.302   .     A
C963   C979    1.459   .     S
C964   C965    1.415   .     A
C964   C300    1.427   1_556 S
C964   C324    1.430   1_556 S
C965   C969    1.422   .     A
C965   C972    1.418   .     A
C966   C970    1.394   .     A
C967   C968    1.388   .     A
C967   C300    1.411   1_556 S
C967   C320    1.399   1_556 S
C968   H995    1.080   .     S
C968   C969    1.390   .     A
C969   C1034   1.483   .     S
C970   C987    1.399   .     A
C970   H997    1.080   .     S
C971   C986    1.403   .     A
C971   C987    1.418   .     A
C971   C1009   1.487   .     S
C972   C988    1.416   .     A
C972   C974    1.498   .     S
C973   H998    1.084   .     S
C973   C979    1.398   .     A
C973   C1197   1.385   .     S
C974   O1003   1.313   .     A
C974   O1004   1.302   .     A
C975   C976    1.421   .     A
C975   C1012   1.485   .     S
C976   C984    1.463   .     S
C976   C977    1.402   .     A
C977   H993    1.083   .     S
C978   C1015   1.487   .     S
C978   C979    1.417   .     A
C978   C1199   1.392   .     S
C980   Cl1018  1.765   .     S
C980   N1000   1.375   .     A
C980   C1055   1.422   .     S
C981   C1019   1.473   .     S
C981   N999    1.372   .     A
C982   C1022   1.489   .     S
C982   N999    1.393   .     A
C983   H994    1.082   .     S
C983   N1000   1.352   .     A
C983   C1056   1.420   .     S
C984   O1005   1.307   .     A
C984   O1006   1.291   .     A
C985   O1008   1.299   .     A
C985   O1007   1.300   .     A
C985   C987    1.467   .     S
C988   C1025   1.487   .     S
C988   C989    1.419   .     A
C989   C324    1.417   1_556 S
C989   C365    1.492   1_556 S
C990   C1028   1.488   .     S
Cu991  O1005   1.972   .     S
Cu991  Cu992   2.694   .     S
Cu991  N999    2.024   .     S
Cu991  O1001   1.977   .     S
Cu991  O1003   1.951   .     S
Cu991  O1007   1.949   .     S
Cu992  O1006   1.977   .     S
Cu992  O1004   1.949   .     S
Cu992  O1002   1.972   .     S
Cu992  N1000   2.024   .     S
Cu992  O1008   1.951   .     S
H996   C320    1.085   1_556 S
C1009  O1011   1.221   .     D
C1009  H1010   1.082   .     S
C1012  O1014   1.222   .     D
C1012  H1013   1.080   .     S
C1015  O1017   1.222   .     D
C1015  H1016   1.084   .     S
C1019  H1020   1.082   .     S
C1019  O1021   1.220   .     D
C1022  O1024   1.222   .     D
C1022  H1023   1.069   .     S
C1025  O1027   1.221   .     D
C1025  H1026   1.081   .     S
C1028  O1030   1.221   .     D
C1028  H1029   1.083   .     S
H1032  C1105   1.081   .     S
O1033  C439    1.221   1_556 S
C1034  O1036   1.221   .     D
C1034  H1035   1.086   .     S
C1037  O1075   1.294   .     A
C1037  O1076   1.302   .     A
C1037  C1053   1.459   .     S
C1038  C1039   1.415   .     A
C1038  C374    1.427   1_556 S
C1038  C398    1.430   1_556 S
C1039  C1043   1.422   .     A
C1039  C1046   1.418   .     A
C1040  C1044   1.394   .     A
C1041  C1042   1.388   .     A
C1041  C374    1.411   1_556 S
C1041  C394    1.399   1_556 S
C1042  H1069   1.080   .     S
C1042  C1043   1.390   .     A
C1043  C1108   1.483   .     S
C1044  C1061   1.399   .     A
C1044  H1071   1.080   .     S
C1045  C1060   1.403   .     A
C1045  C1061   1.418   .     A
C1045  C1083   1.487   .     S
C1046  C1062   1.416   .     A
C1046  C1048   1.498   .     S
C1047  H1072   1.084   .     S
C1047  C1053   1.398   .     A
C1047  C1271   1.385   .     S
C1048  O1077   1.313   .     A
C1048  O1078   1.302   .     A
C1049  C1050   1.421   .     A
C1049  C1086   1.485   .     S
C1050  C1058   1.463   .     S
C1050  C1051   1.402   .     A
C1051  H1067   1.083   .     S
C1052  C1089   1.487   .     S
C1052  C1053   1.417   .     A
C1052  C1273   1.392   .     S
C1054  Cl1092  1.765   .     S
C1054  N1074   1.375   .     A
C1054  C907    1.422   1_655 S
C1055  C1093   1.473   .     S
C1055  N1073   1.372   .     A
C1056  C1096   1.489   .     S
C1056  N1073   1.393   .     A
C1057  H1068   1.082   .     S
C1057  N1074   1.352   .     A
C1057  C908    1.420   1_655 S
C1058  O1079   1.307   .     A
C1058  O1080   1.291   .     A
C1059  O1082   1.299   .     A
C1059  O1081   1.300   .     A
C1059  C1061   1.467   .     S
C1062  C1099   1.487   .     S
C1062  C1063   1.419   .     A
C1063  C398    1.417   1_556 S
C1063  C439    1.492   1_556 S
C1064  C1102   1.488   .     S
Cu1065 O1079   1.972   .     S
Cu1065 Cu1066  2.694   .     S
Cu1065 N1073   2.024   .     S
Cu1065 O1075   1.977   .     S
Cu1065 O1077   1.951   .     S
Cu1065 O1081   1.949   .     S
Cu1066 O1080   1.977   .     S
Cu1066 O1078   1.949   .     S
Cu1066 O1076   1.972   .     S
Cu1066 N1074   2.024   .     S
Cu1066 O1082   1.951   .     S
H1070  C394    1.085   1_556 S
C1083  O1085   1.221   .     D
C1083  H1084   1.082   .     S
C1086  O1088   1.222   .     D
C1086  H1087   1.080   .     S
C1089  O1091   1.222   .     D
C1089  H1090   1.084   .     S
C1093  H1094   1.082   .     S
C1093  O1095   1.220   .     D
C1096  O1098   1.222   .     D
C1096  H1097   1.069   .     S
C1099  O1101   1.221   .     D
C1099  H1100   1.081   .     S
C1102  O1104   1.221   .     D
C1102  H1103   1.083   .     S
H1106  C957    1.081   1_655 S
O1107  C291    1.221   1_656 S
C1108  O1110   1.221   .     D
C1108  H1109   1.086   .     S
C1111  O1149   1.294   .     A
C1111  O1150   1.302   .     A
C1111  C1127   1.459   .     S
C1112  C1113   1.415   .     A
C1112  C448    1.427   1_556 S
C1112  C472    1.430   1_556 S
C1113  C1117   1.422   .     A
C1113  C1120   1.418   .     A
C1114  C1118   1.394   .     A
C1115  C1116   1.388   .     A
C1115  C448    1.411   1_556 S
C1115  C468    1.399   1_556 S
C1116  H1143   1.080   .     S
C1116  C1117   1.390   .     A
C1117  C1182   1.483   .     S
C1118  C1135   1.399   .     A
C1118  H1145   1.080   .     S
C1119  C1134   1.403   .     A
C1119  C1135   1.418   .     A
C1119  C1157   1.487   .     S
C1120  C1136   1.416   .     A
C1120  C1122   1.498   .     S
C1121  H1146   1.084   .     S
C1121  C1127   1.398   .     A
C1121  C679    1.385   1_565 S
C1122  O1151   1.313   .     A
C1122  O1152   1.302   .     A
C1123  C1124   1.421   .     A
C1123  C1160   1.485   .     S
C1124  C1132   1.463   .     S
C1124  C1125   1.402   .     A
C1125  H1141   1.083   .     S
C1126  C1163   1.487   .     S
C1126  C1127   1.417   .     A
C1126  C681    1.392   1_565 S
C1128  Cl1166  1.765   .     S
C1128  N1148   1.375   .     A
C1128  C1203   1.422   .     S
C1129  C1167   1.473   .     S
C1129  N1147   1.372   .     A
C1129  C1276   1.422   1_455 S
C1130  C1170   1.489   .     S
C1130  N1147   1.393   .     A
C1130  C1279   1.420   1_455 S
C1131  H1142   1.082   .     S
C1131  N1148   1.352   .     A
C1131  C1204   1.420   .     S
C1132  O1153   1.307   .     A
C1132  O1154   1.291   .     A
C1133  O1156   1.299   .     A
C1133  O1155   1.300   .     A
C1133  C1135   1.467   .     S
C1136  C1173   1.487   .     S
C1136  C1137   1.419   .     A
C1137  C472    1.417   1_556 S
C1137  C513    1.492   1_556 S
C1138  C1176   1.488   .     S
Cu1139 O1153   1.972   .     S
Cu1139 Cu1140  2.694   .     S
Cu1139 N1147   2.024   .     S
Cu1139 O1149   1.977   .     S
Cu1139 O1151   1.951   .     S
Cu1139 O1155   1.949   .     S
Cu1140 O1154   1.977   .     S
Cu1140 O1152   1.949   .     S
Cu1140 O1150   1.972   .     S
Cu1140 N1148   2.024   .     S
Cu1140 O1156   1.951   .     S
H1144  C468    1.085   1_556 S
C1157  O1159   1.221   .     D
C1157  H1158   1.082   .     S
C1160  O1162   1.222   .     D
C1160  H1161   1.080   .     S
C1163  O1165   1.222   .     D
C1163  H1164   1.084   .     S
C1167  H1168   1.082   .     S
C1167  O1169   1.220   .     D
C1170  O1172   1.222   .     D
C1170  H1171   1.069   .     S
C1173  O1175   1.221   .     D
C1173  H1174   1.081   .     S
C1176  O1178   1.221   .     D
C1176  H1177   1.083   .     S
C1179  H1328   1.081   1_455 S
C1179  O663    1.221   1_455 S
H1180  C1253   1.081   .     S
O1181  C587    1.221   1_556 S
C1182  O1184   1.221   .     D
C1182  H1183   1.086   .     S
C1185  O1223   1.294   .     A
C1185  O1224   1.302   .     A
C1185  C1201   1.459   .     S
C1186  C1187   1.415   .     A
C1186  C522    1.427   1_556 S
C1186  C546    1.430   1_556 S
C1187  C1191   1.422   .     A
C1187  C1194   1.418   .     A
C1188  C1192   1.394   .     A
C1189  C1190   1.388   .     A
C1189  C522    1.411   1_556 S
C1189  C542    1.399   1_556 S
C1190  H1217   1.080   .     S
C1190  C1191   1.390   .     A
C1191  C1256   1.483   .     S
C1192  C1209   1.399   .     A
C1192  H1219   1.080   .     S
C1193  C1208   1.403   .     A
C1193  C1209   1.418   .     A
C1193  C1231   1.487   .     S
C1194  C1210   1.416   .     A
C1194  C1196   1.498   .     S
C1195  H1220   1.084   .     S
C1195  C1201   1.398   .     A
C1195  C753    1.385   1_565 S
C1196  O1225   1.313   .     A
C1196  O1226   1.302   .     A
C1197  C1198   1.421   .     A
C1197  C1234   1.485   .     S
C1198  C1206   1.463   .     S
C1198  C1199   1.402   .     A
C1199  H1215   1.083   .     S
C1200  C1237   1.487   .     S
C1200  C1201   1.417   .     A
C1200  C755    1.392   1_565 S
C1202  Cl1240  1.765   .     S
C1202  N1222   1.375   .     A
C1202  C1277   1.422   .     S
C1203  C1241   1.473   .     S
C1203  N1221   1.372   .     A
C1204  C1244   1.489   .     S
C1204  N1221   1.393   .     A
C1205  H1216   1.082   .     S
C1205  N1222   1.352   .     A
C1205  C1278   1.420   .     S
C1206  O1227   1.307   .     A
C1206  O1228   1.291   .     A
C1207  O1230   1.299   .     A
C1207  O1229   1.300   .     A
C1207  C1209   1.467   .     S
C1210  C1247   1.487   .     S
C1210  C1211   1.419   .     A
C1211  C546    1.417   1_556 S
C1211  C587    1.492   1_556 S
C1212  C1250   1.488   .     S
Cu1213 O1227   1.972   .     S
Cu1213 Cu1214  2.694   .     S
Cu1213 N1221   2.024   .     S
Cu1213 O1223   1.977   .     S
Cu1213 O1225   1.951   .     S
Cu1213 O1229   1.949   .     S
Cu1214 O1228   1.977   .     S
Cu1214 O1226   1.949   .     S
Cu1214 O1224   1.972   .     S
Cu1214 N1222   2.024   .     S
Cu1214 O1230   1.951   .     S
H1218  C542    1.085   1_556 S
C1231  O1233   1.221   .     D
C1231  H1232   1.082   .     S
C1234  O1236   1.222   .     D
C1234  H1235   1.080   .     S
C1237  O1239   1.222   .     D
C1237  H1238   1.084   .     S
C1241  H1242   1.082   .     S
C1241  O1243   1.220   .     D
C1244  O1246   1.222   .     D
C1244  H1245   1.069   .     S
C1247  O1249   1.221   .     D
C1247  H1248   1.081   .     S
C1250  O1252   1.221   .     D
C1250  H1251   1.083   .     S
H1254  C1327   1.081   .     S
O1255  C661    1.221   1_556 S
C1256  O1258   1.221   .     D
C1256  H1257   1.086   .     S
C1259  O1297   1.294   .     A
C1259  O1298   1.302   .     A
C1259  C1275   1.459   .     S
C1260  C1261   1.415   .     A
C1260  C596    1.427   1_556 S
C1260  C620    1.430   1_556 S
C1261  C1265   1.422   .     A
C1261  C1268   1.418   .     A
C1262  C1266   1.394   .     A
C1263  C1264   1.388   .     A
C1263  C596    1.411   1_556 S
C1263  C616    1.399   1_556 S
C1264  H1291   1.080   .     S
C1264  C1265   1.390   .     A
C1265  C1330   1.483   .     S
C1266  C1283   1.399   .     A
C1266  H1293   1.080   .     S
C1267  C1282   1.403   .     A
C1267  C1283   1.418   .     A
C1267  C1305   1.487   .     S
C1268  C1284   1.416   .     A
C1268  C1270   1.498   .     S
C1269  H1294   1.084   .     S
C1269  C1275   1.398   .     A
C1269  C827    1.385   1_565 S
C1270  O1299   1.313   .     A
C1270  O1300   1.302   .     A
C1271  C1272   1.421   .     A
C1271  C1308   1.485   .     S
C1272  C1280   1.463   .     S
C1272  C1273   1.402   .     A
C1273  H1289   1.083   .     S
C1274  C1311   1.487   .     S
C1274  C1275   1.417   .     A
C1274  C829    1.392   1_565 S
C1276  Cl1314  1.765   .     S
C1276  N1296   1.375   .     A
C1276  C1129   1.422   1_655 S
C1277  C1315   1.473   .     S
C1277  N1295   1.372   .     A
C1278  C1318   1.489   .     S
C1278  N1295   1.393   .     A
C1279  H1290   1.082   .     S
C1279  N1296   1.352   .     A
C1279  C1130   1.420   1_655 S
C1280  O1301   1.307   .     A
C1280  O1302   1.291   .     A
C1281  O1304   1.299   .     A
C1281  O1303   1.300   .     A
C1281  C1283   1.467   .     S
C1284  C1321   1.487   .     S
C1284  C1285   1.419   .     A
C1285  C620    1.417   1_556 S
C1285  C661    1.492   1_556 S
C1286  C1324   1.488   .     S
Cu1287 O1301   1.972   .     S
Cu1287 Cu1288  2.694   .     S
Cu1287 N1295   2.024   .     S
Cu1287 O1297   1.977   .     S
Cu1287 O1299   1.951   .     S
Cu1287 O1303   1.949   .     S
Cu1288 O1302   1.977   .     S
Cu1288 O1300   1.949   .     S
Cu1288 O1298   1.972   .     S
Cu1288 N1296   2.024   .     S
Cu1288 O1304   1.951   .     S
H1292  C616    1.085   1_556 S
C1305  O1307   1.221   .     D
C1305  H1306   1.082   .     S
C1308  O1310   1.222   .     D
C1308  H1309   1.080   .     S
C1311  O1313   1.222   .     D
C1311  H1312   1.084   .     S
C1315  H1316   1.082   .     S
C1315  O1317   1.220   .     D
C1318  O1320   1.222   .     D
C1318  H1319   1.069   .     S
C1321  O1323   1.221   .     D
C1321  H1322   1.081   .     S
C1324  O1326   1.221   .     D
C1324  H1325   1.083   .     S
H1328  C1179   1.081   1_655 S
O1329  C513    1.221   1_656 S
C1330  O1332   1.221   .     D
C1330  H1331   1.086   .     S
