data_str_m2_o2_o10_pcu_sym.107
_audit_creation_date              2020-01-03
_audit_creation_method            'Materials Studio'
_symmetry_space_group_name_H-M    'P1'
_symmetry_Int_Tables_number       1
_symmetry_cell_setting            triclinic
loop_
_symmetry_equiv_pos_as_xyz
  x,y,z
_cell_length_a                    26.3758
_cell_length_b                    30.2321
_cell_length_c                    27.7035
_cell_angle_alpha                 90.7023
_cell_angle_beta                  97.5226
_cell_angle_gamma                 89.9763
loop_
_atom_site_label
_atom_site_type_symbol
_atom_site_fract_x
_atom_site_fract_y
_atom_site_fract_z
_atom_site_U_iso_or_equiv
_atom_site_adp_type
_atom_site_occupancy
O1     O     0.16667   0.18573   0.29072   0.00000  Uiso   1.00
O2     O     0.16666   0.31428   0.20928   0.00000  Uiso   1.00
O3     O     0.16667   0.18573   0.20928   0.00000  Uiso   1.00
O4     O     0.16666   0.31427   0.29072   0.00000  Uiso   1.00
C5     C     0.16809   0.16489   0.24979   0.00000  Uiso   1.00
C6     C     0.16810   0.33506   0.25054   0.00000  Uiso   1.00
O7     O     0.09161   0.25000   0.28132   0.00000  Uiso   1.00
O8     O     0.24172   0.25001   0.21868   0.00000  Uiso   1.00
O9     O     0.09161   0.25000   0.19989   0.00000  Uiso   1.00
O10    O     0.24172   0.25000   0.30012   0.00000  Uiso   1.00
C11    C     0.06809   0.24975   0.23787   0.00000  Uiso   1.00
C12    C     0.26524   0.25041   0.26212   0.00000  Uiso   1.00
Cu13   Cu    0.16667   0.25000   0.29822   0.00000  Uiso   1.00
Cu14   Cu    0.16667   0.25001   0.20179   0.00000  Uiso   1.00
C15    C     0.01368   0.24407   0.23192   0.00000  Uiso   1.00
C16    C     0.31963   0.25634   0.26798   0.00000  Uiso   1.00
C17    C     0.14873   0.04743   0.28430   0.00000  Uiso   1.00
C18    C     0.14585   0.45247   0.21273   0.00000  Uiso   1.00
H19    H     0.13025   0.02999   0.31117   0.00000  Uiso   1.00
H20    H     0.12515   0.46999   0.18241   0.00000  Uiso   1.00
C21    C     0.14736   0.09325   0.28374   0.00000  Uiso   1.00
C22    C     0.14458   0.40665   0.21281   0.00000  Uiso   1.00
H23    H     0.12768   0.11061   0.31025   0.00000  Uiso   1.00
H24    H     0.12274   0.38930   0.18251   0.00000  Uiso   1.00
C25    C     0.17055   0.11649   0.24907   0.00000  Uiso   1.00
C26    C     0.17064   0.38337   0.25180   0.00000  Uiso   1.00
C27    C     0.19608   0.09317   0.21475   0.00000  Uiso   1.00
C28    C     0.19909   0.40651   0.29101   0.00000  Uiso   1.00
C29    C     0.19715   0.04671   0.21515   0.00000  Uiso   1.00
C30    C     0.20010   0.45298   0.29110   0.00000  Uiso   1.00
C31    C     0.17335   0.02408   0.25028   0.00000  Uiso   1.00
C32    C     0.17331   0.47573   0.25155   0.00000  Uiso   1.00
C33    C     0.19127   0.28360   0.05744   0.00000  Uiso   1.00
C34    C     0.12678   0.23013   0.44084   0.00000  Uiso   1.00
H35    H     0.20998   0.31091   0.04211   0.00000  Uiso   1.00
H36    H     0.09446   0.21509   0.45463   0.00000  Uiso   1.00
C37    C     0.19110   0.28285   0.10816   0.00000  Uiso   1.00
C38    C     0.12770   0.23024   0.39020   0.00000  Uiso   1.00
H39    H     0.21051   0.30884   0.13055   0.00000  Uiso   1.00
H40    H     0.09691   0.21451   0.36653   0.00000  Uiso   1.00
N41    N     0.16667   0.25001   0.12934   0.00000  Uiso   1.00
N42    N     0.16667   0.24999   0.37066   0.00000  Uiso   1.00
C43    C     0.14245   0.21701   0.10129   0.00000  Uiso   1.00
C44    C     0.20572   0.26960   0.40045   0.00000  Uiso   1.00
H45    H     0.12321   0.19098   0.11826   0.00000  Uiso   1.00
H46    H     0.23662   0.28518   0.38491   0.00000  Uiso   1.00
C47    C     0.14233   0.21615   0.05050   0.00000  Uiso   1.00
C48    C     0.20669   0.26965   0.45132   0.00000  Uiso   1.00
H49    H     0.12370   0.18878   0.02982   0.00000  Uiso   1.00
H50    H     0.23907   0.28462   0.47356   0.00000  Uiso   1.00
C51    C     0.16677   0.24987   0.02736   0.00000  Uiso   1.00
C52    C     0.16674   0.24989   0.47269   0.00000  Uiso   1.00
Cl53   Cl    0.32152   0.21453   0.17832   0.00000  Uiso   1.00
Cl54   Cl    0.01174   0.28644   0.32120   0.00000  Uiso   1.00
Cl55   Cl    0.23140   0.12128   0.17442   0.00000  Uiso   1.00
Cl56   Cl    0.23808   0.37799   0.33742   0.00000  Uiso   1.00
N57    N     0.22354   0.02264   0.18095   0.00000  Uiso   1.00
O58    O     0.25725   0.49274   0.19600   0.00000  Uiso   1.00
O59    O     0.21282   0.02961   0.13448   0.00000  Uiso   1.00
N60    N     0.22939   0.47690   0.33040   0.00000  Uiso   1.00
O61    O     0.26198   0.00707   0.32145   0.00000  Uiso   1.00
O62    O     0.22255   0.46945   0.37526   0.00000  Uiso   1.00
O63    O     0.50000   0.18573   0.29072   0.00000  Uiso   1.00
O64    O     0.50000   0.31428   0.20928   0.00000  Uiso   1.00
O65    O     0.50000   0.18573   0.20928   0.00000  Uiso   1.00
O66    O     0.50000   0.31427   0.29072   0.00000  Uiso   1.00
C67    C     0.50142   0.16489   0.24979   0.00000  Uiso   1.00
C68    C     0.50144   0.33506   0.25054   0.00000  Uiso   1.00
O69    O     0.42495   0.25000   0.28132   0.00000  Uiso   1.00
O70    O     0.57505   0.25001   0.21868   0.00000  Uiso   1.00
O71    O     0.42495   0.25000   0.19989   0.00000  Uiso   1.00
O72    O     0.57505   0.25000   0.30012   0.00000  Uiso   1.00
C73    C     0.40142   0.24975   0.23787   0.00000  Uiso   1.00
C74    C     0.59858   0.25041   0.26212   0.00000  Uiso   1.00
Cu75   Cu    0.50000   0.25000   0.29822   0.00000  Uiso   1.00
Cu76   Cu    0.50000   0.25001   0.20179   0.00000  Uiso   1.00
C77    C     0.34701   0.24407   0.23192   0.00000  Uiso   1.00
C78    C     0.65296   0.25634   0.26798   0.00000  Uiso   1.00
C79    C     0.48206   0.04743   0.28430   0.00000  Uiso   1.00
C80    C     0.47919   0.45247   0.21273   0.00000  Uiso   1.00
H81    H     0.46358   0.02999   0.31117   0.00000  Uiso   1.00
H82    H     0.45849   0.46999   0.18241   0.00000  Uiso   1.00
C83    C     0.48070   0.09325   0.28374   0.00000  Uiso   1.00
C84    C     0.47792   0.40665   0.21281   0.00000  Uiso   1.00
H85    H     0.46102   0.11061   0.31025   0.00000  Uiso   1.00
H86    H     0.45608   0.38930   0.18251   0.00000  Uiso   1.00
C87    C     0.50388   0.11649   0.24907   0.00000  Uiso   1.00
C88    C     0.50398   0.38337   0.25180   0.00000  Uiso   1.00
C89    C     0.52941   0.09317   0.21475   0.00000  Uiso   1.00
C90    C     0.53242   0.40651   0.29101   0.00000  Uiso   1.00
C91    C     0.53049   0.04671   0.21515   0.00000  Uiso   1.00
C92    C     0.53344   0.45298   0.29110   0.00000  Uiso   1.00
C93    C     0.50668   0.02408   0.25028   0.00000  Uiso   1.00
C94    C     0.50664   0.47573   0.25155   0.00000  Uiso   1.00
C95    C     0.52461   0.28360   0.05744   0.00000  Uiso   1.00
C96    C     0.46011   0.23013   0.44084   0.00000  Uiso   1.00
H97    H     0.54332   0.31091   0.04211   0.00000  Uiso   1.00
H98    H     0.42779   0.21509   0.45463   0.00000  Uiso   1.00
C99    C     0.52444   0.28285   0.10816   0.00000  Uiso   1.00
C100   C     0.46104   0.23024   0.39020   0.00000  Uiso   1.00
H101   H     0.54384   0.30884   0.13055   0.00000  Uiso   1.00
H102   H     0.43024   0.21451   0.36653   0.00000  Uiso   1.00
N103   N     0.50000   0.25001   0.12934   0.00000  Uiso   1.00
N104   N     0.50000   0.24999   0.37066   0.00000  Uiso   1.00
C105   C     0.47578   0.21701   0.10129   0.00000  Uiso   1.00
C106   C     0.53905   0.26960   0.40045   0.00000  Uiso   1.00
H107   H     0.45655   0.19098   0.11826   0.00000  Uiso   1.00
H108   H     0.56995   0.28518   0.38491   0.00000  Uiso   1.00
C109   C     0.47566   0.21615   0.05050   0.00000  Uiso   1.00
C110   C     0.54002   0.26965   0.45132   0.00000  Uiso   1.00
H111   H     0.45703   0.18878   0.02982   0.00000  Uiso   1.00
H112   H     0.57240   0.28462   0.47356   0.00000  Uiso   1.00
C113   C     0.50011   0.24987   0.02736   0.00000  Uiso   1.00
C114   C     0.50007   0.24989   0.47269   0.00000  Uiso   1.00
Cl115  Cl    0.65485   0.21453   0.17832   0.00000  Uiso   1.00
Cl116  Cl    0.34508   0.28644   0.32120   0.00000  Uiso   1.00
Cl117  Cl    0.56473   0.12128   0.17442   0.00000  Uiso   1.00
Cl118  Cl    0.57141   0.37799   0.33742   0.00000  Uiso   1.00
N119   N     0.55687   0.02264   0.18095   0.00000  Uiso   1.00
O120   O     0.59059   0.49274   0.19600   0.00000  Uiso   1.00
O121   O     0.54615   0.02961   0.13448   0.00000  Uiso   1.00
N122   N     0.56272   0.47690   0.33040   0.00000  Uiso   1.00
O123   O     0.59531   0.00707   0.32145   0.00000  Uiso   1.00
O124   O     0.55588   0.46945   0.37526   0.00000  Uiso   1.00
O125   O     0.83334   0.18573   0.29072   0.00000  Uiso   1.00
O126   O     0.83333   0.31428   0.20928   0.00000  Uiso   1.00
O127   O     0.83334   0.18573   0.20928   0.00000  Uiso   1.00
O128   O     0.83333   0.31427   0.29072   0.00000  Uiso   1.00
C129   C     0.83475   0.16489   0.24979   0.00000  Uiso   1.00
C130   C     0.83477   0.33506   0.25054   0.00000  Uiso   1.00
O131   O     0.75828   0.25000   0.28132   0.00000  Uiso   1.00
O132   O     0.90839   0.25001   0.21868   0.00000  Uiso   1.00
O133   O     0.75828   0.25000   0.19989   0.00000  Uiso   1.00
O134   O     0.90839   0.25000   0.30012   0.00000  Uiso   1.00
C135   C     0.73476   0.24975   0.23787   0.00000  Uiso   1.00
C136   C     0.93191   0.25041   0.26212   0.00000  Uiso   1.00
Cu137  Cu    0.83333   0.25000   0.29822   0.00000  Uiso   1.00
Cu138  Cu    0.83333   0.25001   0.20179   0.00000  Uiso   1.00
C139   C     0.68035   0.24407   0.23192   0.00000  Uiso   1.00
C140   C     0.98630   0.25634   0.26798   0.00000  Uiso   1.00
C141   C     0.81539   0.04743   0.28430   0.00000  Uiso   1.00
C142   C     0.81252   0.45247   0.21273   0.00000  Uiso   1.00
H143   H     0.79692   0.02999   0.31117   0.00000  Uiso   1.00
H144   H     0.79182   0.46999   0.18241   0.00000  Uiso   1.00
C145   C     0.81403   0.09325   0.28374   0.00000  Uiso   1.00
C146   C     0.81125   0.40665   0.21281   0.00000  Uiso   1.00
H147   H     0.79435   0.11061   0.31025   0.00000  Uiso   1.00
H148   H     0.78941   0.38930   0.18251   0.00000  Uiso   1.00
C149   C     0.83722   0.11649   0.24907   0.00000  Uiso   1.00
C150   C     0.83731   0.38337   0.25180   0.00000  Uiso   1.00
C151   C     0.86274   0.09317   0.21475   0.00000  Uiso   1.00
C152   C     0.86575   0.40651   0.29101   0.00000  Uiso   1.00
C153   C     0.86382   0.04671   0.21515   0.00000  Uiso   1.00
C154   C     0.86677   0.45298   0.29110   0.00000  Uiso   1.00
C155   C     0.84001   0.02408   0.25028   0.00000  Uiso   1.00
C156   C     0.83998   0.47573   0.25155   0.00000  Uiso   1.00
C157   C     0.85794   0.28360   0.05744   0.00000  Uiso   1.00
C158   C     0.79344   0.23013   0.44084   0.00000  Uiso   1.00
H159   H     0.87665   0.31091   0.04211   0.00000  Uiso   1.00
H160   H     0.76112   0.21509   0.45463   0.00000  Uiso   1.00
C161   C     0.85777   0.28285   0.10816   0.00000  Uiso   1.00
C162   C     0.79437   0.23024   0.39020   0.00000  Uiso   1.00
H163   H     0.87718   0.30884   0.13055   0.00000  Uiso   1.00
H164   H     0.76358   0.21451   0.36653   0.00000  Uiso   1.00
N165   N     0.83333   0.25001   0.12934   0.00000  Uiso   1.00
N166   N     0.83333   0.24999   0.37066   0.00000  Uiso   1.00
C167   C     0.80912   0.21701   0.10129   0.00000  Uiso   1.00
C168   C     0.87239   0.26960   0.40045   0.00000  Uiso   1.00
H169   H     0.78988   0.19098   0.11826   0.00000  Uiso   1.00
H170   H     0.90328   0.28518   0.38491   0.00000  Uiso   1.00
C171   C     0.80900   0.21615   0.05050   0.00000  Uiso   1.00
C172   C     0.87335   0.26965   0.45132   0.00000  Uiso   1.00
H173   H     0.79036   0.18878   0.02982   0.00000  Uiso   1.00
H174   H     0.90573   0.28462   0.47356   0.00000  Uiso   1.00
C175   C     0.83344   0.24987   0.02736   0.00000  Uiso   1.00
C176   C     0.83341   0.24989   0.47269   0.00000  Uiso   1.00
Cl177  Cl    0.98818   0.21453   0.17832   0.00000  Uiso   1.00
Cl178  Cl    0.67841   0.28644   0.32120   0.00000  Uiso   1.00
Cl179  Cl    0.89806   0.12128   0.17442   0.00000  Uiso   1.00
Cl180  Cl    0.90474   0.37799   0.33742   0.00000  Uiso   1.00
N181   N     0.89020   0.02264   0.18095   0.00000  Uiso   1.00
O182   O     0.92392   0.49274   0.19600   0.00000  Uiso   1.00
O183   O     0.87948   0.02961   0.13448   0.00000  Uiso   1.00
N184   N     0.89606   0.47690   0.33040   0.00000  Uiso   1.00
O185   O     0.92864   0.00707   0.32145   0.00000  Uiso   1.00
O186   O     0.88922   0.46945   0.37526   0.00000  Uiso   1.00
O187   O     0.16667   0.68573   0.29072   0.00000  Uiso   1.00
O188   O     0.16666   0.81428   0.20928   0.00000  Uiso   1.00
O189   O     0.16667   0.68573   0.20928   0.00000  Uiso   1.00
O190   O     0.16666   0.81427   0.29072   0.00000  Uiso   1.00
C191   C     0.16809   0.66489   0.24979   0.00000  Uiso   1.00
C192   C     0.16810   0.83506   0.25054   0.00000  Uiso   1.00
O193   O     0.09161   0.75000   0.28132   0.00000  Uiso   1.00
O194   O     0.24172   0.75001   0.21868   0.00000  Uiso   1.00
O195   O     0.09161   0.75000   0.19989   0.00000  Uiso   1.00
O196   O     0.24172   0.75000   0.30012   0.00000  Uiso   1.00
C197   C     0.06809   0.74975   0.23787   0.00000  Uiso   1.00
C198   C     0.26524   0.75041   0.26212   0.00000  Uiso   1.00
Cu199  Cu    0.16667   0.75000   0.29822   0.00000  Uiso   1.00
Cu200  Cu    0.16667   0.75001   0.20179   0.00000  Uiso   1.00
C201   C     0.01368   0.74407   0.23192   0.00000  Uiso   1.00
C202   C     0.31963   0.75634   0.26798   0.00000  Uiso   1.00
C203   C     0.14873   0.54743   0.28430   0.00000  Uiso   1.00
C204   C     0.14585   0.95247   0.21273   0.00000  Uiso   1.00
H205   H     0.13025   0.52999   0.31117   0.00000  Uiso   1.00
H206   H     0.12515   0.96999   0.18241   0.00000  Uiso   1.00
C207   C     0.14736   0.59325   0.28374   0.00000  Uiso   1.00
C208   C     0.14458   0.90665   0.21281   0.00000  Uiso   1.00
H209   H     0.12768   0.61061   0.31025   0.00000  Uiso   1.00
H210   H     0.12274   0.88930   0.18251   0.00000  Uiso   1.00
C211   C     0.17055   0.61649   0.24907   0.00000  Uiso   1.00
C212   C     0.17064   0.88337   0.25180   0.00000  Uiso   1.00
C213   C     0.19608   0.59317   0.21475   0.00000  Uiso   1.00
C214   C     0.19909   0.90651   0.29101   0.00000  Uiso   1.00
C215   C     0.19715   0.54671   0.21515   0.00000  Uiso   1.00
C216   C     0.20010   0.95298   0.29110   0.00000  Uiso   1.00
C217   C     0.17335   0.52408   0.25028   0.00000  Uiso   1.00
C218   C     0.17331   0.97573   0.25155   0.00000  Uiso   1.00
C219   C     0.19127   0.78360   0.05744   0.00000  Uiso   1.00
C220   C     0.12678   0.73013   0.44084   0.00000  Uiso   1.00
H221   H     0.20998   0.81091   0.04211   0.00000  Uiso   1.00
H222   H     0.09446   0.71509   0.45463   0.00000  Uiso   1.00
C223   C     0.19110   0.78285   0.10816   0.00000  Uiso   1.00
C224   C     0.12770   0.73024   0.39020   0.00000  Uiso   1.00
H225   H     0.21051   0.80884   0.13055   0.00000  Uiso   1.00
H226   H     0.09691   0.71451   0.36653   0.00000  Uiso   1.00
N227   N     0.16667   0.75001   0.12934   0.00000  Uiso   1.00
N228   N     0.16667   0.74999   0.37066   0.00000  Uiso   1.00
C229   C     0.14245   0.71701   0.10129   0.00000  Uiso   1.00
C230   C     0.20572   0.76960   0.40045   0.00000  Uiso   1.00
H231   H     0.12321   0.69098   0.11826   0.00000  Uiso   1.00
H232   H     0.23662   0.78518   0.38491   0.00000  Uiso   1.00
C233   C     0.14233   0.71615   0.05050   0.00000  Uiso   1.00
C234   C     0.20669   0.76965   0.45132   0.00000  Uiso   1.00
H235   H     0.12370   0.68878   0.02982   0.00000  Uiso   1.00
H236   H     0.23907   0.78462   0.47356   0.00000  Uiso   1.00
C237   C     0.16677   0.74987   0.02736   0.00000  Uiso   1.00
C238   C     0.16674   0.74989   0.47269   0.00000  Uiso   1.00
Cl239  Cl    0.32152   0.71453   0.17832   0.00000  Uiso   1.00
Cl240  Cl    0.01174   0.78644   0.32120   0.00000  Uiso   1.00
Cl241  Cl    0.23140   0.62128   0.17442   0.00000  Uiso   1.00
Cl242  Cl    0.23808   0.87799   0.33742   0.00000  Uiso   1.00
N243   N     0.22354   0.52264   0.18095   0.00000  Uiso   1.00
O244   O     0.25725   0.99274   0.19600   0.00000  Uiso   1.00
O245   O     0.21282   0.52961   0.13448   0.00000  Uiso   1.00
N246   N     0.22939   0.97690   0.33040   0.00000  Uiso   1.00
O247   O     0.26198   0.50707   0.32145   0.00000  Uiso   1.00
O248   O     0.22255   0.96945   0.37526   0.00000  Uiso   1.00
O249   O     0.50000   0.68573   0.29072   0.00000  Uiso   1.00
O250   O     0.50000   0.81428   0.20928   0.00000  Uiso   1.00
O251   O     0.50000   0.68573   0.20928   0.00000  Uiso   1.00
O252   O     0.50000   0.81427   0.29072   0.00000  Uiso   1.00
C253   C     0.50142   0.66489   0.24979   0.00000  Uiso   1.00
C254   C     0.50144   0.83506   0.25054   0.00000  Uiso   1.00
O255   O     0.42495   0.75000   0.28132   0.00000  Uiso   1.00
O256   O     0.57505   0.75001   0.21868   0.00000  Uiso   1.00
O257   O     0.42495   0.75000   0.19989   0.00000  Uiso   1.00
O258   O     0.57505   0.75000   0.30012   0.00000  Uiso   1.00
C259   C     0.40142   0.74975   0.23787   0.00000  Uiso   1.00
C260   C     0.59858   0.75041   0.26212   0.00000  Uiso   1.00
Cu261  Cu    0.50000   0.75000   0.29822   0.00000  Uiso   1.00
Cu262  Cu    0.50000   0.75001   0.20179   0.00000  Uiso   1.00
C263   C     0.34701   0.74407   0.23192   0.00000  Uiso   1.00
C264   C     0.65296   0.75634   0.26798   0.00000  Uiso   1.00
C265   C     0.48206   0.54743   0.28430   0.00000  Uiso   1.00
C266   C     0.47919   0.95247   0.21273   0.00000  Uiso   1.00
H267   H     0.46358   0.52999   0.31117   0.00000  Uiso   1.00
H268   H     0.45849   0.96999   0.18241   0.00000  Uiso   1.00
C269   C     0.48070   0.59325   0.28374   0.00000  Uiso   1.00
C270   C     0.47792   0.90665   0.21281   0.00000  Uiso   1.00
H271   H     0.46102   0.61061   0.31025   0.00000  Uiso   1.00
H272   H     0.45608   0.88930   0.18251   0.00000  Uiso   1.00
C273   C     0.50388   0.61649   0.24907   0.00000  Uiso   1.00
C274   C     0.50398   0.88337   0.25180   0.00000  Uiso   1.00
C275   C     0.52941   0.59317   0.21475   0.00000  Uiso   1.00
C276   C     0.53242   0.90651   0.29101   0.00000  Uiso   1.00
C277   C     0.53049   0.54671   0.21515   0.00000  Uiso   1.00
C278   C     0.53344   0.95298   0.29110   0.00000  Uiso   1.00
C279   C     0.50668   0.52408   0.25028   0.00000  Uiso   1.00
C280   C     0.50664   0.97573   0.25155   0.00000  Uiso   1.00
C281   C     0.52461   0.78360   0.05744   0.00000  Uiso   1.00
C282   C     0.46011   0.73013   0.44084   0.00000  Uiso   1.00
H283   H     0.54332   0.81091   0.04211   0.00000  Uiso   1.00
H284   H     0.42779   0.71509   0.45463   0.00000  Uiso   1.00
C285   C     0.52444   0.78285   0.10816   0.00000  Uiso   1.00
C286   C     0.46104   0.73024   0.39020   0.00000  Uiso   1.00
H287   H     0.54384   0.80884   0.13055   0.00000  Uiso   1.00
H288   H     0.43024   0.71451   0.36653   0.00000  Uiso   1.00
N289   N     0.50000   0.75001   0.12934   0.00000  Uiso   1.00
N290   N     0.50000   0.74999   0.37066   0.00000  Uiso   1.00
C291   C     0.47578   0.71701   0.10129   0.00000  Uiso   1.00
C292   C     0.53905   0.76960   0.40045   0.00000  Uiso   1.00
H293   H     0.45655   0.69098   0.11826   0.00000  Uiso   1.00
H294   H     0.56995   0.78518   0.38491   0.00000  Uiso   1.00
C295   C     0.47566   0.71615   0.05050   0.00000  Uiso   1.00
C296   C     0.54002   0.76965   0.45132   0.00000  Uiso   1.00
H297   H     0.45703   0.68878   0.02982   0.00000  Uiso   1.00
H298   H     0.57240   0.78462   0.47356   0.00000  Uiso   1.00
C299   C     0.50011   0.74987   0.02736   0.00000  Uiso   1.00
C300   C     0.50007   0.74989   0.47269   0.00000  Uiso   1.00
Cl301  Cl    0.65485   0.71453   0.17832   0.00000  Uiso   1.00
Cl302  Cl    0.34508   0.78644   0.32120   0.00000  Uiso   1.00
Cl303  Cl    0.56473   0.62128   0.17442   0.00000  Uiso   1.00
Cl304  Cl    0.57141   0.87799   0.33742   0.00000  Uiso   1.00
N305   N     0.55687   0.52264   0.18095   0.00000  Uiso   1.00
O306   O     0.59059   0.99274   0.19600   0.00000  Uiso   1.00
O307   O     0.54615   0.52961   0.13448   0.00000  Uiso   1.00
N308   N     0.56272   0.97690   0.33040   0.00000  Uiso   1.00
O309   O     0.59531   0.50707   0.32145   0.00000  Uiso   1.00
O310   O     0.55588   0.96945   0.37526   0.00000  Uiso   1.00
O311   O     0.83334   0.68573   0.29072   0.00000  Uiso   1.00
O312   O     0.83333   0.81428   0.20928   0.00000  Uiso   1.00
O313   O     0.83334   0.68573   0.20928   0.00000  Uiso   1.00
O314   O     0.83333   0.81427   0.29072   0.00000  Uiso   1.00
C315   C     0.83475   0.66489   0.24979   0.00000  Uiso   1.00
C316   C     0.83477   0.83506   0.25054   0.00000  Uiso   1.00
O317   O     0.75828   0.75000   0.28132   0.00000  Uiso   1.00
O318   O     0.90839   0.75001   0.21868   0.00000  Uiso   1.00
O319   O     0.75828   0.75000   0.19989   0.00000  Uiso   1.00
O320   O     0.90839   0.75000   0.30012   0.00000  Uiso   1.00
C321   C     0.73476   0.74975   0.23787   0.00000  Uiso   1.00
C322   C     0.93191   0.75041   0.26212   0.00000  Uiso   1.00
Cu323  Cu    0.83333   0.75000   0.29822   0.00000  Uiso   1.00
Cu324  Cu    0.83333   0.75001   0.20179   0.00000  Uiso   1.00
C325   C     0.68035   0.74407   0.23192   0.00000  Uiso   1.00
C326   C     0.98630   0.75634   0.26798   0.00000  Uiso   1.00
C327   C     0.81539   0.54743   0.28430   0.00000  Uiso   1.00
C328   C     0.81252   0.95247   0.21273   0.00000  Uiso   1.00
H329   H     0.79692   0.52999   0.31117   0.00000  Uiso   1.00
H330   H     0.79182   0.96999   0.18241   0.00000  Uiso   1.00
C331   C     0.81403   0.59325   0.28374   0.00000  Uiso   1.00
C332   C     0.81125   0.90665   0.21281   0.00000  Uiso   1.00
H333   H     0.79435   0.61061   0.31025   0.00000  Uiso   1.00
H334   H     0.78941   0.88930   0.18251   0.00000  Uiso   1.00
C335   C     0.83722   0.61649   0.24907   0.00000  Uiso   1.00
C336   C     0.83731   0.88337   0.25180   0.00000  Uiso   1.00
C337   C     0.86274   0.59317   0.21475   0.00000  Uiso   1.00
C338   C     0.86575   0.90651   0.29101   0.00000  Uiso   1.00
C339   C     0.86382   0.54671   0.21515   0.00000  Uiso   1.00
C340   C     0.86677   0.95298   0.29110   0.00000  Uiso   1.00
C341   C     0.84001   0.52408   0.25028   0.00000  Uiso   1.00
C342   C     0.83998   0.97573   0.25155   0.00000  Uiso   1.00
C343   C     0.85794   0.78360   0.05744   0.00000  Uiso   1.00
C344   C     0.79344   0.73013   0.44084   0.00000  Uiso   1.00
H345   H     0.87665   0.81091   0.04211   0.00000  Uiso   1.00
H346   H     0.76112   0.71509   0.45463   0.00000  Uiso   1.00
C347   C     0.85777   0.78285   0.10816   0.00000  Uiso   1.00
C348   C     0.79437   0.73024   0.39020   0.00000  Uiso   1.00
H349   H     0.87718   0.80884   0.13055   0.00000  Uiso   1.00
H350   H     0.76358   0.71451   0.36653   0.00000  Uiso   1.00
N351   N     0.83333   0.75001   0.12934   0.00000  Uiso   1.00
N352   N     0.83333   0.74999   0.37066   0.00000  Uiso   1.00
C353   C     0.80912   0.71701   0.10129   0.00000  Uiso   1.00
C354   C     0.87239   0.76960   0.40045   0.00000  Uiso   1.00
H355   H     0.78988   0.69098   0.11826   0.00000  Uiso   1.00
H356   H     0.90328   0.78518   0.38491   0.00000  Uiso   1.00
C357   C     0.80900   0.71615   0.05050   0.00000  Uiso   1.00
C358   C     0.87335   0.76965   0.45132   0.00000  Uiso   1.00
H359   H     0.79036   0.68878   0.02982   0.00000  Uiso   1.00
H360   H     0.90573   0.78462   0.47356   0.00000  Uiso   1.00
C361   C     0.83344   0.74987   0.02736   0.00000  Uiso   1.00
C362   C     0.83341   0.74989   0.47269   0.00000  Uiso   1.00
Cl363  Cl    0.98818   0.71453   0.17832   0.00000  Uiso   1.00
Cl364  Cl    0.67841   0.78644   0.32120   0.00000  Uiso   1.00
Cl365  Cl    0.89806   0.62128   0.17442   0.00000  Uiso   1.00
Cl366  Cl    0.90474   0.87799   0.33742   0.00000  Uiso   1.00
N367   N     0.89020   0.52264   0.18095   0.00000  Uiso   1.00
O368   O     0.92392   0.99274   0.19600   0.00000  Uiso   1.00
O369   O     0.87948   0.52961   0.13448   0.00000  Uiso   1.00
N370   N     0.89606   0.97690   0.33040   0.00000  Uiso   1.00
O371   O     0.92864   0.50707   0.32145   0.00000  Uiso   1.00
O372   O     0.88922   0.96945   0.37526   0.00000  Uiso   1.00
O373   O     0.16667   0.18573   0.79072   0.00000  Uiso   1.00
O374   O     0.16666   0.31428   0.70928   0.00000  Uiso   1.00
O375   O     0.16667   0.18573   0.70928   0.00000  Uiso   1.00
O376   O     0.16666   0.31427   0.79072   0.00000  Uiso   1.00
C377   C     0.16809   0.16489   0.74979   0.00000  Uiso   1.00
C378   C     0.16810   0.33506   0.75054   0.00000  Uiso   1.00
O379   O     0.09161   0.25000   0.78132   0.00000  Uiso   1.00
O380   O     0.24172   0.25001   0.71868   0.00000  Uiso   1.00
O381   O     0.09161   0.25000   0.69989   0.00000  Uiso   1.00
O382   O     0.24172   0.25000   0.80012   0.00000  Uiso   1.00
C383   C     0.06809   0.24975   0.73787   0.00000  Uiso   1.00
C384   C     0.26524   0.25041   0.76212   0.00000  Uiso   1.00
Cu385  Cu    0.16667   0.25000   0.79822   0.00000  Uiso   1.00
Cu386  Cu    0.16667   0.25001   0.70179   0.00000  Uiso   1.00
C387   C     0.01368   0.24407   0.73192   0.00000  Uiso   1.00
C388   C     0.31963   0.25634   0.76798   0.00000  Uiso   1.00
C389   C     0.14873   0.04743   0.78430   0.00000  Uiso   1.00
C390   C     0.14585   0.45247   0.71273   0.00000  Uiso   1.00
H391   H     0.13025   0.02999   0.81117   0.00000  Uiso   1.00
H392   H     0.12515   0.46999   0.68241   0.00000  Uiso   1.00
C393   C     0.14736   0.09325   0.78374   0.00000  Uiso   1.00
C394   C     0.14458   0.40665   0.71281   0.00000  Uiso   1.00
H395   H     0.12768   0.11061   0.81025   0.00000  Uiso   1.00
H396   H     0.12274   0.38930   0.68251   0.00000  Uiso   1.00
C397   C     0.17055   0.11649   0.74907   0.00000  Uiso   1.00
C398   C     0.17064   0.38337   0.75180   0.00000  Uiso   1.00
C399   C     0.19608   0.09317   0.71475   0.00000  Uiso   1.00
C400   C     0.19909   0.40651   0.79101   0.00000  Uiso   1.00
C401   C     0.19715   0.04671   0.71515   0.00000  Uiso   1.00
C402   C     0.20010   0.45298   0.79110   0.00000  Uiso   1.00
C403   C     0.17335   0.02408   0.75028   0.00000  Uiso   1.00
C404   C     0.17331   0.47573   0.75155   0.00000  Uiso   1.00
C405   C     0.19127   0.28360   0.55744   0.00000  Uiso   1.00
C406   C     0.12678   0.23013   0.94084   0.00000  Uiso   1.00
H407   H     0.20998   0.31091   0.54211   0.00000  Uiso   1.00
H408   H     0.09446   0.21509   0.95463   0.00000  Uiso   1.00
C409   C     0.19110   0.28285   0.60816   0.00000  Uiso   1.00
C410   C     0.12770   0.23024   0.89020   0.00000  Uiso   1.00
H411   H     0.21051   0.30884   0.63055   0.00000  Uiso   1.00
H412   H     0.09691   0.21451   0.86653   0.00000  Uiso   1.00
N413   N     0.16667   0.25001   0.62934   0.00000  Uiso   1.00
N414   N     0.16667   0.24999   0.87066   0.00000  Uiso   1.00
C415   C     0.14245   0.21701   0.60129   0.00000  Uiso   1.00
C416   C     0.20572   0.26960   0.90045   0.00000  Uiso   1.00
H417   H     0.12321   0.19098   0.61826   0.00000  Uiso   1.00
H418   H     0.23662   0.28518   0.88491   0.00000  Uiso   1.00
C419   C     0.14233   0.21615   0.55050   0.00000  Uiso   1.00
C420   C     0.20669   0.26965   0.95132   0.00000  Uiso   1.00
H421   H     0.12370   0.18878   0.52982   0.00000  Uiso   1.00
H422   H     0.23907   0.28462   0.97356   0.00000  Uiso   1.00
C423   C     0.16677   0.24987   0.52736   0.00000  Uiso   1.00
C424   C     0.16674   0.24989   0.97269   0.00000  Uiso   1.00
Cl425  Cl    0.32152   0.21453   0.67832   0.00000  Uiso   1.00
Cl426  Cl    0.01174   0.28644   0.82120   0.00000  Uiso   1.00
Cl427  Cl    0.23140   0.12128   0.67442   0.00000  Uiso   1.00
Cl428  Cl    0.23808   0.37799   0.83742   0.00000  Uiso   1.00
N429   N     0.22354   0.02264   0.68095   0.00000  Uiso   1.00
O430   O     0.25725   0.49274   0.69600   0.00000  Uiso   1.00
O431   O     0.21282   0.02961   0.63448   0.00000  Uiso   1.00
N432   N     0.22939   0.47690   0.83040   0.00000  Uiso   1.00
O433   O     0.26198   0.00707   0.82145   0.00000  Uiso   1.00
O434   O     0.22255   0.46945   0.87526   0.00000  Uiso   1.00
O435   O     0.50000   0.18573   0.79072   0.00000  Uiso   1.00
O436   O     0.50000   0.31428   0.70928   0.00000  Uiso   1.00
O437   O     0.50000   0.18573   0.70928   0.00000  Uiso   1.00
O438   O     0.50000   0.31427   0.79072   0.00000  Uiso   1.00
C439   C     0.50142   0.16489   0.74979   0.00000  Uiso   1.00
C440   C     0.50144   0.33506   0.75054   0.00000  Uiso   1.00
O441   O     0.42495   0.25000   0.78132   0.00000  Uiso   1.00
O442   O     0.57505   0.25001   0.71868   0.00000  Uiso   1.00
O443   O     0.42495   0.25000   0.69989   0.00000  Uiso   1.00
O444   O     0.57505   0.25000   0.80012   0.00000  Uiso   1.00
C445   C     0.40142   0.24975   0.73787   0.00000  Uiso   1.00
C446   C     0.59858   0.25041   0.76212   0.00000  Uiso   1.00
Cu447  Cu    0.50000   0.25000   0.79822   0.00000  Uiso   1.00
Cu448  Cu    0.50000   0.25001   0.70179   0.00000  Uiso   1.00
C449   C     0.34701   0.24407   0.73192   0.00000  Uiso   1.00
C450   C     0.65296   0.25634   0.76798   0.00000  Uiso   1.00
C451   C     0.48206   0.04743   0.78430   0.00000  Uiso   1.00
C452   C     0.47919   0.45247   0.71273   0.00000  Uiso   1.00
H453   H     0.46358   0.02999   0.81117   0.00000  Uiso   1.00
H454   H     0.45849   0.46999   0.68241   0.00000  Uiso   1.00
C455   C     0.48070   0.09325   0.78374   0.00000  Uiso   1.00
C456   C     0.47792   0.40665   0.71281   0.00000  Uiso   1.00
H457   H     0.46102   0.11061   0.81025   0.00000  Uiso   1.00
H458   H     0.45608   0.38930   0.68251   0.00000  Uiso   1.00
C459   C     0.50388   0.11649   0.74907   0.00000  Uiso   1.00
C460   C     0.50398   0.38337   0.75180   0.00000  Uiso   1.00
C461   C     0.52941   0.09317   0.71475   0.00000  Uiso   1.00
C462   C     0.53242   0.40651   0.79101   0.00000  Uiso   1.00
C463   C     0.53049   0.04671   0.71515   0.00000  Uiso   1.00
C464   C     0.53344   0.45298   0.79110   0.00000  Uiso   1.00
C465   C     0.50668   0.02408   0.75028   0.00000  Uiso   1.00
C466   C     0.50664   0.47573   0.75155   0.00000  Uiso   1.00
C467   C     0.52461   0.28360   0.55744   0.00000  Uiso   1.00
C468   C     0.46011   0.23013   0.94084   0.00000  Uiso   1.00
H469   H     0.54332   0.31091   0.54211   0.00000  Uiso   1.00
H470   H     0.42779   0.21509   0.95463   0.00000  Uiso   1.00
C471   C     0.52444   0.28285   0.60816   0.00000  Uiso   1.00
C472   C     0.46104   0.23024   0.89020   0.00000  Uiso   1.00
H473   H     0.54384   0.30884   0.63055   0.00000  Uiso   1.00
H474   H     0.43024   0.21451   0.86653   0.00000  Uiso   1.00
N475   N     0.50000   0.25001   0.62934   0.00000  Uiso   1.00
N476   N     0.50000   0.24999   0.87066   0.00000  Uiso   1.00
C477   C     0.47578   0.21701   0.60129   0.00000  Uiso   1.00
C478   C     0.53905   0.26960   0.90045   0.00000  Uiso   1.00
H479   H     0.45655   0.19098   0.61826   0.00000  Uiso   1.00
H480   H     0.56995   0.28518   0.88491   0.00000  Uiso   1.00
C481   C     0.47566   0.21615   0.55050   0.00000  Uiso   1.00
C482   C     0.54002   0.26965   0.95132   0.00000  Uiso   1.00
H483   H     0.45703   0.18878   0.52982   0.00000  Uiso   1.00
H484   H     0.57240   0.28462   0.97356   0.00000  Uiso   1.00
C485   C     0.50011   0.24987   0.52736   0.00000  Uiso   1.00
C486   C     0.50007   0.24989   0.97269   0.00000  Uiso   1.00
Cl487  Cl    0.65485   0.21453   0.67832   0.00000  Uiso   1.00
Cl488  Cl    0.34508   0.28644   0.82120   0.00000  Uiso   1.00
Cl489  Cl    0.56473   0.12128   0.67442   0.00000  Uiso   1.00
Cl490  Cl    0.57141   0.37799   0.83742   0.00000  Uiso   1.00
N491   N     0.55687   0.02264   0.68095   0.00000  Uiso   1.00
O492   O     0.59059   0.49274   0.69600   0.00000  Uiso   1.00
O493   O     0.54615   0.02961   0.63448   0.00000  Uiso   1.00
N494   N     0.56272   0.47690   0.83040   0.00000  Uiso   1.00
O495   O     0.59531   0.00707   0.82145   0.00000  Uiso   1.00
O496   O     0.55588   0.46945   0.87526   0.00000  Uiso   1.00
O497   O     0.83334   0.18573   0.79072   0.00000  Uiso   1.00
O498   O     0.83333   0.31428   0.70928   0.00000  Uiso   1.00
O499   O     0.83334   0.18573   0.70928   0.00000  Uiso   1.00
O500   O     0.83333   0.31427   0.79072   0.00000  Uiso   1.00
C501   C     0.83475   0.16489   0.74979   0.00000  Uiso   1.00
C502   C     0.83477   0.33506   0.75054   0.00000  Uiso   1.00
O503   O     0.75828   0.25000   0.78132   0.00000  Uiso   1.00
O504   O     0.90839   0.25001   0.71868   0.00000  Uiso   1.00
O505   O     0.75828   0.25000   0.69989   0.00000  Uiso   1.00
O506   O     0.90839   0.25000   0.80012   0.00000  Uiso   1.00
C507   C     0.73476   0.24975   0.73787   0.00000  Uiso   1.00
C508   C     0.93191   0.25041   0.76212   0.00000  Uiso   1.00
Cu509  Cu    0.83333   0.25000   0.79822   0.00000  Uiso   1.00
Cu510  Cu    0.83333   0.25001   0.70179   0.00000  Uiso   1.00
C511   C     0.68035   0.24407   0.73192   0.00000  Uiso   1.00
C512   C     0.98630   0.25634   0.76798   0.00000  Uiso   1.00
C513   C     0.81539   0.04743   0.78430   0.00000  Uiso   1.00
C514   C     0.81252   0.45247   0.71273   0.00000  Uiso   1.00
H515   H     0.79692   0.02999   0.81117   0.00000  Uiso   1.00
H516   H     0.79182   0.46999   0.68241   0.00000  Uiso   1.00
C517   C     0.81403   0.09325   0.78374   0.00000  Uiso   1.00
C518   C     0.81125   0.40665   0.71281   0.00000  Uiso   1.00
H519   H     0.79435   0.11061   0.81025   0.00000  Uiso   1.00
H520   H     0.78941   0.38930   0.68251   0.00000  Uiso   1.00
C521   C     0.83722   0.11649   0.74907   0.00000  Uiso   1.00
C522   C     0.83731   0.38337   0.75180   0.00000  Uiso   1.00
C523   C     0.86274   0.09317   0.71475   0.00000  Uiso   1.00
C524   C     0.86575   0.40651   0.79101   0.00000  Uiso   1.00
C525   C     0.86382   0.04671   0.71515   0.00000  Uiso   1.00
C526   C     0.86677   0.45298   0.79110   0.00000  Uiso   1.00
C527   C     0.84001   0.02408   0.75028   0.00000  Uiso   1.00
C528   C     0.83998   0.47573   0.75155   0.00000  Uiso   1.00
C529   C     0.85794   0.28360   0.55744   0.00000  Uiso   1.00
C530   C     0.79344   0.23013   0.94084   0.00000  Uiso   1.00
H531   H     0.87665   0.31091   0.54211   0.00000  Uiso   1.00
H532   H     0.76112   0.21509   0.95463   0.00000  Uiso   1.00
C533   C     0.85777   0.28285   0.60816   0.00000  Uiso   1.00
C534   C     0.79437   0.23024   0.89020   0.00000  Uiso   1.00
H535   H     0.87718   0.30884   0.63055   0.00000  Uiso   1.00
H536   H     0.76358   0.21451   0.86653   0.00000  Uiso   1.00
N537   N     0.83333   0.25001   0.62934   0.00000  Uiso   1.00
N538   N     0.83333   0.24999   0.87066   0.00000  Uiso   1.00
C539   C     0.80912   0.21701   0.60129   0.00000  Uiso   1.00
C540   C     0.87239   0.26960   0.90045   0.00000  Uiso   1.00
H541   H     0.78988   0.19098   0.61826   0.00000  Uiso   1.00
H542   H     0.90328   0.28518   0.88491   0.00000  Uiso   1.00
C543   C     0.80900   0.21615   0.55050   0.00000  Uiso   1.00
C544   C     0.87335   0.26965   0.95132   0.00000  Uiso   1.00
H545   H     0.79036   0.18878   0.52982   0.00000  Uiso   1.00
H546   H     0.90573   0.28462   0.97356   0.00000  Uiso   1.00
C547   C     0.83344   0.24987   0.52736   0.00000  Uiso   1.00
C548   C     0.83341   0.24989   0.97269   0.00000  Uiso   1.00
Cl549  Cl    0.98818   0.21453   0.67832   0.00000  Uiso   1.00
Cl550  Cl    0.67841   0.28644   0.82120   0.00000  Uiso   1.00
Cl551  Cl    0.89806   0.12128   0.67442   0.00000  Uiso   1.00
Cl552  Cl    0.90474   0.37799   0.83742   0.00000  Uiso   1.00
N553   N     0.89020   0.02264   0.68095   0.00000  Uiso   1.00
O554   O     0.92392   0.49274   0.69600   0.00000  Uiso   1.00
O555   O     0.87948   0.02961   0.63448   0.00000  Uiso   1.00
N556   N     0.89606   0.47690   0.83040   0.00000  Uiso   1.00
O557   O     0.92864   0.00707   0.82145   0.00000  Uiso   1.00
O558   O     0.88922   0.46945   0.87526   0.00000  Uiso   1.00
O559   O     0.16667   0.68573   0.79072   0.00000  Uiso   1.00
O560   O     0.16666   0.81428   0.70928   0.00000  Uiso   1.00
O561   O     0.16667   0.68573   0.70928   0.00000  Uiso   1.00
O562   O     0.16666   0.81427   0.79072   0.00000  Uiso   1.00
C563   C     0.16809   0.66489   0.74979   0.00000  Uiso   1.00
C564   C     0.16810   0.83506   0.75054   0.00000  Uiso   1.00
O565   O     0.09161   0.75000   0.78132   0.00000  Uiso   1.00
O566   O     0.24172   0.75001   0.71868   0.00000  Uiso   1.00
O567   O     0.09161   0.75000   0.69989   0.00000  Uiso   1.00
O568   O     0.24172   0.75000   0.80012   0.00000  Uiso   1.00
C569   C     0.06809   0.74975   0.73787   0.00000  Uiso   1.00
C570   C     0.26524   0.75041   0.76212   0.00000  Uiso   1.00
Cu571  Cu    0.16667   0.75000   0.79822   0.00000  Uiso   1.00
Cu572  Cu    0.16667   0.75001   0.70179   0.00000  Uiso   1.00
C573   C     0.01368   0.74407   0.73192   0.00000  Uiso   1.00
C574   C     0.31963   0.75634   0.76798   0.00000  Uiso   1.00
C575   C     0.14873   0.54743   0.78430   0.00000  Uiso   1.00
C576   C     0.14585   0.95247   0.71273   0.00000  Uiso   1.00
H577   H     0.13025   0.52999   0.81117   0.00000  Uiso   1.00
H578   H     0.12515   0.96999   0.68241   0.00000  Uiso   1.00
C579   C     0.14736   0.59325   0.78374   0.00000  Uiso   1.00
C580   C     0.14458   0.90665   0.71281   0.00000  Uiso   1.00
H581   H     0.12768   0.61061   0.81025   0.00000  Uiso   1.00
H582   H     0.12274   0.88930   0.68251   0.00000  Uiso   1.00
C583   C     0.17055   0.61649   0.74907   0.00000  Uiso   1.00
C584   C     0.17064   0.88337   0.75180   0.00000  Uiso   1.00
C585   C     0.19608   0.59317   0.71475   0.00000  Uiso   1.00
C586   C     0.19909   0.90651   0.79101   0.00000  Uiso   1.00
C587   C     0.19715   0.54671   0.71515   0.00000  Uiso   1.00
C588   C     0.20010   0.95298   0.79110   0.00000  Uiso   1.00
C589   C     0.17335   0.52408   0.75028   0.00000  Uiso   1.00
C590   C     0.17331   0.97573   0.75155   0.00000  Uiso   1.00
C591   C     0.19127   0.78360   0.55744   0.00000  Uiso   1.00
C592   C     0.12678   0.73013   0.94084   0.00000  Uiso   1.00
H593   H     0.20998   0.81091   0.54211   0.00000  Uiso   1.00
H594   H     0.09446   0.71509   0.95463   0.00000  Uiso   1.00
C595   C     0.19110   0.78285   0.60816   0.00000  Uiso   1.00
C596   C     0.12770   0.73024   0.89020   0.00000  Uiso   1.00
H597   H     0.21051   0.80884   0.63055   0.00000  Uiso   1.00
H598   H     0.09691   0.71451   0.86653   0.00000  Uiso   1.00
N599   N     0.16667   0.75001   0.62934   0.00000  Uiso   1.00
N600   N     0.16667   0.74999   0.87066   0.00000  Uiso   1.00
C601   C     0.14245   0.71701   0.60129   0.00000  Uiso   1.00
C602   C     0.20572   0.76960   0.90045   0.00000  Uiso   1.00
H603   H     0.12321   0.69098   0.61826   0.00000  Uiso   1.00
H604   H     0.23662   0.78518   0.88491   0.00000  Uiso   1.00
C605   C     0.14233   0.71615   0.55050   0.00000  Uiso   1.00
C606   C     0.20669   0.76965   0.95132   0.00000  Uiso   1.00
H607   H     0.12370   0.68878   0.52982   0.00000  Uiso   1.00
H608   H     0.23907   0.78462   0.97356   0.00000  Uiso   1.00
C609   C     0.16677   0.74987   0.52736   0.00000  Uiso   1.00
C610   C     0.16674   0.74989   0.97269   0.00000  Uiso   1.00
Cl611  Cl    0.32152   0.71453   0.67832   0.00000  Uiso   1.00
Cl612  Cl    0.01174   0.78644   0.82120   0.00000  Uiso   1.00
Cl613  Cl    0.23140   0.62128   0.67442   0.00000  Uiso   1.00
Cl614  Cl    0.23808   0.87799   0.83742   0.00000  Uiso   1.00
N615   N     0.22354   0.52264   0.68095   0.00000  Uiso   1.00
O616   O     0.25725   0.99274   0.69600   0.00000  Uiso   1.00
O617   O     0.21282   0.52961   0.63448   0.00000  Uiso   1.00
N618   N     0.22939   0.97690   0.83040   0.00000  Uiso   1.00
O619   O     0.26198   0.50707   0.82145   0.00000  Uiso   1.00
O620   O     0.22255   0.96945   0.87526   0.00000  Uiso   1.00
O621   O     0.50000   0.68573   0.79072   0.00000  Uiso   1.00
O622   O     0.50000   0.81428   0.70928   0.00000  Uiso   1.00
O623   O     0.50000   0.68573   0.70928   0.00000  Uiso   1.00
O624   O     0.50000   0.81427   0.79072   0.00000  Uiso   1.00
C625   C     0.50142   0.66489   0.74979   0.00000  Uiso   1.00
C626   C     0.50144   0.83506   0.75054   0.00000  Uiso   1.00
O627   O     0.42495   0.75000   0.78132   0.00000  Uiso   1.00
O628   O     0.57505   0.75001   0.71868   0.00000  Uiso   1.00
O629   O     0.42495   0.75000   0.69989   0.00000  Uiso   1.00
O630   O     0.57505   0.75000   0.80012   0.00000  Uiso   1.00
C631   C     0.40142   0.74975   0.73787   0.00000  Uiso   1.00
C632   C     0.59858   0.75041   0.76212   0.00000  Uiso   1.00
Cu633  Cu    0.50000   0.75000   0.79822   0.00000  Uiso   1.00
Cu634  Cu    0.50000   0.75001   0.70179   0.00000  Uiso   1.00
C635   C     0.34701   0.74407   0.73192   0.00000  Uiso   1.00
C636   C     0.65296   0.75634   0.76798   0.00000  Uiso   1.00
C637   C     0.48206   0.54743   0.78430   0.00000  Uiso   1.00
C638   C     0.47919   0.95247   0.71273   0.00000  Uiso   1.00
H639   H     0.46358   0.52999   0.81117   0.00000  Uiso   1.00
H640   H     0.45849   0.96999   0.68241   0.00000  Uiso   1.00
C641   C     0.48070   0.59325   0.78374   0.00000  Uiso   1.00
C642   C     0.47792   0.90665   0.71281   0.00000  Uiso   1.00
H643   H     0.46102   0.61061   0.81025   0.00000  Uiso   1.00
H644   H     0.45608   0.88930   0.68251   0.00000  Uiso   1.00
C645   C     0.50388   0.61649   0.74907   0.00000  Uiso   1.00
C646   C     0.50398   0.88337   0.75180   0.00000  Uiso   1.00
C647   C     0.52941   0.59317   0.71475   0.00000  Uiso   1.00
C648   C     0.53242   0.90651   0.79101   0.00000  Uiso   1.00
C649   C     0.53049   0.54671   0.71515   0.00000  Uiso   1.00
C650   C     0.53344   0.95298   0.79110   0.00000  Uiso   1.00
C651   C     0.50668   0.52408   0.75028   0.00000  Uiso   1.00
C652   C     0.50664   0.97573   0.75155   0.00000  Uiso   1.00
C653   C     0.52461   0.78360   0.55744   0.00000  Uiso   1.00
C654   C     0.46011   0.73013   0.94084   0.00000  Uiso   1.00
H655   H     0.54332   0.81091   0.54211   0.00000  Uiso   1.00
H656   H     0.42779   0.71509   0.95463   0.00000  Uiso   1.00
C657   C     0.52444   0.78285   0.60816   0.00000  Uiso   1.00
C658   C     0.46104   0.73024   0.89020   0.00000  Uiso   1.00
H659   H     0.54384   0.80884   0.63055   0.00000  Uiso   1.00
H660   H     0.43024   0.71451   0.86653   0.00000  Uiso   1.00
N661   N     0.50000   0.75001   0.62934   0.00000  Uiso   1.00
N662   N     0.50000   0.74999   0.87066   0.00000  Uiso   1.00
C663   C     0.47578   0.71701   0.60129   0.00000  Uiso   1.00
C664   C     0.53905   0.76960   0.90045   0.00000  Uiso   1.00
H665   H     0.45655   0.69098   0.61826   0.00000  Uiso   1.00
H666   H     0.56995   0.78518   0.88491   0.00000  Uiso   1.00
C667   C     0.47566   0.71615   0.55050   0.00000  Uiso   1.00
C668   C     0.54002   0.76965   0.95132   0.00000  Uiso   1.00
H669   H     0.45703   0.68878   0.52982   0.00000  Uiso   1.00
H670   H     0.57240   0.78462   0.97356   0.00000  Uiso   1.00
C671   C     0.50011   0.74987   0.52736   0.00000  Uiso   1.00
C672   C     0.50007   0.74989   0.97269   0.00000  Uiso   1.00
Cl673  Cl    0.65485   0.71453   0.67832   0.00000  Uiso   1.00
Cl674  Cl    0.34508   0.78644   0.82120   0.00000  Uiso   1.00
Cl675  Cl    0.56473   0.62128   0.67442   0.00000  Uiso   1.00
Cl676  Cl    0.57141   0.87799   0.83742   0.00000  Uiso   1.00
N677   N     0.55687   0.52264   0.68095   0.00000  Uiso   1.00
O678   O     0.59059   0.99274   0.69600   0.00000  Uiso   1.00
O679   O     0.54615   0.52961   0.63448   0.00000  Uiso   1.00
N680   N     0.56272   0.97690   0.83040   0.00000  Uiso   1.00
O681   O     0.59531   0.50707   0.82145   0.00000  Uiso   1.00
O682   O     0.55588   0.96945   0.87526   0.00000  Uiso   1.00
O683   O     0.83334   0.68573   0.79072   0.00000  Uiso   1.00
O684   O     0.83333   0.81428   0.70928   0.00000  Uiso   1.00
O685   O     0.83334   0.68573   0.70928   0.00000  Uiso   1.00
O686   O     0.83333   0.81427   0.79072   0.00000  Uiso   1.00
C687   C     0.83475   0.66489   0.74979   0.00000  Uiso   1.00
C688   C     0.83477   0.83506   0.75054   0.00000  Uiso   1.00
O689   O     0.75828   0.75000   0.78132   0.00000  Uiso   1.00
O690   O     0.90839   0.75001   0.71868   0.00000  Uiso   1.00
O691   O     0.75828   0.75000   0.69989   0.00000  Uiso   1.00
O692   O     0.90839   0.75000   0.80012   0.00000  Uiso   1.00
C693   C     0.73476   0.74975   0.73787   0.00000  Uiso   1.00
C694   C     0.93191   0.75041   0.76212   0.00000  Uiso   1.00
Cu695  Cu    0.83333   0.75000   0.79822   0.00000  Uiso   1.00
Cu696  Cu    0.83333   0.75001   0.70179   0.00000  Uiso   1.00
C697   C     0.68035   0.74407   0.73192   0.00000  Uiso   1.00
C698   C     0.98630   0.75634   0.76798   0.00000  Uiso   1.00
C699   C     0.81539   0.54743   0.78430   0.00000  Uiso   1.00
C700   C     0.81252   0.95247   0.71273   0.00000  Uiso   1.00
H701   H     0.79692   0.52999   0.81117   0.00000  Uiso   1.00
H702   H     0.79182   0.96999   0.68241   0.00000  Uiso   1.00
C703   C     0.81403   0.59325   0.78374   0.00000  Uiso   1.00
C704   C     0.81125   0.90665   0.71281   0.00000  Uiso   1.00
H705   H     0.79435   0.61061   0.81025   0.00000  Uiso   1.00
H706   H     0.78941   0.88930   0.68251   0.00000  Uiso   1.00
C707   C     0.83722   0.61649   0.74907   0.00000  Uiso   1.00
C708   C     0.83731   0.88337   0.75180   0.00000  Uiso   1.00
C709   C     0.86274   0.59317   0.71475   0.00000  Uiso   1.00
C710   C     0.86575   0.90651   0.79101   0.00000  Uiso   1.00
C711   C     0.86382   0.54671   0.71515   0.00000  Uiso   1.00
C712   C     0.86677   0.95298   0.79110   0.00000  Uiso   1.00
C713   C     0.84001   0.52408   0.75028   0.00000  Uiso   1.00
C714   C     0.83998   0.97573   0.75155   0.00000  Uiso   1.00
C715   C     0.85794   0.78360   0.55744   0.00000  Uiso   1.00
C716   C     0.79344   0.73013   0.94084   0.00000  Uiso   1.00
H717   H     0.87665   0.81091   0.54211   0.00000  Uiso   1.00
H718   H     0.76112   0.71509   0.95463   0.00000  Uiso   1.00
C719   C     0.85777   0.78285   0.60816   0.00000  Uiso   1.00
C720   C     0.79437   0.73024   0.89020   0.00000  Uiso   1.00
H721   H     0.87718   0.80884   0.63055   0.00000  Uiso   1.00
H722   H     0.76358   0.71451   0.86653   0.00000  Uiso   1.00
N723   N     0.83333   0.75001   0.62934   0.00000  Uiso   1.00
N724   N     0.83333   0.74999   0.87066   0.00000  Uiso   1.00
C725   C     0.80912   0.71701   0.60129   0.00000  Uiso   1.00
C726   C     0.87239   0.76960   0.90045   0.00000  Uiso   1.00
H727   H     0.78988   0.69098   0.61826   0.00000  Uiso   1.00
H728   H     0.90328   0.78518   0.88491   0.00000  Uiso   1.00
C729   C     0.80900   0.71615   0.55050   0.00000  Uiso   1.00
C730   C     0.87335   0.76965   0.95132   0.00000  Uiso   1.00
H731   H     0.79036   0.68878   0.52982   0.00000  Uiso   1.00
H732   H     0.90573   0.78462   0.97356   0.00000  Uiso   1.00
C733   C     0.83344   0.74987   0.52736   0.00000  Uiso   1.00
C734   C     0.83341   0.74989   0.97269   0.00000  Uiso   1.00
Cl735  Cl    0.98818   0.71453   0.67832   0.00000  Uiso   1.00
Cl736  Cl    0.67841   0.78644   0.82120   0.00000  Uiso   1.00
Cl737  Cl    0.89806   0.62128   0.67442   0.00000  Uiso   1.00
Cl738  Cl    0.90474   0.87799   0.83742   0.00000  Uiso   1.00
N739   N     0.89020   0.52264   0.68095   0.00000  Uiso   1.00
O740   O     0.92392   0.99274   0.69600   0.00000  Uiso   1.00
O741   O     0.87948   0.52961   0.63448   0.00000  Uiso   1.00
N742   N     0.89606   0.97690   0.83040   0.00000  Uiso   1.00
O743   O     0.92864   0.50707   0.82145   0.00000  Uiso   1.00
O744   O     0.88922   0.96945   0.87526   0.00000  Uiso   1.00
loop_
_geom_bond_atom_site_label_1
_geom_bond_atom_site_label_2
_geom_bond_distance
_geom_bond_site_symmetry_2
_ccdc_geom_bond_type
O1     C5      1.295   .     A
O1     Cu13    1.952   .     S
O2     C6      1.294   .     A
O2     Cu14    1.952   .     S
O3     Cu14    1.957   .     S
O3     C5      1.290   .     A
O4     C6      1.290   .     A
O4     Cu13    1.957   .     S
C5     C25     1.465   .     S
C6     C26     1.462   .     S
O7     Cu13    1.974   .     S
O7     C11     1.280   .     A
O8     C12     1.280   .     A
O8     Cu14    1.974   .     S
O9     Cu14    1.973   .     S
O9     C11     1.290   .     A
O10    C12     1.290   .     A
O10    Cu13    1.973   .     S
C11    C15     1.433   .     S
C12    C16     1.433   .     S
Cu13   Cu14    2.671   .     S
Cu13   N42     2.007   .     S
Cu14   N41     2.007   .     S
C15    C140    1.355   1_455 S
C15    Cl177   1.778   1_455 S
C16    C77     1.355   .     S
C16    Cl116   1.778   .     S
C17    C31     1.397   .     A
C17    H19     1.084   .     S
C17    C21     1.386   .     A
C18    C22     1.386   .     A
C18    C32     1.398   .     A
C18    H20     1.084   .     S
C21    H23     1.084   .     S
C21    C25     1.400   .     A
C22    H24     1.084   .     S
C22    C26     1.399   .     A
C25    C27     1.416   .     A
C26    C28     1.414   .     A
C27    Cl55    1.770   .     S
C27    C29     1.405   .     A
C28    Cl56    1.770   .     S
C28    C30     1.405   .     A
C29    N57     1.438   .     S
C29    C31     1.409   .     A
C30    N60     1.437   .     S
C30    C32     1.410   .     A
C31    C218    1.463   1_545 S
C32    C217    1.463   .     S
C33    C37     1.406   .     A
C33    H35     1.081   .     S
C33    C51     1.411   .     A
C34    H36     1.081   .     S
C34    C52     1.411   .     A
C34    C38     1.406   .     A
C37    H39     1.081   .     S
C37    N41     1.364   .     A
C38    H40     1.081   .     S
C38    N42     1.364   .     A
N41    C43     1.363   .     A
N42    C44     1.364   .     A
C43    H45     1.081   .     S
C43    C47     1.407   .     A
C44    C48     1.406   .     A
C44    H46     1.081   .     S
C47    H49     1.081   .     S
C47    C51     1.411   .     A
C48    H50     1.081   .     S
C48    C52     1.411   .     A
C51    C424    1.515   1_554 S
C52    C423    1.515   .     S
Cl53   C77     1.778   .     S
Cl54   C140    1.778   1_455 S
N57    O59     1.301   .     A
N57    O244    1.301   1_545 S
O58    N243    1.301   .     S
N60    O62     1.301   .     A
N60    O247    1.301   .     S
O61    N246    1.301   1_545 S
O63    C67     1.295   .     A
O63    Cu75    1.952   .     S
O64    C68     1.294   .     A
O64    Cu76    1.952   .     S
O65    Cu76    1.957   .     S
O65    C67     1.290   .     A
O66    C68     1.290   .     A
O66    Cu75    1.957   .     S
C67    C87     1.465   .     S
C68    C88     1.462   .     S
O69    Cu75    1.974   .     S
O69    C73     1.280   .     A
O70    C74     1.280   .     A
O70    Cu76    1.974   .     S
O71    Cu76    1.973   .     S
O71    C73     1.290   .     A
O72    C74     1.290   .     A
O72    Cu75    1.973   .     S
C73    C77     1.433   .     S
C74    C78     1.433   .     S
Cu75   Cu76    2.671   .     S
Cu75   N104    2.007   .     S
Cu76   N103    2.007   .     S
C78    C139    1.355   .     S
C78    Cl178   1.778   .     S
C79    C93     1.397   .     A
C79    H81     1.084   .     S
C79    C83     1.386   .     A
C80    C84     1.386   .     A
C80    C94     1.398   .     A
C80    H82     1.084   .     S
C83    H85     1.084   .     S
C83    C87     1.400   .     A
C84    H86     1.084   .     S
C84    C88     1.399   .     A
C87    C89     1.416   .     A
C88    C90     1.414   .     A
C89    Cl117   1.770   .     S
C89    C91     1.405   .     A
C90    Cl118   1.770   .     S
C90    C92     1.405   .     A
C91    N119    1.438   .     S
C91    C93     1.409   .     A
C92    N122    1.437   .     S
C92    C94     1.410   .     A
C93    C280    1.463   1_545 S
C94    C279    1.463   .     S
C95    C99     1.406   .     A
C95    H97     1.081   .     S
C95    C113    1.411   .     A
C96    H98     1.081   .     S
C96    C114    1.411   .     A
C96    C100    1.406   .     A
C99    H101    1.081   .     S
C99    N103    1.364   .     A
C100   H102    1.081   .     S
C100   N104    1.364   .     A
N103   C105    1.363   .     A
N104   C106    1.364   .     A
C105   H107    1.081   .     S
C105   C109    1.407   .     A
C106   C110    1.406   .     A
C106   H108    1.081   .     S
C109   H111    1.081   .     S
C109   C113    1.411   .     A
C110   H112    1.081   .     S
C110   C114    1.411   .     A
C113   C486    1.515   1_554 S
C114   C485    1.515   .     S
Cl115  C139    1.778   .     S
N119   O121    1.301   .     A
N119   O306    1.301   1_545 S
O120   N305    1.301   .     S
N122   O124    1.301   .     A
N122   O309    1.301   .     S
O123   N308    1.301   1_545 S
O125   C129    1.295   .     A
O125   Cu137   1.952   .     S
O126   C130    1.294   .     A
O126   Cu138   1.952   .     S
O127   Cu138   1.957   .     S
O127   C129    1.290   .     A
O128   C130    1.290   .     A
O128   Cu137   1.957   .     S
C129   C149    1.465   .     S
C130   C150    1.462   .     S
O131   Cu137   1.974   .     S
O131   C135    1.280   .     A
O132   C136    1.280   .     A
O132   Cu138   1.974   .     S
O133   Cu138   1.973   .     S
O133   C135    1.290   .     A
O134   C136    1.290   .     A
O134   Cu137   1.973   .     S
C135   C139    1.433   .     S
C136   C140    1.433   .     S
Cu137  Cu138   2.671   .     S
Cu137  N166    2.007   .     S
Cu138  N165    2.007   .     S
C140   C15     1.355   1_655 S
C140   Cl54    1.778   1_655 S
C141   C155    1.397   .     A
C141   H143    1.084   .     S
C141   C145    1.386   .     A
C142   C146    1.386   .     A
C142   C156    1.398   .     A
C142   H144    1.084   .     S
C145   H147    1.084   .     S
C145   C149    1.400   .     A
C146   H148    1.084   .     S
C146   C150    1.399   .     A
C149   C151    1.416   .     A
C150   C152    1.414   .     A
C151   Cl179   1.770   .     S
C151   C153    1.405   .     A
C152   Cl180   1.770   .     S
C152   C154    1.405   .     A
C153   N181    1.438   .     S
C153   C155    1.409   .     A
C154   N184    1.437   .     S
C154   C156    1.410   .     A
C155   C342    1.463   1_545 S
C156   C341    1.463   .     S
C157   C161    1.406   .     A
C157   H159    1.081   .     S
C157   C175    1.411   .     A
C158   H160    1.081   .     S
C158   C176    1.411   .     A
C158   C162    1.406   .     A
C161   H163    1.081   .     S
C161   N165    1.364   .     A
C162   H164    1.081   .     S
C162   N166    1.364   .     A
N165   C167    1.363   .     A
N166   C168    1.364   .     A
C167   H169    1.081   .     S
C167   C171    1.407   .     A
C168   C172    1.406   .     A
C168   H170    1.081   .     S
C171   H173    1.081   .     S
C171   C175    1.411   .     A
C172   H174    1.081   .     S
C172   C176    1.411   .     A
C175   C548    1.515   1_554 S
C176   C547    1.515   .     S
Cl177  C15     1.778   1_655 S
N181   O183    1.301   .     A
N181   O368    1.301   1_545 S
O182   N367    1.301   .     S
N184   O186    1.301   .     A
N184   O371    1.301   .     S
O185   N370    1.301   1_545 S
O187   C191    1.295   .     A
O187   Cu199   1.952   .     S
O188   C192    1.294   .     A
O188   Cu200   1.952   .     S
O189   Cu200   1.957   .     S
O189   C191    1.290   .     A
O190   C192    1.290   .     A
O190   Cu199   1.957   .     S
C191   C211    1.465   .     S
C192   C212    1.462   .     S
O193   Cu199   1.974   .     S
O193   C197    1.280   .     A
O194   C198    1.280   .     A
O194   Cu200   1.974   .     S
O195   Cu200   1.973   .     S
O195   C197    1.290   .     A
O196   C198    1.290   .     A
O196   Cu199   1.973   .     S
C197   C201    1.433   .     S
C198   C202    1.433   .     S
Cu199  Cu200   2.671   .     S
Cu199  N228    2.007   .     S
Cu200  N227    2.007   .     S
C201   C326    1.355   1_455 S
C201   Cl363   1.778   1_455 S
C202   C263    1.355   .     S
C202   Cl302   1.778   .     S
C203   C217    1.397   .     A
C203   H205    1.084   .     S
C203   C207    1.386   .     A
C204   C208    1.386   .     A
C204   C218    1.398   .     A
C204   H206    1.084   .     S
C207   H209    1.084   .     S
C207   C211    1.400   .     A
C208   H210    1.084   .     S
C208   C212    1.399   .     A
C211   C213    1.416   .     A
C212   C214    1.414   .     A
C213   Cl241   1.770   .     S
C213   C215    1.405   .     A
C214   Cl242   1.770   .     S
C214   C216    1.405   .     A
C215   N243    1.438   .     S
C215   C217    1.409   .     A
C216   N246    1.437   .     S
C216   C218    1.410   .     A
C218   C31     1.463   1_565 S
C219   C223    1.406   .     A
C219   H221    1.081   .     S
C219   C237    1.411   .     A
C220   H222    1.081   .     S
C220   C238    1.411   .     A
C220   C224    1.406   .     A
C223   H225    1.081   .     S
C223   N227    1.364   .     A
C224   H226    1.081   .     S
C224   N228    1.364   .     A
N227   C229    1.363   .     A
N228   C230    1.364   .     A
C229   H231    1.081   .     S
C229   C233    1.407   .     A
C230   C234    1.406   .     A
C230   H232    1.081   .     S
C233   H235    1.081   .     S
C233   C237    1.411   .     A
C234   H236    1.081   .     S
C234   C238    1.411   .     A
C237   C610    1.515   1_554 S
C238   C609    1.515   .     S
Cl239  C263    1.778   .     S
Cl240  C326    1.778   1_455 S
N243   O245    1.301   .     A
O244   N57     1.301   1_565 S
N246   O248    1.301   .     A
N246   O61     1.301   1_565 S
O249   C253    1.295   .     A
O249   Cu261   1.952   .     S
O250   C254    1.294   .     A
O250   Cu262   1.952   .     S
O251   Cu262   1.957   .     S
O251   C253    1.290   .     A
O252   C254    1.290   .     A
O252   Cu261   1.957   .     S
C253   C273    1.465   .     S
C254   C274    1.462   .     S
O255   Cu261   1.974   .     S
O255   C259    1.280   .     A
O256   C260    1.280   .     A
O256   Cu262   1.974   .     S
O257   Cu262   1.973   .     S
O257   C259    1.290   .     A
O258   C260    1.290   .     A
O258   Cu261   1.973   .     S
C259   C263    1.433   .     S
C260   C264    1.433   .     S
Cu261  Cu262   2.671   .     S
Cu261  N290    2.007   .     S
Cu262  N289    2.007   .     S
C264   C325    1.355   .     S
C264   Cl364   1.778   .     S
C265   C279    1.397   .     A
C265   H267    1.084   .     S
C265   C269    1.386   .     A
C266   C270    1.386   .     A
C266   C280    1.398   .     A
C266   H268    1.084   .     S
C269   H271    1.084   .     S
C269   C273    1.400   .     A
C270   H272    1.084   .     S
C270   C274    1.399   .     A
C273   C275    1.416   .     A
C274   C276    1.414   .     A
C275   Cl303   1.770   .     S
C275   C277    1.405   .     A
C276   Cl304   1.770   .     S
C276   C278    1.405   .     A
C277   N305    1.438   .     S
C277   C279    1.409   .     A
C278   N308    1.437   .     S
C278   C280    1.410   .     A
C280   C93     1.463   1_565 S
C281   C285    1.406   .     A
C281   H283    1.081   .     S
C281   C299    1.411   .     A
C282   H284    1.081   .     S
C282   C300    1.411   .     A
C282   C286    1.406   .     A
C285   H287    1.081   .     S
C285   N289    1.364   .     A
C286   H288    1.081   .     S
C286   N290    1.364   .     A
N289   C291    1.363   .     A
N290   C292    1.364   .     A
C291   H293    1.081   .     S
C291   C295    1.407   .     A
C292   C296    1.406   .     A
C292   H294    1.081   .     S
C295   H297    1.081   .     S
C295   C299    1.411   .     A
C296   H298    1.081   .     S
C296   C300    1.411   .     A
C299   C672    1.515   1_554 S
C300   C671    1.515   .     S
Cl301  C325    1.778   .     S
N305   O307    1.301   .     A
O306   N119    1.301   1_565 S
N308   O310    1.301   .     A
N308   O123    1.301   1_565 S
O311   C315    1.295   .     A
O311   Cu323   1.952   .     S
O312   C316    1.294   .     A
O312   Cu324   1.952   .     S
O313   Cu324   1.957   .     S
O313   C315    1.290   .     A
O314   C316    1.290   .     A
O314   Cu323   1.957   .     S
C315   C335    1.465   .     S
C316   C336    1.462   .     S
O317   Cu323   1.974   .     S
O317   C321    1.280   .     A
O318   C322    1.280   .     A
O318   Cu324   1.974   .     S
O319   Cu324   1.973   .     S
O319   C321    1.290   .     A
O320   C322    1.290   .     A
O320   Cu323   1.973   .     S
C321   C325    1.433   .     S
C322   C326    1.433   .     S
Cu323  Cu324   2.671   .     S
Cu323  N352    2.007   .     S
Cu324  N351    2.007   .     S
C326   C201    1.355   1_655 S
C326   Cl240   1.778   1_655 S
C327   C341    1.397   .     A
C327   H329    1.084   .     S
C327   C331    1.386   .     A
C328   C332    1.386   .     A
C328   C342    1.398   .     A
C328   H330    1.084   .     S
C331   H333    1.084   .     S
C331   C335    1.400   .     A
C332   H334    1.084   .     S
C332   C336    1.399   .     A
C335   C337    1.416   .     A
C336   C338    1.414   .     A
C337   Cl365   1.770   .     S
C337   C339    1.405   .     A
C338   Cl366   1.770   .     S
C338   C340    1.405   .     A
C339   N367    1.438   .     S
C339   C341    1.409   .     A
C340   N370    1.437   .     S
C340   C342    1.410   .     A
C342   C155    1.463   1_565 S
C343   C347    1.406   .     A
C343   H345    1.081   .     S
C343   C361    1.411   .     A
C344   H346    1.081   .     S
C344   C362    1.411   .     A
C344   C348    1.406   .     A
C347   H349    1.081   .     S
C347   N351    1.364   .     A
C348   H350    1.081   .     S
C348   N352    1.364   .     A
N351   C353    1.363   .     A
N352   C354    1.364   .     A
C353   H355    1.081   .     S
C353   C357    1.407   .     A
C354   C358    1.406   .     A
C354   H356    1.081   .     S
C357   H359    1.081   .     S
C357   C361    1.411   .     A
C358   H360    1.081   .     S
C358   C362    1.411   .     A
C361   C734    1.515   1_554 S
C362   C733    1.515   .     S
Cl363  C201    1.778   1_655 S
N367   O369    1.301   .     A
O368   N181    1.301   1_565 S
N370   O372    1.301   .     A
N370   O185    1.301   1_565 S
O373   C377    1.295   .     A
O373   Cu385   1.952   .     S
O374   C378    1.294   .     A
O374   Cu386   1.952   .     S
O375   Cu386   1.957   .     S
O375   C377    1.290   .     A
O376   C378    1.290   .     A
O376   Cu385   1.957   .     S
C377   C397    1.465   .     S
C378   C398    1.462   .     S
O379   Cu385   1.974   .     S
O379   C383    1.280   .     A
O380   C384    1.280   .     A
O380   Cu386   1.974   .     S
O381   Cu386   1.973   .     S
O381   C383    1.290   .     A
O382   C384    1.290   .     A
O382   Cu385   1.973   .     S
C383   C387    1.433   .     S
C384   C388    1.433   .     S
Cu385  Cu386   2.671   .     S
Cu385  N414    2.007   .     S
Cu386  N413    2.007   .     S
C387   C512    1.355   1_455 S
C387   Cl549   1.778   1_455 S
C388   C449    1.355   .     S
C388   Cl488   1.778   .     S
C389   C403    1.397   .     A
C389   H391    1.084   .     S
C389   C393    1.386   .     A
C390   C394    1.386   .     A
C390   C404    1.398   .     A
C390   H392    1.084   .     S
C393   H395    1.084   .     S
C393   C397    1.400   .     A
C394   H396    1.084   .     S
C394   C398    1.399   .     A
C397   C399    1.416   .     A
C398   C400    1.414   .     A
C399   Cl427   1.770   .     S
C399   C401    1.405   .     A
C400   Cl428   1.770   .     S
C400   C402    1.405   .     A
C401   N429    1.438   .     S
C401   C403    1.409   .     A
C402   N432    1.437   .     S
C402   C404    1.410   .     A
C403   C590    1.463   1_545 S
C404   C589    1.463   .     S
C405   C409    1.406   .     A
C405   H407    1.081   .     S
C405   C423    1.411   .     A
C406   H408    1.081   .     S
C406   C424    1.411   .     A
C406   C410    1.406   .     A
C409   H411    1.081   .     S
C409   N413    1.364   .     A
C410   H412    1.081   .     S
C410   N414    1.364   .     A
N413   C415    1.363   .     A
N414   C416    1.364   .     A
C415   H417    1.081   .     S
C415   C419    1.407   .     A
C416   C420    1.406   .     A
C416   H418    1.081   .     S
C419   H421    1.081   .     S
C419   C423    1.411   .     A
C420   H422    1.081   .     S
C420   C424    1.411   .     A
C424   C51     1.515   1_556 S
Cl425  C449    1.778   .     S
Cl426  C512    1.778   1_455 S
N429   O431    1.301   .     A
N429   O616    1.301   1_545 S
O430   N615    1.301   .     S
N432   O434    1.301   .     A
N432   O619    1.301   .     S
O433   N618    1.301   1_545 S
O435   C439    1.295   .     A
O435   Cu447   1.952   .     S
O436   C440    1.294   .     A
O436   Cu448   1.952   .     S
O437   Cu448   1.957   .     S
O437   C439    1.290   .     A
O438   C440    1.290   .     A
O438   Cu447   1.957   .     S
C439   C459    1.465   .     S
C440   C460    1.462   .     S
O441   Cu447   1.974   .     S
O441   C445    1.280   .     A
O442   C446    1.280   .     A
O442   Cu448   1.974   .     S
O443   Cu448   1.973   .     S
O443   C445    1.290   .     A
O444   C446    1.290   .     A
O444   Cu447   1.973   .     S
C445   C449    1.433   .     S
C446   C450    1.433   .     S
Cu447  Cu448   2.671   .     S
Cu447  N476    2.007   .     S
Cu448  N475    2.007   .     S
C450   C511    1.355   .     S
C450   Cl550   1.778   .     S
C451   C465    1.397   .     A
C451   H453    1.084   .     S
C451   C455    1.386   .     A
C452   C456    1.386   .     A
C452   C466    1.398   .     A
C452   H454    1.084   .     S
C455   H457    1.084   .     S
C455   C459    1.400   .     A
C456   H458    1.084   .     S
C456   C460    1.399   .     A
C459   C461    1.416   .     A
C460   C462    1.414   .     A
C461   Cl489   1.770   .     S
C461   C463    1.405   .     A
C462   Cl490   1.770   .     S
C462   C464    1.405   .     A
C463   N491    1.438   .     S
C463   C465    1.409   .     A
C464   N494    1.437   .     S
C464   C466    1.410   .     A
C465   C652    1.463   1_545 S
C466   C651    1.463   .     S
C467   C471    1.406   .     A
C467   H469    1.081   .     S
C467   C485    1.411   .     A
C468   H470    1.081   .     S
C468   C486    1.411   .     A
C468   C472    1.406   .     A
C471   H473    1.081   .     S
C471   N475    1.364   .     A
C472   H474    1.081   .     S
C472   N476    1.364   .     A
N475   C477    1.363   .     A
N476   C478    1.364   .     A
C477   H479    1.081   .     S
C477   C481    1.407   .     A
C478   C482    1.406   .     A
C478   H480    1.081   .     S
C481   H483    1.081   .     S
C481   C485    1.411   .     A
C482   H484    1.081   .     S
C482   C486    1.411   .     A
C486   C113    1.515   1_556 S
Cl487  C511    1.778   .     S
N491   O493    1.301   .     A
N491   O678    1.301   1_545 S
O492   N677    1.301   .     S
N494   O496    1.301   .     A
N494   O681    1.301   .     S
O495   N680    1.301   1_545 S
O497   C501    1.295   .     A
O497   Cu509   1.952   .     S
O498   C502    1.294   .     A
O498   Cu510   1.952   .     S
O499   Cu510   1.957   .     S
O499   C501    1.290   .     A
O500   C502    1.290   .     A
O500   Cu509   1.957   .     S
C501   C521    1.465   .     S
C502   C522    1.462   .     S
O503   Cu509   1.974   .     S
O503   C507    1.280   .     A
O504   C508    1.280   .     A
O504   Cu510   1.974   .     S
O505   Cu510   1.973   .     S
O505   C507    1.290   .     A
O506   C508    1.290   .     A
O506   Cu509   1.973   .     S
C507   C511    1.433   .     S
C508   C512    1.433   .     S
Cu509  Cu510   2.671   .     S
Cu509  N538    2.007   .     S
Cu510  N537    2.007   .     S
C512   C387    1.355   1_655 S
C512   Cl426   1.778   1_655 S
C513   C527    1.397   .     A
C513   H515    1.084   .     S
C513   C517    1.386   .     A
C514   C518    1.386   .     A
C514   C528    1.398   .     A
C514   H516    1.084   .     S
C517   H519    1.084   .     S
C517   C521    1.400   .     A
C518   H520    1.084   .     S
C518   C522    1.399   .     A
C521   C523    1.416   .     A
C522   C524    1.414   .     A
C523   Cl551   1.770   .     S
C523   C525    1.405   .     A
C524   Cl552   1.770   .     S
C524   C526    1.405   .     A
C525   N553    1.438   .     S
C525   C527    1.409   .     A
C526   N556    1.437   .     S
C526   C528    1.410   .     A
C527   C714    1.463   1_545 S
C528   C713    1.463   .     S
C529   C533    1.406   .     A
C529   H531    1.081   .     S
C529   C547    1.411   .     A
C530   H532    1.081   .     S
C530   C548    1.411   .     A
C530   C534    1.406   .     A
C533   H535    1.081   .     S
C533   N537    1.364   .     A
C534   H536    1.081   .     S
C534   N538    1.364   .     A
N537   C539    1.363   .     A
N538   C540    1.364   .     A
C539   H541    1.081   .     S
C539   C543    1.407   .     A
C540   C544    1.406   .     A
C540   H542    1.081   .     S
C543   H545    1.081   .     S
C543   C547    1.411   .     A
C544   H546    1.081   .     S
C544   C548    1.411   .     A
C548   C175    1.515   1_556 S
Cl549  C387    1.778   1_655 S
N553   O555    1.301   .     A
N553   O740    1.301   1_545 S
O554   N739    1.301   .     S
N556   O558    1.301   .     A
N556   O743    1.301   .     S
O557   N742    1.301   1_545 S
O559   C563    1.295   .     A
O559   Cu571   1.952   .     S
O560   C564    1.294   .     A
O560   Cu572   1.952   .     S
O561   Cu572   1.957   .     S
O561   C563    1.290   .     A
O562   C564    1.290   .     A
O562   Cu571   1.957   .     S
C563   C583    1.465   .     S
C564   C584    1.462   .     S
O565   Cu571   1.974   .     S
O565   C569    1.280   .     A
O566   C570    1.280   .     A
O566   Cu572   1.974   .     S
O567   Cu572   1.973   .     S
O567   C569    1.290   .     A
O568   C570    1.290   .     A
O568   Cu571   1.973   .     S
C569   C573    1.433   .     S
C570   C574    1.433   .     S
Cu571  Cu572   2.671   .     S
Cu571  N600    2.007   .     S
Cu572  N599    2.007   .     S
C573   C698    1.355   1_455 S
C573   Cl735   1.778   1_455 S
C574   C635    1.355   .     S
C574   Cl674   1.778   .     S
C575   C589    1.397   .     A
C575   H577    1.084   .     S
C575   C579    1.386   .     A
C576   C580    1.386   .     A
C576   C590    1.398   .     A
C576   H578    1.084   .     S
C579   H581    1.084   .     S
C579   C583    1.400   .     A
C580   H582    1.084   .     S
C580   C584    1.399   .     A
C583   C585    1.416   .     A
C584   C586    1.414   .     A
C585   Cl613   1.770   .     S
C585   C587    1.405   .     A
C586   Cl614   1.770   .     S
C586   C588    1.405   .     A
C587   N615    1.438   .     S
C587   C589    1.409   .     A
C588   N618    1.437   .     S
C588   C590    1.410   .     A
C590   C403    1.463   1_565 S
C591   C595    1.406   .     A
C591   H593    1.081   .     S
C591   C609    1.411   .     A
C592   H594    1.081   .     S
C592   C610    1.411   .     A
C592   C596    1.406   .     A
C595   H597    1.081   .     S
C595   N599    1.364   .     A
C596   H598    1.081   .     S
C596   N600    1.364   .     A
N599   C601    1.363   .     A
N600   C602    1.364   .     A
C601   H603    1.081   .     S
C601   C605    1.407   .     A
C602   C606    1.406   .     A
C602   H604    1.081   .     S
C605   H607    1.081   .     S
C605   C609    1.411   .     A
C606   H608    1.081   .     S
C606   C610    1.411   .     A
C610   C237    1.515   1_556 S
Cl611  C635    1.778   .     S
Cl612  C698    1.778   1_455 S
N615   O617    1.301   .     A
O616   N429    1.301   1_565 S
N618   O620    1.301   .     A
N618   O433    1.301   1_565 S
O621   C625    1.295   .     A
O621   Cu633   1.952   .     S
O622   C626    1.294   .     A
O622   Cu634   1.952   .     S
O623   Cu634   1.957   .     S
O623   C625    1.290   .     A
O624   C626    1.290   .     A
O624   Cu633   1.957   .     S
C625   C645    1.465   .     S
C626   C646    1.462   .     S
O627   Cu633   1.974   .     S
O627   C631    1.280   .     A
O628   C632    1.280   .     A
O628   Cu634   1.974   .     S
O629   Cu634   1.973   .     S
O629   C631    1.290   .     A
O630   C632    1.290   .     A
O630   Cu633   1.973   .     S
C631   C635    1.433   .     S
C632   C636    1.433   .     S
Cu633  Cu634   2.671   .     S
Cu633  N662    2.007   .     S
Cu634  N661    2.007   .     S
C636   C697    1.355   .     S
C636   Cl736   1.778   .     S
C637   C651    1.397   .     A
C637   H639    1.084   .     S
C637   C641    1.386   .     A
C638   C642    1.386   .     A
C638   C652    1.398   .     A
C638   H640    1.084   .     S
C641   H643    1.084   .     S
C641   C645    1.400   .     A
C642   H644    1.084   .     S
C642   C646    1.399   .     A
C645   C647    1.416   .     A
C646   C648    1.414   .     A
C647   Cl675   1.770   .     S
C647   C649    1.405   .     A
C648   Cl676   1.770   .     S
C648   C650    1.405   .     A
C649   N677    1.438   .     S
C649   C651    1.409   .     A
C650   N680    1.437   .     S
C650   C652    1.410   .     A
C652   C465    1.463   1_565 S
C653   C657    1.406   .     A
C653   H655    1.081   .     S
C653   C671    1.411   .     A
C654   H656    1.081   .     S
C654   C672    1.411   .     A
C654   C658    1.406   .     A
C657   H659    1.081   .     S
C657   N661    1.364   .     A
C658   H660    1.081   .     S
C658   N662    1.364   .     A
N661   C663    1.363   .     A
N662   C664    1.364   .     A
C663   H665    1.081   .     S
C663   C667    1.407   .     A
C664   C668    1.406   .     A
C664   H666    1.081   .     S
C667   H669    1.081   .     S
C667   C671    1.411   .     A
C668   H670    1.081   .     S
C668   C672    1.411   .     A
C672   C299    1.515   1_556 S
Cl673  C697    1.778   .     S
N677   O679    1.301   .     A
O678   N491    1.301   1_565 S
N680   O682    1.301   .     A
N680   O495    1.301   1_565 S
O683   C687    1.295   .     A
O683   Cu695   1.952   .     S
O684   C688    1.294   .     A
O684   Cu696   1.952   .     S
O685   Cu696   1.957   .     S
O685   C687    1.290   .     A
O686   C688    1.290   .     A
O686   Cu695   1.957   .     S
C687   C707    1.465   .     S
C688   C708    1.462   .     S
O689   Cu695   1.974   .     S
O689   C693    1.280   .     A
O690   C694    1.280   .     A
O690   Cu696   1.974   .     S
O691   Cu696   1.973   .     S
O691   C693    1.290   .     A
O692   C694    1.290   .     A
O692   Cu695   1.973   .     S
C693   C697    1.433   .     S
C694   C698    1.433   .     S
Cu695  Cu696   2.671   .     S
Cu695  N724    2.007   .     S
Cu696  N723    2.007   .     S
C698   C573    1.355   1_655 S
C698   Cl612   1.778   1_655 S
C699   C713    1.397   .     A
C699   H701    1.084   .     S
C699   C703    1.386   .     A
C700   C704    1.386   .     A
C700   C714    1.398   .     A
C700   H702    1.084   .     S
C703   H705    1.084   .     S
C703   C707    1.400   .     A
C704   H706    1.084   .     S
C704   C708    1.399   .     A
C707   C709    1.416   .     A
C708   C710    1.414   .     A
C709   Cl737   1.770   .     S
C709   C711    1.405   .     A
C710   Cl738   1.770   .     S
C710   C712    1.405   .     A
C711   N739    1.438   .     S
C711   C713    1.409   .     A
C712   N742    1.437   .     S
C712   C714    1.410   .     A
C714   C527    1.463   1_565 S
C715   C719    1.406   .     A
C715   H717    1.081   .     S
C715   C733    1.411   .     A
C716   H718    1.081   .     S
C716   C734    1.411   .     A
C716   C720    1.406   .     A
C719   H721    1.081   .     S
C719   N723    1.364   .     A
C720   H722    1.081   .     S
C720   N724    1.364   .     A
N723   C725    1.363   .     A
N724   C726    1.364   .     A
C725   H727    1.081   .     S
C725   C729    1.407   .     A
C726   C730    1.406   .     A
C726   H728    1.081   .     S
C729   H731    1.081   .     S
C729   C733    1.411   .     A
C730   H732    1.081   .     S
C730   C734    1.411   .     A
C734   C361    1.515   1_556 S
Cl735  C573    1.778   1_655 S
N739   O741    1.301   .     A
O740   N553    1.301   1_565 S
N742   O744    1.301   .     A
N742   O557    1.301   1_565 S
