data_str_m2_o1_o18_pcu_sym.97
_audit_creation_date              2020-01-03
_audit_creation_method            'Materials Studio'
_symmetry_space_group_name_H-M    'P1'
_symmetry_Int_Tables_number       1
_symmetry_cell_setting            triclinic
loop_
_symmetry_equiv_pos_as_xyz
  x,y,z
_cell_length_a                    28.5789
_cell_length_b                    32.3937
_cell_length_c                    30.9935
_cell_angle_alpha                 89.9193
_cell_angle_beta                  74.4918
_cell_angle_gamma                 90.1349
loop_
_atom_site_label
_atom_site_type_symbol
_atom_site_fract_x
_atom_site_fract_y
_atom_site_fract_z
_atom_site_U_iso_or_equiv
_atom_site_adp_type
_atom_site_occupancy
C1     C     0.33287   0.08745   0.25135   0.00000  Uiso   1.00
C2     C     0.00046   0.24589   0.24866   0.00000  Uiso   1.00
C3     C     0.19208   0.19174   0.04457   0.00000  Uiso   1.00
C4     C     0.13818   0.15974   0.45268   0.00000  Uiso   1.00
C5     C     0.24053   0.19722   0.02182   0.00000  Uiso   1.00
C6     C     0.08959   0.15500   0.47528   0.00000  Uiso   1.00
C7     C     0.30772   0.02233   0.22526   0.00000  Uiso   1.00
C8     C     0.02561   0.31100   0.27476   0.00000  Uiso   1.00
C9     C     0.30919   0.31302   0.22178   0.00000  Uiso   1.00
C10    C     0.02414   0.02031   0.27823   0.00000  Uiso   1.00
C11    C     0.00106   0.29052   0.24757   0.00000  Uiso   1.00
C12    C     0.33227   0.04281   0.25244   0.00000  Uiso   1.00
C13    C     0.18268   0.14311   0.27994   0.00000  Uiso   1.00
C14    C     0.15066   0.19023   0.22006   0.00000  Uiso   1.00
C15    C     0.13309   0.14314   0.27996   0.00000  Uiso   1.00
C16    C     0.20025   0.19019   0.22005   0.00000  Uiso   1.00
C17    C     0.30610   0.16716   0.33604   0.00000  Uiso   1.00
C18    C     0.02724   0.16660   0.16393   0.00000  Uiso   1.00
C19    C     0.29097   0.17126   0.38490   0.00000  Uiso   1.00
C20    C     0.04219   0.16589   0.11481   0.00000  Uiso   1.00
C21    C     0.30610   0.19392   0.45415   0.00000  Uiso   1.00
C22    C     0.02499   0.15347   0.04376   0.00000  Uiso   1.00
C23    C     0.32306   0.18564   0.40858   0.00000  Uiso   1.00
C24    C     0.00900   0.15691   0.09012   0.00000  Uiso   1.00
C25    C     0.24226   0.16421   0.40733   0.00000  Uiso   1.00
C26    C     0.09105   0.17277   0.09263   0.00000  Uiso   1.00
C27    C     0.22372   0.17390   0.45290   0.00000  Uiso   1.00
C28    C     0.10800   0.17051   0.04574   0.00000  Uiso   1.00
C29    C     0.25685   0.18822   0.47643   0.00000  Uiso   1.00
C30    C     0.07413   0.15977   0.02148   0.00000  Uiso   1.00
C31    C     0.17343   0.16991   0.47556   0.00000  Uiso   1.00
C32    C     0.15772   0.17728   0.02254   0.00000  Uiso   1.00
Cu33   Cu    0.04689   0.16667   0.25000   0.00000  Uiso   1.00
Cu34   Cu    0.28645   0.16666   0.25000   0.00000  Uiso   1.00
H35    H     0.26547   0.20861   0.04000   0.00000  Uiso   1.00
H36    H     0.06397   0.14700   0.45638   0.00000  Uiso   1.00
H37    H     0.11544   0.17862   0.11299   0.00000  Uiso   1.00
H38    H     0.21964   0.15108   0.38818   0.00000  Uiso   1.00
H39    H     0.30438   0.15139   0.10669   0.00000  Uiso   1.00
H40    H     0.02753   0.19151   0.39172   0.00000  Uiso   1.00
H41    H     0.33131   0.20562   0.47184   0.00000  Uiso   1.00
H42    H     0.33237   0.14519   0.02535   0.00000  Uiso   1.00
H43    H     0.18268   0.20037   0.07935   0.00000  Uiso   1.00
H44    H     0.14651   0.15609   0.41693   0.00000  Uiso   1.00
H45    H     0.28894   0.03969   0.20506   0.00000  Uiso   1.00
H46    H     0.04438   0.29364   0.29496   0.00000  Uiso   1.00
H47    H     0.19429   0.12414   0.30389   0.00000  Uiso   1.00
H48    H     0.13904   0.20920   0.19611   0.00000  Uiso   1.00
H49    H     0.10739   0.12426   0.30392   0.00000  Uiso   1.00
H50    H     0.22595   0.20908   0.19608   0.00000  Uiso   1.00
N51    N     0.11736   0.16668   0.24999   0.00000  Uiso   1.00
N52    N     0.21597   0.16666   0.25001   0.00000  Uiso   1.00
O53    O     0.03958   0.10655   0.25000   0.00000  Uiso   1.00
O54    O     0.29375   0.22678   0.25000   0.00000  Uiso   1.00
O55    O     0.29372   0.10654   0.25001   0.00000  Uiso   1.00
O56    O     0.03961   0.22679   0.25000   0.00000  Uiso   1.00
O57    O     0.01852   0.16668   0.31492   0.00000  Uiso   1.00
O58    O     0.31481   0.16666   0.18509   0.00000  Uiso   1.00
O59    O     0.27267   0.16667   0.31492   0.00000  Uiso   1.00
O60    O     0.06067   0.16667   0.18508   0.00000  Uiso   1.00
O61    O     0.28691   0.29501   0.19206   0.00000  Uiso   1.00
H62    H     0.30211   0.26792   0.18259   0.00000  Uiso   1.00
O63    O     0.04644   0.03832   0.30793   0.00000  Uiso   1.00
H64    H     0.03128   0.06542   0.31738   0.00000  Uiso   1.00
C65    C     0.66621   0.08745   0.25135   0.00000  Uiso   1.00
C66    C     0.33379   0.24589   0.24866   0.00000  Uiso   1.00
C67    C     0.52542   0.19174   0.04457   0.00000  Uiso   1.00
C68    C     0.47151   0.15974   0.45268   0.00000  Uiso   1.00
C69    C     0.57386   0.19722   0.02182   0.00000  Uiso   1.00
C70    C     0.42292   0.15500   0.47528   0.00000  Uiso   1.00
C71    C     0.64105   0.02233   0.22526   0.00000  Uiso   1.00
C72    C     0.35894   0.31100   0.27476   0.00000  Uiso   1.00
C73    C     0.64252   0.31302   0.22178   0.00000  Uiso   1.00
C74    C     0.35748   0.02031   0.27823   0.00000  Uiso   1.00
C75    C     0.33439   0.29052   0.24757   0.00000  Uiso   1.00
C76    C     0.66561   0.04281   0.25244   0.00000  Uiso   1.00
C77    C     0.51601   0.14311   0.27994   0.00000  Uiso   1.00
C78    C     0.48399   0.19023   0.22006   0.00000  Uiso   1.00
C79    C     0.46642   0.14314   0.27996   0.00000  Uiso   1.00
C80    C     0.53358   0.19019   0.22005   0.00000  Uiso   1.00
C81    C     0.63943   0.16716   0.33604   0.00000  Uiso   1.00
C82    C     0.36057   0.16660   0.16393   0.00000  Uiso   1.00
C83    C     0.62431   0.17126   0.38490   0.00000  Uiso   1.00
C84    C     0.37552   0.16589   0.11481   0.00000  Uiso   1.00
C85    C     0.63943   0.19392   0.45415   0.00000  Uiso   1.00
C86    C     0.35833   0.15347   0.04376   0.00000  Uiso   1.00
C87    C     0.65640   0.18564   0.40858   0.00000  Uiso   1.00
C88    C     0.34234   0.15691   0.09012   0.00000  Uiso   1.00
C89    C     0.57560   0.16421   0.40733   0.00000  Uiso   1.00
C90    C     0.42439   0.17277   0.09263   0.00000  Uiso   1.00
C91    C     0.55706   0.17390   0.45290   0.00000  Uiso   1.00
C92    C     0.44133   0.17051   0.04574   0.00000  Uiso   1.00
C93    C     0.59018   0.18822   0.47643   0.00000  Uiso   1.00
C94    C     0.40746   0.15977   0.02148   0.00000  Uiso   1.00
C95    C     0.50676   0.16991   0.47556   0.00000  Uiso   1.00
C96    C     0.49105   0.17728   0.02254   0.00000  Uiso   1.00
Cu97   Cu    0.38022   0.16667   0.25000   0.00000  Uiso   1.00
Cu98   Cu    0.61978   0.16666   0.25000   0.00000  Uiso   1.00
H99    H     0.59880   0.20861   0.04000   0.00000  Uiso   1.00
H100   H     0.39731   0.14700   0.45638   0.00000  Uiso   1.00
H101   H     0.44877   0.17862   0.11299   0.00000  Uiso   1.00
H102   H     0.55297   0.15108   0.38818   0.00000  Uiso   1.00
H103   H     0.63771   0.15139   0.10669   0.00000  Uiso   1.00
H104   H     0.36087   0.19151   0.39172   0.00000  Uiso   1.00
H105   H     0.66465   0.20562   0.47184   0.00000  Uiso   1.00
H106   H     0.66570   0.14519   0.02535   0.00000  Uiso   1.00
H107   H     0.51601   0.20037   0.07935   0.00000  Uiso   1.00
H108   H     0.47984   0.15609   0.41693   0.00000  Uiso   1.00
H109   H     0.62227   0.03969   0.20506   0.00000  Uiso   1.00
H110   H     0.37771   0.29364   0.29496   0.00000  Uiso   1.00
H111   H     0.52763   0.12414   0.30389   0.00000  Uiso   1.00
H112   H     0.47237   0.20920   0.19611   0.00000  Uiso   1.00
H113   H     0.44072   0.12426   0.30392   0.00000  Uiso   1.00
H114   H     0.55928   0.20908   0.19608   0.00000  Uiso   1.00
N115   N     0.45069   0.16668   0.24999   0.00000  Uiso   1.00
N116   N     0.54931   0.16666   0.25001   0.00000  Uiso   1.00
O117   O     0.37291   0.10655   0.25000   0.00000  Uiso   1.00
O118   O     0.62709   0.22678   0.25000   0.00000  Uiso   1.00
O119   O     0.62706   0.10654   0.25001   0.00000  Uiso   1.00
O120   O     0.37294   0.22679   0.25000   0.00000  Uiso   1.00
O121   O     0.35186   0.16668   0.31492   0.00000  Uiso   1.00
O122   O     0.64814   0.16666   0.18509   0.00000  Uiso   1.00
O123   O     0.60600   0.16667   0.31492   0.00000  Uiso   1.00
O124   O     0.39400   0.16667   0.18508   0.00000  Uiso   1.00
O125   O     0.62024   0.29501   0.19206   0.00000  Uiso   1.00
H126   H     0.63544   0.26792   0.18259   0.00000  Uiso   1.00
O127   O     0.37977   0.03832   0.30793   0.00000  Uiso   1.00
H128   H     0.36462   0.06542   0.31738   0.00000  Uiso   1.00
C129   C     0.99954   0.08745   0.25135   0.00000  Uiso   1.00
C130   C     0.66713   0.24589   0.24866   0.00000  Uiso   1.00
C131   C     0.85875   0.19174   0.04457   0.00000  Uiso   1.00
C132   C     0.80484   0.15974   0.45268   0.00000  Uiso   1.00
C133   C     0.90720   0.19722   0.02182   0.00000  Uiso   1.00
C134   C     0.75625   0.15500   0.47528   0.00000  Uiso   1.00
C135   C     0.97438   0.02233   0.22526   0.00000  Uiso   1.00
C136   C     0.69227   0.31100   0.27476   0.00000  Uiso   1.00
C137   C     0.97586   0.31302   0.22178   0.00000  Uiso   1.00
C138   C     0.69081   0.02031   0.27823   0.00000  Uiso   1.00
C139   C     0.66773   0.29052   0.24757   0.00000  Uiso   1.00
C140   C     0.99894   0.04281   0.25244   0.00000  Uiso   1.00
C141   C     0.84934   0.14311   0.27994   0.00000  Uiso   1.00
C142   C     0.81732   0.19023   0.22006   0.00000  Uiso   1.00
C143   C     0.79975   0.14314   0.27996   0.00000  Uiso   1.00
C144   C     0.86691   0.19019   0.22005   0.00000  Uiso   1.00
C145   C     0.97277   0.16716   0.33604   0.00000  Uiso   1.00
C146   C     0.69390   0.16660   0.16393   0.00000  Uiso   1.00
C147   C     0.95764   0.17126   0.38490   0.00000  Uiso   1.00
C148   C     0.70886   0.16589   0.11481   0.00000  Uiso   1.00
C149   C     0.97276   0.19392   0.45415   0.00000  Uiso   1.00
C150   C     0.69166   0.15347   0.04376   0.00000  Uiso   1.00
C151   C     0.98973   0.18564   0.40858   0.00000  Uiso   1.00
C152   C     0.67567   0.15691   0.09012   0.00000  Uiso   1.00
C153   C     0.90893   0.16421   0.40733   0.00000  Uiso   1.00
C154   C     0.75772   0.17277   0.09263   0.00000  Uiso   1.00
C155   C     0.89039   0.17390   0.45290   0.00000  Uiso   1.00
C156   C     0.77466   0.17051   0.04574   0.00000  Uiso   1.00
C157   C     0.92352   0.18822   0.47643   0.00000  Uiso   1.00
C158   C     0.74080   0.15977   0.02148   0.00000  Uiso   1.00
C159   C     0.84009   0.16991   0.47556   0.00000  Uiso   1.00
C160   C     0.82439   0.17728   0.02254   0.00000  Uiso   1.00
Cu161  Cu    0.71355   0.16667   0.25000   0.00000  Uiso   1.00
Cu162  Cu    0.95311   0.16666   0.25000   0.00000  Uiso   1.00
H163   H     0.93213   0.20861   0.04000   0.00000  Uiso   1.00
H164   H     0.73064   0.14700   0.45638   0.00000  Uiso   1.00
H165   H     0.78211   0.17862   0.11299   0.00000  Uiso   1.00
H166   H     0.88630   0.15108   0.38818   0.00000  Uiso   1.00
H167   H     0.97105   0.15139   0.10669   0.00000  Uiso   1.00
H168   H     0.69420   0.19151   0.39172   0.00000  Uiso   1.00
H169   H     0.99798   0.20562   0.47184   0.00000  Uiso   1.00
H170   H     0.99903   0.14519   0.02535   0.00000  Uiso   1.00
H171   H     0.84935   0.20037   0.07935   0.00000  Uiso   1.00
H172   H     0.81317   0.15609   0.41693   0.00000  Uiso   1.00
H173   H     0.95560   0.03969   0.20506   0.00000  Uiso   1.00
H174   H     0.71105   0.29364   0.29496   0.00000  Uiso   1.00
H175   H     0.86096   0.12414   0.30389   0.00000  Uiso   1.00
H176   H     0.80570   0.20920   0.19611   0.00000  Uiso   1.00
H177   H     0.77405   0.12426   0.30392   0.00000  Uiso   1.00
H178   H     0.89261   0.20908   0.19608   0.00000  Uiso   1.00
N179   N     0.78403   0.16668   0.24999   0.00000  Uiso   1.00
N180   N     0.88264   0.16666   0.25001   0.00000  Uiso   1.00
O181   O     0.70625   0.10655   0.25000   0.00000  Uiso   1.00
O182   O     0.96042   0.22678   0.25000   0.00000  Uiso   1.00
O183   O     0.96039   0.10654   0.25001   0.00000  Uiso   1.00
O184   O     0.70628   0.22679   0.25000   0.00000  Uiso   1.00
O185   O     0.68519   0.16668   0.31492   0.00000  Uiso   1.00
O186   O     0.98148   0.16666   0.18509   0.00000  Uiso   1.00
O187   O     0.93933   0.16667   0.31492   0.00000  Uiso   1.00
O188   O     0.72733   0.16667   0.18508   0.00000  Uiso   1.00
O189   O     0.95358   0.29501   0.19206   0.00000  Uiso   1.00
H190   H     0.96878   0.26792   0.18259   0.00000  Uiso   1.00
O191   O     0.71310   0.03832   0.30793   0.00000  Uiso   1.00
H192   H     0.69795   0.06542   0.31738   0.00000  Uiso   1.00
C193   C     0.33287   0.42078   0.25135   0.00000  Uiso   1.00
C194   C     0.00046   0.57922   0.24866   0.00000  Uiso   1.00
C195   C     0.19208   0.52507   0.04457   0.00000  Uiso   1.00
C196   C     0.13818   0.49308   0.45268   0.00000  Uiso   1.00
C197   C     0.24053   0.53055   0.02182   0.00000  Uiso   1.00
C198   C     0.08959   0.48833   0.47528   0.00000  Uiso   1.00
C199   C     0.30772   0.35566   0.22526   0.00000  Uiso   1.00
C200   C     0.02561   0.64433   0.27476   0.00000  Uiso   1.00
C201   C     0.30919   0.64635   0.22178   0.00000  Uiso   1.00
C202   C     0.02414   0.35364   0.27823   0.00000  Uiso   1.00
C203   C     0.00106   0.62385   0.24757   0.00000  Uiso   1.00
C204   C     0.33227   0.37615   0.25244   0.00000  Uiso   1.00
C205   C     0.18268   0.47644   0.27994   0.00000  Uiso   1.00
C206   C     0.15066   0.52357   0.22006   0.00000  Uiso   1.00
C207   C     0.13309   0.47648   0.27996   0.00000  Uiso   1.00
C208   C     0.20025   0.52353   0.22005   0.00000  Uiso   1.00
C209   C     0.30610   0.50049   0.33604   0.00000  Uiso   1.00
C210   C     0.02724   0.49994   0.16393   0.00000  Uiso   1.00
C211   C     0.29097   0.50459   0.38490   0.00000  Uiso   1.00
C212   C     0.04219   0.49922   0.11481   0.00000  Uiso   1.00
C213   C     0.30610   0.52725   0.45415   0.00000  Uiso   1.00
C214   C     0.02499   0.48681   0.04376   0.00000  Uiso   1.00
C215   C     0.32306   0.51898   0.40858   0.00000  Uiso   1.00
C216   C     0.00900   0.49025   0.09012   0.00000  Uiso   1.00
C217   C     0.24226   0.49755   0.40733   0.00000  Uiso   1.00
C218   C     0.09105   0.50611   0.09263   0.00000  Uiso   1.00
C219   C     0.22372   0.50723   0.45290   0.00000  Uiso   1.00
C220   C     0.10800   0.50384   0.04574   0.00000  Uiso   1.00
C221   C     0.25685   0.52155   0.47643   0.00000  Uiso   1.00
C222   C     0.07413   0.49310   0.02148   0.00000  Uiso   1.00
C223   C     0.17343   0.50324   0.47556   0.00000  Uiso   1.00
C224   C     0.15772   0.51061   0.02254   0.00000  Uiso   1.00
Cu225  Cu    0.04689   0.50001   0.25000   0.00000  Uiso   1.00
Cu226  Cu    0.28645   0.49999   0.25000   0.00000  Uiso   1.00
H227   H     0.26547   0.54195   0.04000   0.00000  Uiso   1.00
H228   H     0.06397   0.48033   0.45638   0.00000  Uiso   1.00
H229   H     0.11544   0.51196   0.11299   0.00000  Uiso   1.00
H230   H     0.21964   0.48441   0.38818   0.00000  Uiso   1.00
H231   H     0.30438   0.48472   0.10669   0.00000  Uiso   1.00
H232   H     0.02753   0.52484   0.39172   0.00000  Uiso   1.00
H233   H     0.33131   0.53895   0.47184   0.00000  Uiso   1.00
H234   H     0.33237   0.47853   0.02535   0.00000  Uiso   1.00
H235   H     0.18268   0.53370   0.07935   0.00000  Uiso   1.00
H236   H     0.14651   0.48942   0.41693   0.00000  Uiso   1.00
H237   H     0.28894   0.37302   0.20506   0.00000  Uiso   1.00
H238   H     0.04438   0.62697   0.29496   0.00000  Uiso   1.00
H239   H     0.19429   0.45748   0.30389   0.00000  Uiso   1.00
H240   H     0.13904   0.54253   0.19611   0.00000  Uiso   1.00
H241   H     0.10739   0.45759   0.30392   0.00000  Uiso   1.00
H242   H     0.22595   0.54241   0.19608   0.00000  Uiso   1.00
N243   N     0.11736   0.50001   0.24999   0.00000  Uiso   1.00
N244   N     0.21597   0.49999   0.25001   0.00000  Uiso   1.00
O245   O     0.03958   0.43989   0.25000   0.00000  Uiso   1.00
O246   O     0.29375   0.56011   0.25000   0.00000  Uiso   1.00
O247   O     0.29372   0.43988   0.25001   0.00000  Uiso   1.00
O248   O     0.03961   0.56012   0.25000   0.00000  Uiso   1.00
O249   O     0.01852   0.50001   0.31492   0.00000  Uiso   1.00
O250   O     0.31481   0.49999   0.18509   0.00000  Uiso   1.00
O251   O     0.27267   0.50000   0.31492   0.00000  Uiso   1.00
O252   O     0.06067   0.50000   0.18508   0.00000  Uiso   1.00
O253   O     0.28691   0.62834   0.19206   0.00000  Uiso   1.00
H254   H     0.30211   0.60125   0.18259   0.00000  Uiso   1.00
O255   O     0.04644   0.37165   0.30793   0.00000  Uiso   1.00
H256   H     0.03128   0.39875   0.31738   0.00000  Uiso   1.00
C257   C     0.66621   0.42078   0.25135   0.00000  Uiso   1.00
C258   C     0.33379   0.57922   0.24866   0.00000  Uiso   1.00
C259   C     0.52542   0.52507   0.04457   0.00000  Uiso   1.00
C260   C     0.47151   0.49308   0.45268   0.00000  Uiso   1.00
C261   C     0.57386   0.53055   0.02182   0.00000  Uiso   1.00
C262   C     0.42292   0.48833   0.47528   0.00000  Uiso   1.00
C263   C     0.64105   0.35566   0.22526   0.00000  Uiso   1.00
C264   C     0.35894   0.64433   0.27476   0.00000  Uiso   1.00
C265   C     0.64252   0.64635   0.22178   0.00000  Uiso   1.00
C266   C     0.35748   0.35364   0.27823   0.00000  Uiso   1.00
C267   C     0.33439   0.62385   0.24757   0.00000  Uiso   1.00
C268   C     0.66561   0.37615   0.25244   0.00000  Uiso   1.00
C269   C     0.51601   0.47644   0.27994   0.00000  Uiso   1.00
C270   C     0.48399   0.52357   0.22006   0.00000  Uiso   1.00
C271   C     0.46642   0.47648   0.27996   0.00000  Uiso   1.00
C272   C     0.53358   0.52353   0.22005   0.00000  Uiso   1.00
C273   C     0.63943   0.50049   0.33604   0.00000  Uiso   1.00
C274   C     0.36057   0.49994   0.16393   0.00000  Uiso   1.00
C275   C     0.62431   0.50459   0.38490   0.00000  Uiso   1.00
C276   C     0.37552   0.49922   0.11481   0.00000  Uiso   1.00
C277   C     0.63943   0.52725   0.45415   0.00000  Uiso   1.00
C278   C     0.35833   0.48681   0.04376   0.00000  Uiso   1.00
C279   C     0.65640   0.51898   0.40858   0.00000  Uiso   1.00
C280   C     0.34234   0.49025   0.09012   0.00000  Uiso   1.00
C281   C     0.57560   0.49755   0.40733   0.00000  Uiso   1.00
C282   C     0.42439   0.50611   0.09263   0.00000  Uiso   1.00
C283   C     0.55706   0.50723   0.45290   0.00000  Uiso   1.00
C284   C     0.44133   0.50384   0.04574   0.00000  Uiso   1.00
C285   C     0.59018   0.52155   0.47643   0.00000  Uiso   1.00
C286   C     0.40746   0.49310   0.02148   0.00000  Uiso   1.00
C287   C     0.50676   0.50324   0.47556   0.00000  Uiso   1.00
C288   C     0.49105   0.51061   0.02254   0.00000  Uiso   1.00
Cu289  Cu    0.38022   0.50001   0.25000   0.00000  Uiso   1.00
Cu290  Cu    0.61978   0.49999   0.25000   0.00000  Uiso   1.00
H291   H     0.59880   0.54195   0.04000   0.00000  Uiso   1.00
H292   H     0.39731   0.48033   0.45638   0.00000  Uiso   1.00
H293   H     0.44877   0.51196   0.11299   0.00000  Uiso   1.00
H294   H     0.55297   0.48441   0.38818   0.00000  Uiso   1.00
H295   H     0.63771   0.48472   0.10669   0.00000  Uiso   1.00
H296   H     0.36087   0.52484   0.39172   0.00000  Uiso   1.00
H297   H     0.66465   0.53895   0.47184   0.00000  Uiso   1.00
H298   H     0.66570   0.47853   0.02535   0.00000  Uiso   1.00
H299   H     0.51601   0.53370   0.07935   0.00000  Uiso   1.00
H300   H     0.47984   0.48942   0.41693   0.00000  Uiso   1.00
H301   H     0.62227   0.37302   0.20506   0.00000  Uiso   1.00
H302   H     0.37771   0.62697   0.29496   0.00000  Uiso   1.00
H303   H     0.52763   0.45748   0.30389   0.00000  Uiso   1.00
H304   H     0.47237   0.54253   0.19611   0.00000  Uiso   1.00
H305   H     0.44072   0.45759   0.30392   0.00000  Uiso   1.00
H306   H     0.55928   0.54241   0.19608   0.00000  Uiso   1.00
N307   N     0.45069   0.50001   0.24999   0.00000  Uiso   1.00
N308   N     0.54931   0.49999   0.25001   0.00000  Uiso   1.00
O309   O     0.37291   0.43989   0.25000   0.00000  Uiso   1.00
O310   O     0.62709   0.56011   0.25000   0.00000  Uiso   1.00
O311   O     0.62706   0.43988   0.25001   0.00000  Uiso   1.00
O312   O     0.37294   0.56012   0.25000   0.00000  Uiso   1.00
O313   O     0.35186   0.50001   0.31492   0.00000  Uiso   1.00
O314   O     0.64814   0.49999   0.18509   0.00000  Uiso   1.00
O315   O     0.60600   0.50000   0.31492   0.00000  Uiso   1.00
O316   O     0.39400   0.50000   0.18508   0.00000  Uiso   1.00
O317   O     0.62024   0.62834   0.19206   0.00000  Uiso   1.00
H318   H     0.63544   0.60125   0.18259   0.00000  Uiso   1.00
O319   O     0.37977   0.37165   0.30793   0.00000  Uiso   1.00
H320   H     0.36462   0.39875   0.31738   0.00000  Uiso   1.00
C321   C     0.99954   0.42078   0.25135   0.00000  Uiso   1.00
C322   C     0.66713   0.57922   0.24866   0.00000  Uiso   1.00
C323   C     0.85875   0.52507   0.04457   0.00000  Uiso   1.00
C324   C     0.80484   0.49308   0.45268   0.00000  Uiso   1.00
C325   C     0.90720   0.53055   0.02182   0.00000  Uiso   1.00
C326   C     0.75625   0.48833   0.47528   0.00000  Uiso   1.00
C327   C     0.97438   0.35566   0.22526   0.00000  Uiso   1.00
C328   C     0.69227   0.64433   0.27476   0.00000  Uiso   1.00
C329   C     0.97586   0.64635   0.22178   0.00000  Uiso   1.00
C330   C     0.69081   0.35364   0.27823   0.00000  Uiso   1.00
C331   C     0.66773   0.62385   0.24757   0.00000  Uiso   1.00
C332   C     0.99894   0.37615   0.25244   0.00000  Uiso   1.00
C333   C     0.84934   0.47644   0.27994   0.00000  Uiso   1.00
C334   C     0.81732   0.52357   0.22006   0.00000  Uiso   1.00
C335   C     0.79975   0.47648   0.27996   0.00000  Uiso   1.00
C336   C     0.86691   0.52353   0.22005   0.00000  Uiso   1.00
C337   C     0.97277   0.50049   0.33604   0.00000  Uiso   1.00
C338   C     0.69390   0.49994   0.16393   0.00000  Uiso   1.00
C339   C     0.95764   0.50459   0.38490   0.00000  Uiso   1.00
C340   C     0.70886   0.49922   0.11481   0.00000  Uiso   1.00
C341   C     0.97276   0.52725   0.45415   0.00000  Uiso   1.00
C342   C     0.69166   0.48681   0.04376   0.00000  Uiso   1.00
C343   C     0.98973   0.51898   0.40858   0.00000  Uiso   1.00
C344   C     0.67567   0.49025   0.09012   0.00000  Uiso   1.00
C345   C     0.90893   0.49755   0.40733   0.00000  Uiso   1.00
C346   C     0.75772   0.50611   0.09263   0.00000  Uiso   1.00
C347   C     0.89039   0.50723   0.45290   0.00000  Uiso   1.00
C348   C     0.77466   0.50384   0.04574   0.00000  Uiso   1.00
C349   C     0.92352   0.52155   0.47643   0.00000  Uiso   1.00
C350   C     0.74080   0.49310   0.02148   0.00000  Uiso   1.00
C351   C     0.84009   0.50324   0.47556   0.00000  Uiso   1.00
C352   C     0.82439   0.51061   0.02254   0.00000  Uiso   1.00
Cu353  Cu    0.71355   0.50001   0.25000   0.00000  Uiso   1.00
Cu354  Cu    0.95311   0.49999   0.25000   0.00000  Uiso   1.00
H355   H     0.93213   0.54195   0.04000   0.00000  Uiso   1.00
H356   H     0.73064   0.48033   0.45638   0.00000  Uiso   1.00
H357   H     0.78211   0.51196   0.11299   0.00000  Uiso   1.00
H358   H     0.88630   0.48441   0.38818   0.00000  Uiso   1.00
H359   H     0.97105   0.48472   0.10669   0.00000  Uiso   1.00
H360   H     0.69420   0.52484   0.39172   0.00000  Uiso   1.00
H361   H     0.99798   0.53895   0.47184   0.00000  Uiso   1.00
H362   H     0.99903   0.47853   0.02535   0.00000  Uiso   1.00
H363   H     0.84935   0.53370   0.07935   0.00000  Uiso   1.00
H364   H     0.81317   0.48942   0.41693   0.00000  Uiso   1.00
H365   H     0.95560   0.37302   0.20506   0.00000  Uiso   1.00
H366   H     0.71105   0.62697   0.29496   0.00000  Uiso   1.00
H367   H     0.86096   0.45748   0.30389   0.00000  Uiso   1.00
H368   H     0.80570   0.54253   0.19611   0.00000  Uiso   1.00
H369   H     0.77405   0.45759   0.30392   0.00000  Uiso   1.00
H370   H     0.89261   0.54241   0.19608   0.00000  Uiso   1.00
N371   N     0.78403   0.50001   0.24999   0.00000  Uiso   1.00
N372   N     0.88264   0.49999   0.25001   0.00000  Uiso   1.00
O373   O     0.70625   0.43989   0.25000   0.00000  Uiso   1.00
O374   O     0.96042   0.56011   0.25000   0.00000  Uiso   1.00
O375   O     0.96039   0.43988   0.25001   0.00000  Uiso   1.00
O376   O     0.70628   0.56012   0.25000   0.00000  Uiso   1.00
O377   O     0.68519   0.50001   0.31492   0.00000  Uiso   1.00
O378   O     0.98148   0.49999   0.18509   0.00000  Uiso   1.00
O379   O     0.93933   0.50000   0.31492   0.00000  Uiso   1.00
O380   O     0.72733   0.50000   0.18508   0.00000  Uiso   1.00
O381   O     0.95358   0.62834   0.19206   0.00000  Uiso   1.00
H382   H     0.96878   0.60125   0.18259   0.00000  Uiso   1.00
O383   O     0.71310   0.37165   0.30793   0.00000  Uiso   1.00
H384   H     0.69795   0.39875   0.31738   0.00000  Uiso   1.00
C385   C     0.33287   0.75411   0.25135   0.00000  Uiso   1.00
C386   C     0.00046   0.91255   0.24866   0.00000  Uiso   1.00
C387   C     0.19208   0.85840   0.04457   0.00000  Uiso   1.00
C388   C     0.13818   0.82641   0.45268   0.00000  Uiso   1.00
C389   C     0.24053   0.86388   0.02182   0.00000  Uiso   1.00
C390   C     0.08959   0.82167   0.47528   0.00000  Uiso   1.00
C391   C     0.30772   0.68900   0.22526   0.00000  Uiso   1.00
C392   C     0.02561   0.97766   0.27476   0.00000  Uiso   1.00
C393   C     0.30919   0.97968   0.22178   0.00000  Uiso   1.00
C394   C     0.02414   0.68698   0.27823   0.00000  Uiso   1.00
C395   C     0.00106   0.95718   0.24757   0.00000  Uiso   1.00
C396   C     0.33227   0.70948   0.25244   0.00000  Uiso   1.00
C397   C     0.18268   0.80977   0.27994   0.00000  Uiso   1.00
C398   C     0.15066   0.85690   0.22006   0.00000  Uiso   1.00
C399   C     0.13309   0.80981   0.27996   0.00000  Uiso   1.00
C400   C     0.20025   0.85686   0.22005   0.00000  Uiso   1.00
C401   C     0.30610   0.83382   0.33604   0.00000  Uiso   1.00
C402   C     0.02724   0.83327   0.16393   0.00000  Uiso   1.00
C403   C     0.29097   0.83793   0.38490   0.00000  Uiso   1.00
C404   C     0.04219   0.83255   0.11481   0.00000  Uiso   1.00
C405   C     0.30610   0.86058   0.45415   0.00000  Uiso   1.00
C406   C     0.02499   0.82014   0.04376   0.00000  Uiso   1.00
C407   C     0.32306   0.85231   0.40858   0.00000  Uiso   1.00
C408   C     0.00900   0.82358   0.09012   0.00000  Uiso   1.00
C409   C     0.24226   0.83088   0.40733   0.00000  Uiso   1.00
C410   C     0.09105   0.83944   0.09263   0.00000  Uiso   1.00
C411   C     0.22372   0.84057   0.45290   0.00000  Uiso   1.00
C412   C     0.10800   0.83718   0.04574   0.00000  Uiso   1.00
C413   C     0.25685   0.85489   0.47643   0.00000  Uiso   1.00
C414   C     0.07413   0.82644   0.02148   0.00000  Uiso   1.00
C415   C     0.17343   0.83657   0.47556   0.00000  Uiso   1.00
C416   C     0.15772   0.84394   0.02254   0.00000  Uiso   1.00
Cu417  Cu    0.04689   0.83334   0.25000   0.00000  Uiso   1.00
Cu418  Cu    0.28645   0.83333   0.25000   0.00000  Uiso   1.00
H419   H     0.26547   0.87528   0.04000   0.00000  Uiso   1.00
H420   H     0.06397   0.81367   0.45638   0.00000  Uiso   1.00
H421   H     0.11544   0.84529   0.11299   0.00000  Uiso   1.00
H422   H     0.21964   0.81774   0.38818   0.00000  Uiso   1.00
H423   H     0.30438   0.81806   0.10669   0.00000  Uiso   1.00
H424   H     0.02753   0.85818   0.39172   0.00000  Uiso   1.00
H425   H     0.33131   0.87228   0.47184   0.00000  Uiso   1.00
H426   H     0.33237   0.81186   0.02535   0.00000  Uiso   1.00
H427   H     0.18268   0.86703   0.07935   0.00000  Uiso   1.00
H428   H     0.14651   0.82275   0.41693   0.00000  Uiso   1.00
H429   H     0.28894   0.70636   0.20506   0.00000  Uiso   1.00
H430   H     0.04438   0.96030   0.29496   0.00000  Uiso   1.00
H431   H     0.19429   0.79081   0.30389   0.00000  Uiso   1.00
H432   H     0.13904   0.87587   0.19611   0.00000  Uiso   1.00
H433   H     0.10739   0.79093   0.30392   0.00000  Uiso   1.00
H434   H     0.22595   0.87574   0.19608   0.00000  Uiso   1.00
N435   N     0.11736   0.83334   0.24999   0.00000  Uiso   1.00
N436   N     0.21597   0.83332   0.25001   0.00000  Uiso   1.00
O437   O     0.03958   0.77322   0.25000   0.00000  Uiso   1.00
O438   O     0.29375   0.89345   0.25000   0.00000  Uiso   1.00
O439   O     0.29372   0.77321   0.25001   0.00000  Uiso   1.00
O440   O     0.03961   0.89346   0.25000   0.00000  Uiso   1.00
O441   O     0.01852   0.83334   0.31492   0.00000  Uiso   1.00
O442   O     0.31481   0.83332   0.18509   0.00000  Uiso   1.00
O443   O     0.27267   0.83333   0.31492   0.00000  Uiso   1.00
O444   O     0.06067   0.83333   0.18508   0.00000  Uiso   1.00
O445   O     0.28691   0.96167   0.19206   0.00000  Uiso   1.00
H446   H     0.30211   0.93459   0.18259   0.00000  Uiso   1.00
O447   O     0.04644   0.70499   0.30793   0.00000  Uiso   1.00
H448   H     0.03128   0.73209   0.31738   0.00000  Uiso   1.00
C449   C     0.66621   0.75411   0.25135   0.00000  Uiso   1.00
C450   C     0.33379   0.91255   0.24866   0.00000  Uiso   1.00
C451   C     0.52542   0.85840   0.04457   0.00000  Uiso   1.00
C452   C     0.47151   0.82641   0.45268   0.00000  Uiso   1.00
C453   C     0.57386   0.86388   0.02182   0.00000  Uiso   1.00
C454   C     0.42292   0.82167   0.47528   0.00000  Uiso   1.00
C455   C     0.64105   0.68900   0.22526   0.00000  Uiso   1.00
C456   C     0.35894   0.97766   0.27476   0.00000  Uiso   1.00
C457   C     0.64252   0.97968   0.22178   0.00000  Uiso   1.00
C458   C     0.35748   0.68698   0.27823   0.00000  Uiso   1.00
C459   C     0.33439   0.95718   0.24757   0.00000  Uiso   1.00
C460   C     0.66561   0.70948   0.25244   0.00000  Uiso   1.00
C461   C     0.51601   0.80977   0.27994   0.00000  Uiso   1.00
C462   C     0.48399   0.85690   0.22006   0.00000  Uiso   1.00
C463   C     0.46642   0.80981   0.27996   0.00000  Uiso   1.00
C464   C     0.53358   0.85686   0.22005   0.00000  Uiso   1.00
C465   C     0.63943   0.83382   0.33604   0.00000  Uiso   1.00
C466   C     0.36057   0.83327   0.16393   0.00000  Uiso   1.00
C467   C     0.62431   0.83793   0.38490   0.00000  Uiso   1.00
C468   C     0.37552   0.83255   0.11481   0.00000  Uiso   1.00
C469   C     0.63943   0.86058   0.45415   0.00000  Uiso   1.00
C470   C     0.35833   0.82014   0.04376   0.00000  Uiso   1.00
C471   C     0.65640   0.85231   0.40858   0.00000  Uiso   1.00
C472   C     0.34234   0.82358   0.09012   0.00000  Uiso   1.00
C473   C     0.57560   0.83088   0.40733   0.00000  Uiso   1.00
C474   C     0.42439   0.83944   0.09263   0.00000  Uiso   1.00
C475   C     0.55706   0.84057   0.45290   0.00000  Uiso   1.00
C476   C     0.44133   0.83718   0.04574   0.00000  Uiso   1.00
C477   C     0.59018   0.85489   0.47643   0.00000  Uiso   1.00
C478   C     0.40746   0.82644   0.02148   0.00000  Uiso   1.00
C479   C     0.50676   0.83657   0.47556   0.00000  Uiso   1.00
C480   C     0.49105   0.84394   0.02254   0.00000  Uiso   1.00
Cu481  Cu    0.38022   0.83334   0.25000   0.00000  Uiso   1.00
Cu482  Cu    0.61978   0.83333   0.25000   0.00000  Uiso   1.00
H483   H     0.59880   0.87528   0.04000   0.00000  Uiso   1.00
H484   H     0.39731   0.81367   0.45638   0.00000  Uiso   1.00
H485   H     0.44877   0.84529   0.11299   0.00000  Uiso   1.00
H486   H     0.55297   0.81774   0.38818   0.00000  Uiso   1.00
H487   H     0.63771   0.81806   0.10669   0.00000  Uiso   1.00
H488   H     0.36087   0.85818   0.39172   0.00000  Uiso   1.00
H489   H     0.66465   0.87228   0.47184   0.00000  Uiso   1.00
H490   H     0.66570   0.81186   0.02535   0.00000  Uiso   1.00
H491   H     0.51601   0.86703   0.07935   0.00000  Uiso   1.00
H492   H     0.47984   0.82275   0.41693   0.00000  Uiso   1.00
H493   H     0.62227   0.70636   0.20506   0.00000  Uiso   1.00
H494   H     0.37771   0.96030   0.29496   0.00000  Uiso   1.00
H495   H     0.52763   0.79081   0.30389   0.00000  Uiso   1.00
H496   H     0.47237   0.87587   0.19611   0.00000  Uiso   1.00
H497   H     0.44072   0.79093   0.30392   0.00000  Uiso   1.00
H498   H     0.55928   0.87574   0.19608   0.00000  Uiso   1.00
N499   N     0.45069   0.83334   0.24999   0.00000  Uiso   1.00
N500   N     0.54931   0.83332   0.25001   0.00000  Uiso   1.00
O501   O     0.37291   0.77322   0.25000   0.00000  Uiso   1.00
O502   O     0.62709   0.89345   0.25000   0.00000  Uiso   1.00
O503   O     0.62706   0.77321   0.25001   0.00000  Uiso   1.00
O504   O     0.37294   0.89346   0.25000   0.00000  Uiso   1.00
O505   O     0.35186   0.83334   0.31492   0.00000  Uiso   1.00
O506   O     0.64814   0.83332   0.18509   0.00000  Uiso   1.00
O507   O     0.60600   0.83333   0.31492   0.00000  Uiso   1.00
O508   O     0.39400   0.83333   0.18508   0.00000  Uiso   1.00
O509   O     0.62024   0.96167   0.19206   0.00000  Uiso   1.00
H510   H     0.63544   0.93459   0.18259   0.00000  Uiso   1.00
O511   O     0.37977   0.70499   0.30793   0.00000  Uiso   1.00
H512   H     0.36462   0.73209   0.31738   0.00000  Uiso   1.00
C513   C     0.99954   0.75411   0.25135   0.00000  Uiso   1.00
C514   C     0.66713   0.91255   0.24866   0.00000  Uiso   1.00
C515   C     0.85875   0.85840   0.04457   0.00000  Uiso   1.00
C516   C     0.80484   0.82641   0.45268   0.00000  Uiso   1.00
C517   C     0.90720   0.86388   0.02182   0.00000  Uiso   1.00
C518   C     0.75625   0.82167   0.47528   0.00000  Uiso   1.00
C519   C     0.97438   0.68900   0.22526   0.00000  Uiso   1.00
C520   C     0.69227   0.97766   0.27476   0.00000  Uiso   1.00
C521   C     0.97586   0.97968   0.22178   0.00000  Uiso   1.00
C522   C     0.69081   0.68698   0.27823   0.00000  Uiso   1.00
C523   C     0.66773   0.95718   0.24757   0.00000  Uiso   1.00
C524   C     0.99894   0.70948   0.25244   0.00000  Uiso   1.00
C525   C     0.84934   0.80977   0.27994   0.00000  Uiso   1.00
C526   C     0.81732   0.85690   0.22006   0.00000  Uiso   1.00
C527   C     0.79975   0.80981   0.27996   0.00000  Uiso   1.00
C528   C     0.86691   0.85686   0.22005   0.00000  Uiso   1.00
C529   C     0.97277   0.83382   0.33604   0.00000  Uiso   1.00
C530   C     0.69390   0.83327   0.16393   0.00000  Uiso   1.00
C531   C     0.95764   0.83793   0.38490   0.00000  Uiso   1.00
C532   C     0.70886   0.83255   0.11481   0.00000  Uiso   1.00
C533   C     0.97276   0.86058   0.45415   0.00000  Uiso   1.00
C534   C     0.69166   0.82014   0.04376   0.00000  Uiso   1.00
C535   C     0.98973   0.85231   0.40858   0.00000  Uiso   1.00
C536   C     0.67567   0.82358   0.09012   0.00000  Uiso   1.00
C537   C     0.90893   0.83088   0.40733   0.00000  Uiso   1.00
C538   C     0.75772   0.83944   0.09263   0.00000  Uiso   1.00
C539   C     0.89039   0.84057   0.45290   0.00000  Uiso   1.00
C540   C     0.77466   0.83718   0.04574   0.00000  Uiso   1.00
C541   C     0.92352   0.85489   0.47643   0.00000  Uiso   1.00
C542   C     0.74080   0.82644   0.02148   0.00000  Uiso   1.00
C543   C     0.84009   0.83657   0.47556   0.00000  Uiso   1.00
C544   C     0.82439   0.84394   0.02254   0.00000  Uiso   1.00
Cu545  Cu    0.71355   0.83334   0.25000   0.00000  Uiso   1.00
Cu546  Cu    0.95311   0.83333   0.25000   0.00000  Uiso   1.00
H547   H     0.93213   0.87528   0.04000   0.00000  Uiso   1.00
H548   H     0.73064   0.81367   0.45638   0.00000  Uiso   1.00
H549   H     0.78211   0.84529   0.11299   0.00000  Uiso   1.00
H550   H     0.88630   0.81774   0.38818   0.00000  Uiso   1.00
H551   H     0.97105   0.81806   0.10669   0.00000  Uiso   1.00
H552   H     0.69420   0.85818   0.39172   0.00000  Uiso   1.00
H553   H     0.99798   0.87228   0.47184   0.00000  Uiso   1.00
H554   H     0.99903   0.81186   0.02535   0.00000  Uiso   1.00
H555   H     0.84935   0.86703   0.07935   0.00000  Uiso   1.00
H556   H     0.81317   0.82275   0.41693   0.00000  Uiso   1.00
H557   H     0.95560   0.70636   0.20506   0.00000  Uiso   1.00
H558   H     0.71105   0.96030   0.29496   0.00000  Uiso   1.00
H559   H     0.86096   0.79081   0.30389   0.00000  Uiso   1.00
H560   H     0.80570   0.87587   0.19611   0.00000  Uiso   1.00
H561   H     0.77405   0.79093   0.30392   0.00000  Uiso   1.00
H562   H     0.89261   0.87574   0.19608   0.00000  Uiso   1.00
N563   N     0.78403   0.83334   0.24999   0.00000  Uiso   1.00
N564   N     0.88264   0.83332   0.25001   0.00000  Uiso   1.00
O565   O     0.70625   0.77322   0.25000   0.00000  Uiso   1.00
O566   O     0.96042   0.89345   0.25000   0.00000  Uiso   1.00
O567   O     0.96039   0.77321   0.25001   0.00000  Uiso   1.00
O568   O     0.70628   0.89346   0.25000   0.00000  Uiso   1.00
O569   O     0.68519   0.83334   0.31492   0.00000  Uiso   1.00
O570   O     0.98148   0.83332   0.18509   0.00000  Uiso   1.00
O571   O     0.93933   0.83333   0.31492   0.00000  Uiso   1.00
O572   O     0.72733   0.83333   0.18508   0.00000  Uiso   1.00
O573   O     0.95358   0.96167   0.19206   0.00000  Uiso   1.00
H574   H     0.96878   0.93459   0.18259   0.00000  Uiso   1.00
O575   O     0.71310   0.70499   0.30793   0.00000  Uiso   1.00
H576   H     0.69795   0.73209   0.31738   0.00000  Uiso   1.00
C577   C     0.33287   0.08745   0.75135   0.00000  Uiso   1.00
C578   C     0.00046   0.24589   0.74866   0.00000  Uiso   1.00
C579   C     0.19208   0.19174   0.54457   0.00000  Uiso   1.00
C580   C     0.13818   0.15974   0.95268   0.00000  Uiso   1.00
C581   C     0.24053   0.19722   0.52182   0.00000  Uiso   1.00
C582   C     0.08959   0.15500   0.97528   0.00000  Uiso   1.00
C583   C     0.30772   0.02233   0.72526   0.00000  Uiso   1.00
C584   C     0.02561   0.31100   0.77476   0.00000  Uiso   1.00
C585   C     0.30919   0.31302   0.72178   0.00000  Uiso   1.00
C586   C     0.02414   0.02031   0.77823   0.00000  Uiso   1.00
C587   C     0.00106   0.29052   0.74757   0.00000  Uiso   1.00
C588   C     0.33227   0.04281   0.75244   0.00000  Uiso   1.00
C589   C     0.18268   0.14311   0.77994   0.00000  Uiso   1.00
C590   C     0.15066   0.19023   0.72006   0.00000  Uiso   1.00
C591   C     0.13309   0.14314   0.77996   0.00000  Uiso   1.00
C592   C     0.20025   0.19019   0.72005   0.00000  Uiso   1.00
C593   C     0.30610   0.16716   0.83604   0.00000  Uiso   1.00
C594   C     0.02724   0.16660   0.66393   0.00000  Uiso   1.00
C595   C     0.29097   0.17126   0.88490   0.00000  Uiso   1.00
C596   C     0.04219   0.16589   0.61481   0.00000  Uiso   1.00
C597   C     0.30610   0.19392   0.95415   0.00000  Uiso   1.00
C598   C     0.02499   0.15347   0.54376   0.00000  Uiso   1.00
C599   C     0.32306   0.18564   0.90858   0.00000  Uiso   1.00
C600   C     0.00900   0.15691   0.59012   0.00000  Uiso   1.00
C601   C     0.24226   0.16421   0.90733   0.00000  Uiso   1.00
C602   C     0.09105   0.17277   0.59263   0.00000  Uiso   1.00
C603   C     0.22372   0.17390   0.95290   0.00000  Uiso   1.00
C604   C     0.10800   0.17051   0.54574   0.00000  Uiso   1.00
C605   C     0.25685   0.18822   0.97643   0.00000  Uiso   1.00
C606   C     0.07413   0.15977   0.52148   0.00000  Uiso   1.00
C607   C     0.17343   0.16991   0.97556   0.00000  Uiso   1.00
C608   C     0.15772   0.17728   0.52254   0.00000  Uiso   1.00
Cu609  Cu    0.04689   0.16667   0.75000   0.00000  Uiso   1.00
Cu610  Cu    0.28645   0.16666   0.75000   0.00000  Uiso   1.00
H611   H     0.26547   0.20861   0.54000   0.00000  Uiso   1.00
H612   H     0.06397   0.14700   0.95638   0.00000  Uiso   1.00
H613   H     0.11544   0.17862   0.61299   0.00000  Uiso   1.00
H614   H     0.21964   0.15108   0.88818   0.00000  Uiso   1.00
H615   H     0.30438   0.15139   0.60669   0.00000  Uiso   1.00
H616   H     0.02753   0.19151   0.89172   0.00000  Uiso   1.00
H617   H     0.33131   0.20562   0.97184   0.00000  Uiso   1.00
H618   H     0.33237   0.14519   0.52535   0.00000  Uiso   1.00
H619   H     0.18268   0.20037   0.57935   0.00000  Uiso   1.00
H620   H     0.14651   0.15609   0.91693   0.00000  Uiso   1.00
H621   H     0.28894   0.03969   0.70506   0.00000  Uiso   1.00
H622   H     0.04438   0.29364   0.79496   0.00000  Uiso   1.00
H623   H     0.19429   0.12414   0.80389   0.00000  Uiso   1.00
H624   H     0.13904   0.20920   0.69611   0.00000  Uiso   1.00
H625   H     0.10739   0.12426   0.80392   0.00000  Uiso   1.00
H626   H     0.22595   0.20908   0.69608   0.00000  Uiso   1.00
N627   N     0.11736   0.16668   0.74999   0.00000  Uiso   1.00
N628   N     0.21597   0.16666   0.75001   0.00000  Uiso   1.00
O629   O     0.03958   0.10655   0.75000   0.00000  Uiso   1.00
O630   O     0.29375   0.22678   0.75000   0.00000  Uiso   1.00
O631   O     0.29372   0.10654   0.75001   0.00000  Uiso   1.00
O632   O     0.03961   0.22679   0.75000   0.00000  Uiso   1.00
O633   O     0.01852   0.16668   0.81492   0.00000  Uiso   1.00
O634   O     0.31481   0.16666   0.68509   0.00000  Uiso   1.00
O635   O     0.27267   0.16667   0.81492   0.00000  Uiso   1.00
O636   O     0.06067   0.16667   0.68508   0.00000  Uiso   1.00
O637   O     0.28691   0.29501   0.69206   0.00000  Uiso   1.00
H638   H     0.30211   0.26792   0.68259   0.00000  Uiso   1.00
O639   O     0.04644   0.03832   0.80793   0.00000  Uiso   1.00
H640   H     0.03128   0.06542   0.81738   0.00000  Uiso   1.00
C641   C     0.66621   0.08745   0.75135   0.00000  Uiso   1.00
C642   C     0.33379   0.24589   0.74866   0.00000  Uiso   1.00
C643   C     0.52542   0.19174   0.54457   0.00000  Uiso   1.00
C644   C     0.47151   0.15974   0.95268   0.00000  Uiso   1.00
C645   C     0.57386   0.19722   0.52182   0.00000  Uiso   1.00
C646   C     0.42292   0.15500   0.97528   0.00000  Uiso   1.00
C647   C     0.64105   0.02233   0.72526   0.00000  Uiso   1.00
C648   C     0.35894   0.31100   0.77476   0.00000  Uiso   1.00
C649   C     0.64252   0.31302   0.72178   0.00000  Uiso   1.00
C650   C     0.35748   0.02031   0.77823   0.00000  Uiso   1.00
C651   C     0.33439   0.29052   0.74757   0.00000  Uiso   1.00
C652   C     0.66561   0.04281   0.75244   0.00000  Uiso   1.00
C653   C     0.51601   0.14311   0.77994   0.00000  Uiso   1.00
C654   C     0.48399   0.19023   0.72006   0.00000  Uiso   1.00
C655   C     0.46642   0.14314   0.77996   0.00000  Uiso   1.00
C656   C     0.53358   0.19019   0.72005   0.00000  Uiso   1.00
C657   C     0.63943   0.16716   0.83604   0.00000  Uiso   1.00
C658   C     0.36057   0.16660   0.66393   0.00000  Uiso   1.00
C659   C     0.62431   0.17126   0.88490   0.00000  Uiso   1.00
C660   C     0.37552   0.16589   0.61481   0.00000  Uiso   1.00
C661   C     0.63943   0.19392   0.95415   0.00000  Uiso   1.00
C662   C     0.35833   0.15347   0.54376   0.00000  Uiso   1.00
C663   C     0.65640   0.18564   0.90858   0.00000  Uiso   1.00
C664   C     0.34234   0.15691   0.59012   0.00000  Uiso   1.00
C665   C     0.57560   0.16421   0.90733   0.00000  Uiso   1.00
C666   C     0.42439   0.17277   0.59263   0.00000  Uiso   1.00
C667   C     0.55706   0.17390   0.95290   0.00000  Uiso   1.00
C668   C     0.44133   0.17051   0.54574   0.00000  Uiso   1.00
C669   C     0.59018   0.18822   0.97643   0.00000  Uiso   1.00
C670   C     0.40746   0.15977   0.52148   0.00000  Uiso   1.00
C671   C     0.50676   0.16991   0.97556   0.00000  Uiso   1.00
C672   C     0.49105   0.17728   0.52254   0.00000  Uiso   1.00
Cu673  Cu    0.38022   0.16667   0.75000   0.00000  Uiso   1.00
Cu674  Cu    0.61978   0.16666   0.75000   0.00000  Uiso   1.00
H675   H     0.59880   0.20861   0.54000   0.00000  Uiso   1.00
H676   H     0.39731   0.14700   0.95638   0.00000  Uiso   1.00
H677   H     0.44877   0.17862   0.61299   0.00000  Uiso   1.00
H678   H     0.55297   0.15108   0.88818   0.00000  Uiso   1.00
H679   H     0.63771   0.15139   0.60669   0.00000  Uiso   1.00
H680   H     0.36087   0.19151   0.89172   0.00000  Uiso   1.00
H681   H     0.66465   0.20562   0.97184   0.00000  Uiso   1.00
H682   H     0.66570   0.14519   0.52535   0.00000  Uiso   1.00
H683   H     0.51601   0.20037   0.57935   0.00000  Uiso   1.00
H684   H     0.47984   0.15609   0.91693   0.00000  Uiso   1.00
H685   H     0.62227   0.03969   0.70506   0.00000  Uiso   1.00
H686   H     0.37771   0.29364   0.79496   0.00000  Uiso   1.00
H687   H     0.52763   0.12414   0.80389   0.00000  Uiso   1.00
H688   H     0.47237   0.20920   0.69611   0.00000  Uiso   1.00
H689   H     0.44072   0.12426   0.80392   0.00000  Uiso   1.00
H690   H     0.55928   0.20908   0.69608   0.00000  Uiso   1.00
N691   N     0.45069   0.16668   0.74999   0.00000  Uiso   1.00
N692   N     0.54931   0.16666   0.75001   0.00000  Uiso   1.00
O693   O     0.37291   0.10655   0.75000   0.00000  Uiso   1.00
O694   O     0.62709   0.22678   0.75000   0.00000  Uiso   1.00
O695   O     0.62706   0.10654   0.75001   0.00000  Uiso   1.00
O696   O     0.37294   0.22679   0.75000   0.00000  Uiso   1.00
O697   O     0.35186   0.16668   0.81492   0.00000  Uiso   1.00
O698   O     0.64814   0.16666   0.68509   0.00000  Uiso   1.00
O699   O     0.60600   0.16667   0.81492   0.00000  Uiso   1.00
O700   O     0.39400   0.16667   0.68508   0.00000  Uiso   1.00
O701   O     0.62024   0.29501   0.69206   0.00000  Uiso   1.00
H702   H     0.63544   0.26792   0.68259   0.00000  Uiso   1.00
O703   O     0.37977   0.03832   0.80793   0.00000  Uiso   1.00
H704   H     0.36462   0.06542   0.81738   0.00000  Uiso   1.00
C705   C     0.99954   0.08745   0.75135   0.00000  Uiso   1.00
C706   C     0.66713   0.24589   0.74866   0.00000  Uiso   1.00
C707   C     0.85875   0.19174   0.54457   0.00000  Uiso   1.00
C708   C     0.80484   0.15974   0.95268   0.00000  Uiso   1.00
C709   C     0.90720   0.19722   0.52182   0.00000  Uiso   1.00
C710   C     0.75625   0.15500   0.97528   0.00000  Uiso   1.00
C711   C     0.97438   0.02233   0.72526   0.00000  Uiso   1.00
C712   C     0.69227   0.31100   0.77476   0.00000  Uiso   1.00
C713   C     0.97586   0.31302   0.72178   0.00000  Uiso   1.00
C714   C     0.69081   0.02031   0.77823   0.00000  Uiso   1.00
C715   C     0.66773   0.29052   0.74757   0.00000  Uiso   1.00
C716   C     0.99894   0.04281   0.75244   0.00000  Uiso   1.00
C717   C     0.84934   0.14311   0.77994   0.00000  Uiso   1.00
C718   C     0.81732   0.19023   0.72006   0.00000  Uiso   1.00
C719   C     0.79975   0.14314   0.77996   0.00000  Uiso   1.00
C720   C     0.86691   0.19019   0.72005   0.00000  Uiso   1.00
C721   C     0.97277   0.16716   0.83604   0.00000  Uiso   1.00
C722   C     0.69390   0.16660   0.66393   0.00000  Uiso   1.00
C723   C     0.95764   0.17126   0.88490   0.00000  Uiso   1.00
C724   C     0.70886   0.16589   0.61481   0.00000  Uiso   1.00
C725   C     0.97276   0.19392   0.95415   0.00000  Uiso   1.00
C726   C     0.69166   0.15347   0.54376   0.00000  Uiso   1.00
C727   C     0.98973   0.18564   0.90858   0.00000  Uiso   1.00
C728   C     0.67567   0.15691   0.59012   0.00000  Uiso   1.00
C729   C     0.90893   0.16421   0.90733   0.00000  Uiso   1.00
C730   C     0.75772   0.17277   0.59263   0.00000  Uiso   1.00
C731   C     0.89039   0.17390   0.95290   0.00000  Uiso   1.00
C732   C     0.77466   0.17051   0.54574   0.00000  Uiso   1.00
C733   C     0.92352   0.18822   0.97643   0.00000  Uiso   1.00
C734   C     0.74080   0.15977   0.52148   0.00000  Uiso   1.00
C735   C     0.84009   0.16991   0.97556   0.00000  Uiso   1.00
C736   C     0.82439   0.17728   0.52254   0.00000  Uiso   1.00
Cu737  Cu    0.71355   0.16667   0.75000   0.00000  Uiso   1.00
Cu738  Cu    0.95311   0.16666   0.75000   0.00000  Uiso   1.00
H739   H     0.93213   0.20861   0.54000   0.00000  Uiso   1.00
H740   H     0.73064   0.14700   0.95638   0.00000  Uiso   1.00
H741   H     0.78211   0.17862   0.61299   0.00000  Uiso   1.00
H742   H     0.88630   0.15108   0.88818   0.00000  Uiso   1.00
H743   H     0.97105   0.15139   0.60669   0.00000  Uiso   1.00
H744   H     0.69420   0.19151   0.89172   0.00000  Uiso   1.00
H745   H     0.99798   0.20562   0.97184   0.00000  Uiso   1.00
H746   H     0.99903   0.14519   0.52535   0.00000  Uiso   1.00
H747   H     0.84935   0.20037   0.57935   0.00000  Uiso   1.00
H748   H     0.81317   0.15609   0.91693   0.00000  Uiso   1.00
H749   H     0.95560   0.03969   0.70506   0.00000  Uiso   1.00
H750   H     0.71105   0.29364   0.79496   0.00000  Uiso   1.00
H751   H     0.86096   0.12414   0.80389   0.00000  Uiso   1.00
H752   H     0.80570   0.20920   0.69611   0.00000  Uiso   1.00
H753   H     0.77405   0.12426   0.80392   0.00000  Uiso   1.00
H754   H     0.89261   0.20908   0.69608   0.00000  Uiso   1.00
N755   N     0.78403   0.16668   0.74999   0.00000  Uiso   1.00
N756   N     0.88264   0.16666   0.75001   0.00000  Uiso   1.00
O757   O     0.70625   0.10655   0.75000   0.00000  Uiso   1.00
O758   O     0.96042   0.22678   0.75000   0.00000  Uiso   1.00
O759   O     0.96039   0.10654   0.75001   0.00000  Uiso   1.00
O760   O     0.70628   0.22679   0.75000   0.00000  Uiso   1.00
O761   O     0.68519   0.16668   0.81492   0.00000  Uiso   1.00
O762   O     0.98148   0.16666   0.68509   0.00000  Uiso   1.00
O763   O     0.93933   0.16667   0.81492   0.00000  Uiso   1.00
O764   O     0.72733   0.16667   0.68508   0.00000  Uiso   1.00
O765   O     0.95358   0.29501   0.69206   0.00000  Uiso   1.00
H766   H     0.96878   0.26792   0.68259   0.00000  Uiso   1.00
O767   O     0.71310   0.03832   0.80793   0.00000  Uiso   1.00
H768   H     0.69795   0.06542   0.81738   0.00000  Uiso   1.00
C769   C     0.33287   0.42078   0.75135   0.00000  Uiso   1.00
C770   C     0.00046   0.57922   0.74866   0.00000  Uiso   1.00
C771   C     0.19208   0.52507   0.54457   0.00000  Uiso   1.00
C772   C     0.13818   0.49308   0.95268   0.00000  Uiso   1.00
C773   C     0.24053   0.53055   0.52182   0.00000  Uiso   1.00
C774   C     0.08959   0.48833   0.97528   0.00000  Uiso   1.00
C775   C     0.30772   0.35566   0.72526   0.00000  Uiso   1.00
C776   C     0.02561   0.64433   0.77476   0.00000  Uiso   1.00
C777   C     0.30919   0.64635   0.72178   0.00000  Uiso   1.00
C778   C     0.02414   0.35364   0.77823   0.00000  Uiso   1.00
C779   C     0.00106   0.62385   0.74757   0.00000  Uiso   1.00
C780   C     0.33227   0.37615   0.75244   0.00000  Uiso   1.00
C781   C     0.18268   0.47644   0.77994   0.00000  Uiso   1.00
C782   C     0.15066   0.52357   0.72006   0.00000  Uiso   1.00
C783   C     0.13309   0.47648   0.77996   0.00000  Uiso   1.00
C784   C     0.20025   0.52353   0.72005   0.00000  Uiso   1.00
C785   C     0.30610   0.50049   0.83604   0.00000  Uiso   1.00
C786   C     0.02724   0.49994   0.66393   0.00000  Uiso   1.00
C787   C     0.29097   0.50459   0.88490   0.00000  Uiso   1.00
C788   C     0.04219   0.49922   0.61481   0.00000  Uiso   1.00
C789   C     0.30610   0.52725   0.95415   0.00000  Uiso   1.00
C790   C     0.02499   0.48681   0.54376   0.00000  Uiso   1.00
C791   C     0.32306   0.51898   0.90858   0.00000  Uiso   1.00
C792   C     0.00900   0.49025   0.59012   0.00000  Uiso   1.00
C793   C     0.24226   0.49755   0.90733   0.00000  Uiso   1.00
C794   C     0.09105   0.50611   0.59263   0.00000  Uiso   1.00
C795   C     0.22372   0.50723   0.95290   0.00000  Uiso   1.00
C796   C     0.10800   0.50384   0.54574   0.00000  Uiso   1.00
C797   C     0.25685   0.52155   0.97643   0.00000  Uiso   1.00
C798   C     0.07413   0.49310   0.52148   0.00000  Uiso   1.00
C799   C     0.17343   0.50324   0.97556   0.00000  Uiso   1.00
C800   C     0.15772   0.51061   0.52254   0.00000  Uiso   1.00
Cu801  Cu    0.04689   0.50001   0.75000   0.00000  Uiso   1.00
Cu802  Cu    0.28645   0.49999   0.75000   0.00000  Uiso   1.00
H803   H     0.26547   0.54195   0.54000   0.00000  Uiso   1.00
H804   H     0.06397   0.48033   0.95638   0.00000  Uiso   1.00
H805   H     0.11544   0.51196   0.61299   0.00000  Uiso   1.00
H806   H     0.21964   0.48441   0.88818   0.00000  Uiso   1.00
H807   H     0.30438   0.48472   0.60669   0.00000  Uiso   1.00
H808   H     0.02753   0.52484   0.89172   0.00000  Uiso   1.00
H809   H     0.33131   0.53895   0.97184   0.00000  Uiso   1.00
H810   H     0.33237   0.47853   0.52535   0.00000  Uiso   1.00
H811   H     0.18268   0.53370   0.57935   0.00000  Uiso   1.00
H812   H     0.14651   0.48942   0.91693   0.00000  Uiso   1.00
H813   H     0.28894   0.37302   0.70506   0.00000  Uiso   1.00
H814   H     0.04438   0.62697   0.79496   0.00000  Uiso   1.00
H815   H     0.19429   0.45748   0.80389   0.00000  Uiso   1.00
H816   H     0.13904   0.54253   0.69611   0.00000  Uiso   1.00
H817   H     0.10739   0.45759   0.80392   0.00000  Uiso   1.00
H818   H     0.22595   0.54241   0.69608   0.00000  Uiso   1.00
N819   N     0.11736   0.50001   0.74999   0.00000  Uiso   1.00
N820   N     0.21597   0.49999   0.75001   0.00000  Uiso   1.00
O821   O     0.03958   0.43989   0.75000   0.00000  Uiso   1.00
O822   O     0.29375   0.56011   0.75000   0.00000  Uiso   1.00
O823   O     0.29372   0.43988   0.75001   0.00000  Uiso   1.00
O824   O     0.03961   0.56012   0.75000   0.00000  Uiso   1.00
O825   O     0.01852   0.50001   0.81492   0.00000  Uiso   1.00
O826   O     0.31481   0.49999   0.68509   0.00000  Uiso   1.00
O827   O     0.27267   0.50000   0.81492   0.00000  Uiso   1.00
O828   O     0.06067   0.50000   0.68508   0.00000  Uiso   1.00
O829   O     0.28691   0.62834   0.69206   0.00000  Uiso   1.00
H830   H     0.30211   0.60125   0.68259   0.00000  Uiso   1.00
O831   O     0.04644   0.37165   0.80793   0.00000  Uiso   1.00
H832   H     0.03128   0.39875   0.81738   0.00000  Uiso   1.00
C833   C     0.66621   0.42078   0.75135   0.00000  Uiso   1.00
C834   C     0.33379   0.57922   0.74866   0.00000  Uiso   1.00
C835   C     0.52542   0.52507   0.54457   0.00000  Uiso   1.00
C836   C     0.47151   0.49308   0.95268   0.00000  Uiso   1.00
C837   C     0.57386   0.53055   0.52182   0.00000  Uiso   1.00
C838   C     0.42292   0.48833   0.97528   0.00000  Uiso   1.00
C839   C     0.64105   0.35566   0.72526   0.00000  Uiso   1.00
C840   C     0.35894   0.64433   0.77476   0.00000  Uiso   1.00
C841   C     0.64252   0.64635   0.72178   0.00000  Uiso   1.00
C842   C     0.35748   0.35364   0.77823   0.00000  Uiso   1.00
C843   C     0.33439   0.62385   0.74757   0.00000  Uiso   1.00
C844   C     0.66561   0.37615   0.75244   0.00000  Uiso   1.00
C845   C     0.51601   0.47644   0.77994   0.00000  Uiso   1.00
C846   C     0.48399   0.52357   0.72006   0.00000  Uiso   1.00
C847   C     0.46642   0.47648   0.77996   0.00000  Uiso   1.00
C848   C     0.53358   0.52353   0.72005   0.00000  Uiso   1.00
C849   C     0.63943   0.50049   0.83604   0.00000  Uiso   1.00
C850   C     0.36057   0.49994   0.66393   0.00000  Uiso   1.00
C851   C     0.62431   0.50459   0.88490   0.00000  Uiso   1.00
C852   C     0.37552   0.49922   0.61481   0.00000  Uiso   1.00
C853   C     0.63943   0.52725   0.95415   0.00000  Uiso   1.00
C854   C     0.35833   0.48681   0.54376   0.00000  Uiso   1.00
C855   C     0.65640   0.51898   0.90858   0.00000  Uiso   1.00
C856   C     0.34234   0.49025   0.59012   0.00000  Uiso   1.00
C857   C     0.57560   0.49755   0.90733   0.00000  Uiso   1.00
C858   C     0.42439   0.50611   0.59263   0.00000  Uiso   1.00
C859   C     0.55706   0.50723   0.95290   0.00000  Uiso   1.00
C860   C     0.44133   0.50384   0.54574   0.00000  Uiso   1.00
C861   C     0.59018   0.52155   0.97643   0.00000  Uiso   1.00
C862   C     0.40746   0.49310   0.52148   0.00000  Uiso   1.00
C863   C     0.50676   0.50324   0.97556   0.00000  Uiso   1.00
C864   C     0.49105   0.51061   0.52254   0.00000  Uiso   1.00
Cu865  Cu    0.38022   0.50001   0.75000   0.00000  Uiso   1.00
Cu866  Cu    0.61978   0.49999   0.75000   0.00000  Uiso   1.00
H867   H     0.59880   0.54195   0.54000   0.00000  Uiso   1.00
H868   H     0.39731   0.48033   0.95638   0.00000  Uiso   1.00
H869   H     0.44877   0.51196   0.61299   0.00000  Uiso   1.00
H870   H     0.55297   0.48441   0.88818   0.00000  Uiso   1.00
H871   H     0.63771   0.48472   0.60669   0.00000  Uiso   1.00
H872   H     0.36087   0.52484   0.89172   0.00000  Uiso   1.00
H873   H     0.66465   0.53895   0.97184   0.00000  Uiso   1.00
H874   H     0.66570   0.47853   0.52535   0.00000  Uiso   1.00
H875   H     0.51601   0.53370   0.57935   0.00000  Uiso   1.00
H876   H     0.47984   0.48942   0.91693   0.00000  Uiso   1.00
H877   H     0.62227   0.37302   0.70506   0.00000  Uiso   1.00
H878   H     0.37771   0.62697   0.79496   0.00000  Uiso   1.00
H879   H     0.52763   0.45748   0.80389   0.00000  Uiso   1.00
H880   H     0.47237   0.54253   0.69611   0.00000  Uiso   1.00
H881   H     0.44072   0.45759   0.80392   0.00000  Uiso   1.00
H882   H     0.55928   0.54241   0.69608   0.00000  Uiso   1.00
N883   N     0.45069   0.50001   0.74999   0.00000  Uiso   1.00
N884   N     0.54931   0.49999   0.75001   0.00000  Uiso   1.00
O885   O     0.37291   0.43989   0.75000   0.00000  Uiso   1.00
O886   O     0.62709   0.56011   0.75000   0.00000  Uiso   1.00
O887   O     0.62706   0.43988   0.75001   0.00000  Uiso   1.00
O888   O     0.37294   0.56012   0.75000   0.00000  Uiso   1.00
O889   O     0.35186   0.50001   0.81492   0.00000  Uiso   1.00
O890   O     0.64814   0.49999   0.68509   0.00000  Uiso   1.00
O891   O     0.60600   0.50000   0.81492   0.00000  Uiso   1.00
O892   O     0.39400   0.50000   0.68508   0.00000  Uiso   1.00
O893   O     0.62024   0.62834   0.69206   0.00000  Uiso   1.00
H894   H     0.63544   0.60125   0.68259   0.00000  Uiso   1.00
O895   O     0.37977   0.37165   0.80793   0.00000  Uiso   1.00
H896   H     0.36462   0.39875   0.81738   0.00000  Uiso   1.00
C897   C     0.99954   0.42078   0.75135   0.00000  Uiso   1.00
C898   C     0.66713   0.57922   0.74866   0.00000  Uiso   1.00
C899   C     0.85875   0.52507   0.54457   0.00000  Uiso   1.00
C900   C     0.80484   0.49308   0.95268   0.00000  Uiso   1.00
C901   C     0.90720   0.53055   0.52182   0.00000  Uiso   1.00
C902   C     0.75625   0.48833   0.97528   0.00000  Uiso   1.00
C903   C     0.97438   0.35566   0.72526   0.00000  Uiso   1.00
C904   C     0.69227   0.64433   0.77476   0.00000  Uiso   1.00
C905   C     0.97586   0.64635   0.72178   0.00000  Uiso   1.00
C906   C     0.69081   0.35364   0.77823   0.00000  Uiso   1.00
C907   C     0.66773   0.62385   0.74757   0.00000  Uiso   1.00
C908   C     0.99894   0.37615   0.75244   0.00000  Uiso   1.00
C909   C     0.84934   0.47644   0.77994   0.00000  Uiso   1.00
C910   C     0.81732   0.52357   0.72006   0.00000  Uiso   1.00
C911   C     0.79975   0.47648   0.77996   0.00000  Uiso   1.00
C912   C     0.86691   0.52353   0.72005   0.00000  Uiso   1.00
C913   C     0.97277   0.50049   0.83604   0.00000  Uiso   1.00
C914   C     0.69390   0.49994   0.66393   0.00000  Uiso   1.00
C915   C     0.95764   0.50459   0.88490   0.00000  Uiso   1.00
C916   C     0.70886   0.49922   0.61481   0.00000  Uiso   1.00
C917   C     0.97276   0.52725   0.95415   0.00000  Uiso   1.00
C918   C     0.69166   0.48681   0.54376   0.00000  Uiso   1.00
C919   C     0.98973   0.51898   0.90858   0.00000  Uiso   1.00
C920   C     0.67567   0.49025   0.59012   0.00000  Uiso   1.00
C921   C     0.90893   0.49755   0.90733   0.00000  Uiso   1.00
C922   C     0.75772   0.50611   0.59263   0.00000  Uiso   1.00
C923   C     0.89039   0.50723   0.95290   0.00000  Uiso   1.00
C924   C     0.77466   0.50384   0.54574   0.00000  Uiso   1.00
C925   C     0.92352   0.52155   0.97643   0.00000  Uiso   1.00
C926   C     0.74080   0.49310   0.52148   0.00000  Uiso   1.00
C927   C     0.84009   0.50324   0.97556   0.00000  Uiso   1.00
C928   C     0.82439   0.51061   0.52254   0.00000  Uiso   1.00
Cu929  Cu    0.71355   0.50001   0.75000   0.00000  Uiso   1.00
Cu930  Cu    0.95311   0.49999   0.75000   0.00000  Uiso   1.00
H931   H     0.93213   0.54195   0.54000   0.00000  Uiso   1.00
H932   H     0.73064   0.48033   0.95638   0.00000  Uiso   1.00
H933   H     0.78211   0.51196   0.61299   0.00000  Uiso   1.00
H934   H     0.88630   0.48441   0.88818   0.00000  Uiso   1.00
H935   H     0.97105   0.48472   0.60669   0.00000  Uiso   1.00
H936   H     0.69420   0.52484   0.89172   0.00000  Uiso   1.00
H937   H     0.99798   0.53895   0.97184   0.00000  Uiso   1.00
H938   H     0.99903   0.47853   0.52535   0.00000  Uiso   1.00
H939   H     0.84935   0.53370   0.57935   0.00000  Uiso   1.00
H940   H     0.81317   0.48942   0.91693   0.00000  Uiso   1.00
H941   H     0.95560   0.37302   0.70506   0.00000  Uiso   1.00
H942   H     0.71105   0.62697   0.79496   0.00000  Uiso   1.00
H943   H     0.86096   0.45748   0.80389   0.00000  Uiso   1.00
H944   H     0.80570   0.54253   0.69611   0.00000  Uiso   1.00
H945   H     0.77405   0.45759   0.80392   0.00000  Uiso   1.00
H946   H     0.89261   0.54241   0.69608   0.00000  Uiso   1.00
N947   N     0.78403   0.50001   0.74999   0.00000  Uiso   1.00
N948   N     0.88264   0.49999   0.75001   0.00000  Uiso   1.00
O949   O     0.70625   0.43989   0.75000   0.00000  Uiso   1.00
O950   O     0.96042   0.56011   0.75000   0.00000  Uiso   1.00
O951   O     0.96039   0.43988   0.75001   0.00000  Uiso   1.00
O952   O     0.70628   0.56012   0.75000   0.00000  Uiso   1.00
O953   O     0.68519   0.50001   0.81492   0.00000  Uiso   1.00
O954   O     0.98148   0.49999   0.68509   0.00000  Uiso   1.00
O955   O     0.93933   0.50000   0.81492   0.00000  Uiso   1.00
O956   O     0.72733   0.50000   0.68508   0.00000  Uiso   1.00
O957   O     0.95358   0.62834   0.69206   0.00000  Uiso   1.00
H958   H     0.96878   0.60125   0.68259   0.00000  Uiso   1.00
O959   O     0.71310   0.37165   0.80793   0.00000  Uiso   1.00
H960   H     0.69795   0.39875   0.81738   0.00000  Uiso   1.00
C961   C     0.33287   0.75411   0.75135   0.00000  Uiso   1.00
C962   C     0.00046   0.91255   0.74866   0.00000  Uiso   1.00
C963   C     0.19208   0.85840   0.54457   0.00000  Uiso   1.00
C964   C     0.13818   0.82641   0.95268   0.00000  Uiso   1.00
C965   C     0.24053   0.86388   0.52182   0.00000  Uiso   1.00
C966   C     0.08959   0.82167   0.97528   0.00000  Uiso   1.00
C967   C     0.30772   0.68900   0.72526   0.00000  Uiso   1.00
C968   C     0.02561   0.97766   0.77476   0.00000  Uiso   1.00
C969   C     0.30919   0.97968   0.72178   0.00000  Uiso   1.00
C970   C     0.02414   0.68698   0.77823   0.00000  Uiso   1.00
C971   C     0.00106   0.95718   0.74757   0.00000  Uiso   1.00
C972   C     0.33227   0.70948   0.75244   0.00000  Uiso   1.00
C973   C     0.18268   0.80977   0.77994   0.00000  Uiso   1.00
C974   C     0.15066   0.85690   0.72006   0.00000  Uiso   1.00
C975   C     0.13309   0.80981   0.77996   0.00000  Uiso   1.00
C976   C     0.20025   0.85686   0.72005   0.00000  Uiso   1.00
C977   C     0.30610   0.83382   0.83604   0.00000  Uiso   1.00
C978   C     0.02724   0.83327   0.66393   0.00000  Uiso   1.00
C979   C     0.29097   0.83793   0.88490   0.00000  Uiso   1.00
C980   C     0.04219   0.83255   0.61481   0.00000  Uiso   1.00
C981   C     0.30610   0.86058   0.95415   0.00000  Uiso   1.00
C982   C     0.02499   0.82014   0.54376   0.00000  Uiso   1.00
C983   C     0.32306   0.85231   0.90858   0.00000  Uiso   1.00
C984   C     0.00900   0.82358   0.59012   0.00000  Uiso   1.00
C985   C     0.24226   0.83088   0.90733   0.00000  Uiso   1.00
C986   C     0.09105   0.83944   0.59263   0.00000  Uiso   1.00
C987   C     0.22372   0.84057   0.95290   0.00000  Uiso   1.00
C988   C     0.10800   0.83718   0.54574   0.00000  Uiso   1.00
C989   C     0.25685   0.85489   0.97643   0.00000  Uiso   1.00
C990   C     0.07413   0.82644   0.52148   0.00000  Uiso   1.00
C991   C     0.17343   0.83657   0.97556   0.00000  Uiso   1.00
C992   C     0.15772   0.84394   0.52254   0.00000  Uiso   1.00
Cu993  Cu    0.04689   0.83334   0.75000   0.00000  Uiso   1.00
Cu994  Cu    0.28645   0.83333   0.75000   0.00000  Uiso   1.00
H995   H     0.26547   0.87528   0.54000   0.00000  Uiso   1.00
H996   H     0.06397   0.81367   0.95638   0.00000  Uiso   1.00
H997   H     0.11544   0.84529   0.61299   0.00000  Uiso   1.00
H998   H     0.21964   0.81774   0.88818   0.00000  Uiso   1.00
H999   H     0.30438   0.81806   0.60669   0.00000  Uiso   1.00
H1000  H     0.02753   0.85818   0.89172   0.00000  Uiso   1.00
H1001  H     0.33131   0.87228   0.97184   0.00000  Uiso   1.00
H1002  H     0.33237   0.81186   0.52535   0.00000  Uiso   1.00
H1003  H     0.18268   0.86703   0.57935   0.00000  Uiso   1.00
H1004  H     0.14651   0.82275   0.91693   0.00000  Uiso   1.00
H1005  H     0.28894   0.70636   0.70506   0.00000  Uiso   1.00
H1006  H     0.04438   0.96030   0.79496   0.00000  Uiso   1.00
H1007  H     0.19429   0.79081   0.80389   0.00000  Uiso   1.00
H1008  H     0.13904   0.87587   0.69611   0.00000  Uiso   1.00
H1009  H     0.10739   0.79093   0.80392   0.00000  Uiso   1.00
H1010  H     0.22595   0.87574   0.69608   0.00000  Uiso   1.00
N1011  N     0.11736   0.83334   0.74999   0.00000  Uiso   1.00
N1012  N     0.21597   0.83332   0.75001   0.00000  Uiso   1.00
O1013  O     0.03958   0.77322   0.75000   0.00000  Uiso   1.00
O1014  O     0.29375   0.89345   0.75000   0.00000  Uiso   1.00
O1015  O     0.29372   0.77321   0.75001   0.00000  Uiso   1.00
O1016  O     0.03961   0.89346   0.75000   0.00000  Uiso   1.00
O1017  O     0.01852   0.83334   0.81492   0.00000  Uiso   1.00
O1018  O     0.31481   0.83332   0.68509   0.00000  Uiso   1.00
O1019  O     0.27267   0.83333   0.81492   0.00000  Uiso   1.00
O1020  O     0.06067   0.83333   0.68508   0.00000  Uiso   1.00
O1021  O     0.28691   0.96167   0.69206   0.00000  Uiso   1.00
H1022  H     0.30211   0.93459   0.68259   0.00000  Uiso   1.00
O1023  O     0.04644   0.70499   0.80793   0.00000  Uiso   1.00
H1024  H     0.03128   0.73209   0.81738   0.00000  Uiso   1.00
C1025  C     0.66621   0.75411   0.75135   0.00000  Uiso   1.00
C1026  C     0.33379   0.91255   0.74866   0.00000  Uiso   1.00
C1027  C     0.52542   0.85840   0.54457   0.00000  Uiso   1.00
C1028  C     0.47151   0.82641   0.95268   0.00000  Uiso   1.00
C1029  C     0.57386   0.86388   0.52182   0.00000  Uiso   1.00
C1030  C     0.42292   0.82167   0.97528   0.00000  Uiso   1.00
C1031  C     0.64105   0.68900   0.72526   0.00000  Uiso   1.00
C1032  C     0.35894   0.97766   0.77476   0.00000  Uiso   1.00
C1033  C     0.64252   0.97968   0.72178   0.00000  Uiso   1.00
C1034  C     0.35748   0.68698   0.77823   0.00000  Uiso   1.00
C1035  C     0.33439   0.95718   0.74757   0.00000  Uiso   1.00
C1036  C     0.66561   0.70948   0.75244   0.00000  Uiso   1.00
C1037  C     0.51601   0.80977   0.77994   0.00000  Uiso   1.00
C1038  C     0.48399   0.85690   0.72006   0.00000  Uiso   1.00
C1039  C     0.46642   0.80981   0.77996   0.00000  Uiso   1.00
C1040  C     0.53358   0.85686   0.72005   0.00000  Uiso   1.00
C1041  C     0.63943   0.83382   0.83604   0.00000  Uiso   1.00
C1042  C     0.36057   0.83327   0.66393   0.00000  Uiso   1.00
C1043  C     0.62431   0.83793   0.88490   0.00000  Uiso   1.00
C1044  C     0.37552   0.83255   0.61481   0.00000  Uiso   1.00
C1045  C     0.63943   0.86058   0.95415   0.00000  Uiso   1.00
C1046  C     0.35833   0.82014   0.54376   0.00000  Uiso   1.00
C1047  C     0.65640   0.85231   0.90858   0.00000  Uiso   1.00
C1048  C     0.34234   0.82358   0.59012   0.00000  Uiso   1.00
C1049  C     0.57560   0.83088   0.90733   0.00000  Uiso   1.00
C1050  C     0.42439   0.83944   0.59263   0.00000  Uiso   1.00
C1051  C     0.55706   0.84057   0.95290   0.00000  Uiso   1.00
C1052  C     0.44133   0.83718   0.54574   0.00000  Uiso   1.00
C1053  C     0.59018   0.85489   0.97643   0.00000  Uiso   1.00
C1054  C     0.40746   0.82644   0.52148   0.00000  Uiso   1.00
C1055  C     0.50676   0.83657   0.97556   0.00000  Uiso   1.00
C1056  C     0.49105   0.84394   0.52254   0.00000  Uiso   1.00
Cu1057 Cu    0.38022   0.83334   0.75000   0.00000  Uiso   1.00
Cu1058 Cu    0.61978   0.83333   0.75000   0.00000  Uiso   1.00
H1059  H     0.59880   0.87528   0.54000   0.00000  Uiso   1.00
H1060  H     0.39731   0.81367   0.95638   0.00000  Uiso   1.00
H1061  H     0.44877   0.84529   0.61299   0.00000  Uiso   1.00
H1062  H     0.55297   0.81774   0.88818   0.00000  Uiso   1.00
H1063  H     0.63771   0.81806   0.60669   0.00000  Uiso   1.00
H1064  H     0.36087   0.85818   0.89172   0.00000  Uiso   1.00
H1065  H     0.66465   0.87228   0.97184   0.00000  Uiso   1.00
H1066  H     0.66570   0.81186   0.52535   0.00000  Uiso   1.00
H1067  H     0.51601   0.86703   0.57935   0.00000  Uiso   1.00
H1068  H     0.47984   0.82275   0.91693   0.00000  Uiso   1.00
H1069  H     0.62227   0.70636   0.70506   0.00000  Uiso   1.00
H1070  H     0.37771   0.96030   0.79496   0.00000  Uiso   1.00
H1071  H     0.52763   0.79081   0.80389   0.00000  Uiso   1.00
H1072  H     0.47237   0.87587   0.69611   0.00000  Uiso   1.00
H1073  H     0.44072   0.79093   0.80392   0.00000  Uiso   1.00
H1074  H     0.55928   0.87574   0.69608   0.00000  Uiso   1.00
N1075  N     0.45069   0.83334   0.74999   0.00000  Uiso   1.00
N1076  N     0.54931   0.83332   0.75001   0.00000  Uiso   1.00
O1077  O     0.37291   0.77322   0.75000   0.00000  Uiso   1.00
O1078  O     0.62709   0.89345   0.75000   0.00000  Uiso   1.00
O1079  O     0.62706   0.77321   0.75001   0.00000  Uiso   1.00
O1080  O     0.37294   0.89346   0.75000   0.00000  Uiso   1.00
O1081  O     0.35186   0.83334   0.81492   0.00000  Uiso   1.00
O1082  O     0.64814   0.83332   0.68509   0.00000  Uiso   1.00
O1083  O     0.60600   0.83333   0.81492   0.00000  Uiso   1.00
O1084  O     0.39400   0.83333   0.68508   0.00000  Uiso   1.00
O1085  O     0.62024   0.96167   0.69206   0.00000  Uiso   1.00
H1086  H     0.63544   0.93459   0.68259   0.00000  Uiso   1.00
O1087  O     0.37977   0.70499   0.80793   0.00000  Uiso   1.00
H1088  H     0.36462   0.73209   0.81738   0.00000  Uiso   1.00
C1089  C     0.99954   0.75411   0.75135   0.00000  Uiso   1.00
C1090  C     0.66713   0.91255   0.74866   0.00000  Uiso   1.00
C1091  C     0.85875   0.85840   0.54457   0.00000  Uiso   1.00
C1092  C     0.80484   0.82641   0.95268   0.00000  Uiso   1.00
C1093  C     0.90720   0.86388   0.52182   0.00000  Uiso   1.00
C1094  C     0.75625   0.82167   0.97528   0.00000  Uiso   1.00
C1095  C     0.97438   0.68900   0.72526   0.00000  Uiso   1.00
C1096  C     0.69227   0.97766   0.77476   0.00000  Uiso   1.00
C1097  C     0.97586   0.97968   0.72178   0.00000  Uiso   1.00
C1098  C     0.69081   0.68698   0.77823   0.00000  Uiso   1.00
C1099  C     0.66773   0.95718   0.74757   0.00000  Uiso   1.00
C1100  C     0.99894   0.70948   0.75244   0.00000  Uiso   1.00
C1101  C     0.84934   0.80977   0.77994   0.00000  Uiso   1.00
C1102  C     0.81732   0.85690   0.72006   0.00000  Uiso   1.00
C1103  C     0.79975   0.80981   0.77996   0.00000  Uiso   1.00
C1104  C     0.86691   0.85686   0.72005   0.00000  Uiso   1.00
C1105  C     0.97277   0.83382   0.83604   0.00000  Uiso   1.00
C1106  C     0.69390   0.83327   0.66393   0.00000  Uiso   1.00
C1107  C     0.95764   0.83793   0.88490   0.00000  Uiso   1.00
C1108  C     0.70886   0.83255   0.61481   0.00000  Uiso   1.00
C1109  C     0.97276   0.86058   0.95415   0.00000  Uiso   1.00
C1110  C     0.69166   0.82014   0.54376   0.00000  Uiso   1.00
C1111  C     0.98973   0.85231   0.90858   0.00000  Uiso   1.00
C1112  C     0.67567   0.82358   0.59012   0.00000  Uiso   1.00
C1113  C     0.90893   0.83088   0.90733   0.00000  Uiso   1.00
C1114  C     0.75772   0.83944   0.59263   0.00000  Uiso   1.00
C1115  C     0.89039   0.84057   0.95290   0.00000  Uiso   1.00
C1116  C     0.77466   0.83718   0.54574   0.00000  Uiso   1.00
C1117  C     0.92352   0.85489   0.97643   0.00000  Uiso   1.00
C1118  C     0.74080   0.82644   0.52148   0.00000  Uiso   1.00
C1119  C     0.84009   0.83657   0.97556   0.00000  Uiso   1.00
C1120  C     0.82439   0.84394   0.52254   0.00000  Uiso   1.00
Cu1121 Cu    0.71355   0.83334   0.75000   0.00000  Uiso   1.00
Cu1122 Cu    0.95311   0.83333   0.75000   0.00000  Uiso   1.00
H1123  H     0.93213   0.87528   0.54000   0.00000  Uiso   1.00
H1124  H     0.73064   0.81367   0.95638   0.00000  Uiso   1.00
H1125  H     0.78211   0.84529   0.61299   0.00000  Uiso   1.00
H1126  H     0.88630   0.81774   0.88818   0.00000  Uiso   1.00
H1127  H     0.97105   0.81806   0.60669   0.00000  Uiso   1.00
H1128  H     0.69420   0.85818   0.89172   0.00000  Uiso   1.00
H1129  H     0.99798   0.87228   0.97184   0.00000  Uiso   1.00
H1130  H     0.99903   0.81186   0.52535   0.00000  Uiso   1.00
H1131  H     0.84935   0.86703   0.57935   0.00000  Uiso   1.00
H1132  H     0.81317   0.82275   0.91693   0.00000  Uiso   1.00
H1133  H     0.95560   0.70636   0.70506   0.00000  Uiso   1.00
H1134  H     0.71105   0.96030   0.79496   0.00000  Uiso   1.00
H1135  H     0.86096   0.79081   0.80389   0.00000  Uiso   1.00
H1136  H     0.80570   0.87587   0.69611   0.00000  Uiso   1.00
H1137  H     0.77405   0.79093   0.80392   0.00000  Uiso   1.00
H1138  H     0.89261   0.87574   0.69608   0.00000  Uiso   1.00
N1139  N     0.78403   0.83334   0.74999   0.00000  Uiso   1.00
N1140  N     0.88264   0.83332   0.75001   0.00000  Uiso   1.00
O1141  O     0.70625   0.77322   0.75000   0.00000  Uiso   1.00
O1142  O     0.96042   0.89345   0.75000   0.00000  Uiso   1.00
O1143  O     0.96039   0.77321   0.75001   0.00000  Uiso   1.00
O1144  O     0.70628   0.89346   0.75000   0.00000  Uiso   1.00
O1145  O     0.68519   0.83334   0.81492   0.00000  Uiso   1.00
O1146  O     0.98148   0.83332   0.68509   0.00000  Uiso   1.00
O1147  O     0.93933   0.83333   0.81492   0.00000  Uiso   1.00
O1148  O     0.72733   0.83333   0.68508   0.00000  Uiso   1.00
O1149  O     0.95358   0.96167   0.69206   0.00000  Uiso   1.00
H1150  H     0.96878   0.93459   0.68259   0.00000  Uiso   1.00
O1151  O     0.71310   0.70499   0.80793   0.00000  Uiso   1.00
H1152  H     0.69795   0.73209   0.81738   0.00000  Uiso   1.00
loop_
_geom_bond_atom_site_label_1
_geom_bond_atom_site_label_2
_geom_bond_distance
_geom_bond_site_symmetry_2
_ccdc_geom_bond_type
C1     O55     1.290   .     A
C1     C12     1.446   .     S
C1     O117    1.290   .     S
C2     O56     1.290   .     A
C2     C11     1.446   .     S
C2     O182    1.290   1_455 S
C3     H43     1.076   .     S
C3     C32     1.417   .     A
C3     C5      1.386   .     A
C4     H44     1.076   .     S
C4     C31     1.417   .     A
C4     C6      1.386   .     A
C5     H35     1.084   .     S
C5     C605    1.390   1_554 S
C6     H36     1.084   .     S
C6     C606    1.390   .     S
C7     H45     1.085   .     S
C7     C12     1.399   .     A
C7     C393    1.386   1_545 S
C8     C11     1.399   .     A
C8     H46     1.085   .     S
C8     C202    1.386   .     S
C9     O61     1.381   .     S
C9     C199    1.386   .     S
C9     C75     1.414   .     S
C10    O63     1.381   .     S
C10    C392    1.386   1_545 S
C10    C140    1.414   1_455 S
C11    C137    1.414   1_455 S
C12    C74     1.414   .     S
C13    N52     1.368   .     A
C13    C15     1.417   .     A
C13    H47     1.082   .     S
C14    C16     1.417   .     A
C14    H48     1.082   .     S
C14    N51     1.368   .     A
C15    N51     1.367   .     A
C15    H49     1.082   .     S
C16    N52     1.367   .     A
C16    H50     1.082   .     S
C17    O59     1.295   .     A
C17    C19     1.466   .     S
C17    O121    1.297   .     S
C18    C20     1.467   .     S
C18    O60     1.295   .     A
C18    O186    1.297   1_455 S
C19    C23     1.398   .     A
C19    C25     1.398   .     A
C20    C24     1.399   .     A
C20    C26     1.399   .     A
C21    C29     1.404   .     A
C21    H41     1.084   .     S
C21    C23     1.392   .     A
C22    C24     1.391   .     A
C22    C30     1.404   .     A
C22    H170    1.083   1_455 S
C23    H104    1.083   .     S
C24    H167    1.083   1_455 S
C25    H38     1.075   .     S
C25    C27     1.405   .     A
C26    H37     1.075   .     S
C26    C28     1.406   .     A
C27    C29     1.418   .     A
C27    C31     1.427   .     A
C28    C30     1.418   .     A
C28    C32     1.427   .     A
C29    C581    1.390   .     S
C30    C582    1.390   1_554 S
C31    C608    1.425   .     S
C32    C607    1.425   1_554 S
Cu33   N51     2.014   .     S
Cu33   O56     1.959   .     S
Cu33   O60     1.944   .     S
Cu33   O53     1.958   .     S
Cu33   O57     1.958   .     S
Cu33   Cu162   2.680   1_455 S
Cu34   N52     2.014   .     S
Cu34   O55     1.959   .     S
Cu34   O54     1.958   .     S
Cu34   O58     1.958   .     S
Cu34   O59     1.944   .     S
Cu34   Cu97    2.680   .     S
H39    C88     1.083   .     S
H40    C151    1.083   1_455 S
H42    C86     1.083   .     S
O53    C129    1.290   1_455 S
O54    C66     1.290   .     S
O57    C145    1.297   1_455 S
O58    C82     1.297   .     S
O61    H62     0.989   .     S
O63    H64     0.989   .     S
C65    O119    1.290   .     A
C65    C76     1.446   .     S
C65    O181    1.290   .     S
C66    O120    1.290   .     A
C66    C75     1.446   .     S
C67    H107    1.076   .     S
C67    C96     1.417   .     A
C67    C69     1.386   .     A
C68    H108    1.076   .     S
C68    C95     1.417   .     A
C68    C70     1.386   .     A
C69    H99     1.084   .     S
C69    C669    1.390   1_554 S
C70    H100    1.084   .     S
C70    C670    1.390   .     S
C71    H109    1.085   .     S
C71    C76     1.399   .     A
C71    C457    1.386   1_545 S
C72    C75     1.399   .     A
C72    H110    1.085   .     S
C72    C266    1.386   .     S
C73    O125    1.381   .     S
C73    C263    1.386   .     S
C73    C139    1.414   .     S
C74    O127    1.381   .     S
C74    C456    1.386   1_545 S
C76    C138    1.414   .     S
C77    N116    1.368   .     A
C77    C79     1.417   .     A
C77    H111    1.082   .     S
C78    C80     1.417   .     A
C78    H112    1.082   .     S
C78    N115    1.368   .     A
C79    N115    1.367   .     A
C79    H113    1.082   .     S
C80    N116    1.367   .     A
C80    H114    1.082   .     S
C81    O123    1.295   .     A
C81    C83     1.466   .     S
C81    O185    1.297   .     S
C82    C84     1.467   .     S
C82    O124    1.295   .     A
C83    C87     1.398   .     A
C83    C89     1.398   .     A
C84    C88     1.399   .     A
C84    C90     1.399   .     A
C85    C93     1.404   .     A
C85    H105    1.084   .     S
C85    C87     1.392   .     A
C86    C88     1.391   .     A
C86    C94     1.404   .     A
C87    H168    1.083   .     S
C89    H102    1.075   .     S
C89    C91     1.405   .     A
C90    H101    1.075   .     S
C90    C92     1.406   .     A
C91    C93     1.418   .     A
C91    C95     1.427   .     A
C92    C94     1.418   .     A
C92    C96     1.427   .     A
C93    C645    1.390   .     S
C94    C646    1.390   1_554 S
C95    C672    1.425   .     S
C96    C671    1.425   1_554 S
Cu97   N115    2.014   .     S
Cu97   O120    1.959   .     S
Cu97   O124    1.944   .     S
Cu97   O117    1.958   .     S
Cu97   O121    1.958   .     S
Cu98   N116    2.014   .     S
Cu98   O119    1.959   .     S
Cu98   O118    1.958   .     S
Cu98   O122    1.958   .     S
Cu98   O123    1.944   .     S
Cu98   Cu161   2.680   .     S
H103   C152    1.083   .     S
H106   C150    1.083   .     S
O118   C130    1.290   .     S
O122   C146    1.297   .     S
O125   H126    0.989   .     S
O127   H128    0.989   .     S
C129   O183    1.290   .     A
C129   C140    1.446   .     S
C129   O53     1.290   1_655 S
C130   O184    1.290   .     A
C130   C139    1.446   .     S
C131   H171    1.076   .     S
C131   C160    1.417   .     A
C131   C133    1.386   .     A
C132   H172    1.076   .     S
C132   C159    1.417   .     A
C132   C134    1.386   .     A
C133   H163    1.084   .     S
C133   C733    1.390   1_554 S
C134   H164    1.084   .     S
C134   C734    1.390   .     S
C135   H173    1.085   .     S
C135   C140    1.399   .     A
C135   C521    1.386   1_545 S
C136   C139    1.399   .     A
C136   H174    1.085   .     S
C136   C330    1.386   .     S
C137   O189    1.381   .     S
C137   C327    1.386   .     S
C137   C11     1.414   1_655 S
C138   O191    1.381   .     S
C138   C520    1.386   1_545 S
C140   C10     1.414   1_655 S
C141   N180    1.368   .     A
C141   C143    1.417   .     A
C141   H175    1.082   .     S
C142   C144    1.417   .     A
C142   H176    1.082   .     S
C142   N179    1.368   .     A
C143   N179    1.367   .     A
C143   H177    1.082   .     S
C144   N180    1.367   .     A
C144   H178    1.082   .     S
C145   O187    1.295   .     A
C145   C147    1.466   .     S
C145   O57     1.297   1_655 S
C146   C148    1.467   .     S
C146   O188    1.295   .     A
C147   C151    1.398   .     A
C147   C153    1.398   .     A
C148   C152    1.399   .     A
C148   C154    1.399   .     A
C149   C157    1.404   .     A
C149   H169    1.084   .     S
C149   C151    1.392   .     A
C150   C152    1.391   .     A
C150   C158    1.404   .     A
C151   H40     1.083   1_655 S
C153   H166    1.075   .     S
C153   C155    1.405   .     A
C154   H165    1.075   .     S
C154   C156    1.406   .     A
C155   C157    1.418   .     A
C155   C159    1.427   .     A
C156   C158    1.418   .     A
C156   C160    1.427   .     A
C157   C709    1.390   .     S
C158   C710    1.390   1_554 S
C159   C736    1.425   .     S
C160   C735    1.425   1_554 S
Cu161  N179    2.014   .     S
Cu161  O184    1.959   .     S
Cu161  O188    1.944   .     S
Cu161  O181    1.958   .     S
Cu161  O185    1.958   .     S
Cu162  N180    2.014   .     S
Cu162  O183    1.959   .     S
Cu162  O182    1.958   .     S
Cu162  O186    1.958   .     S
Cu162  O187    1.944   .     S
Cu162  Cu33    2.680   1_655 S
H167   C24     1.083   1_655 S
H170   C22     1.083   1_655 S
O182   C2      1.290   1_655 S
O186   C18     1.297   1_655 S
O189   H190    0.989   .     S
O191   H192    0.989   .     S
C193   O247    1.290   .     A
C193   C204    1.446   .     S
C193   O309    1.290   .     S
C194   O248    1.290   .     A
C194   C203    1.446   .     S
C194   O374    1.290   1_455 S
C195   H235    1.076   .     S
C195   C224    1.417   .     A
C195   C197    1.386   .     A
C196   H236    1.076   .     S
C196   C223    1.417   .     A
C196   C198    1.386   .     A
C197   H227    1.084   .     S
C197   C797    1.390   1_554 S
C198   H228    1.084   .     S
C198   C798    1.390   .     S
C199   H237    1.085   .     S
C199   C204    1.399   .     A
C200   C203    1.399   .     A
C200   H238    1.085   .     S
C200   C394    1.386   .     S
C201   O253    1.381   .     S
C201   C391    1.386   .     S
C201   C267    1.414   .     S
C202   O255    1.381   .     S
C202   C332    1.414   1_455 S
C203   C329    1.414   1_455 S
C204   C266    1.414   .     S
C205   N244    1.368   .     A
C205   C207    1.417   .     A
C205   H239    1.082   .     S
C206   C208    1.417   .     A
C206   H240    1.082   .     S
C206   N243    1.368   .     A
C207   N243    1.367   .     A
C207   H241    1.082   .     S
C208   N244    1.367   .     A
C208   H242    1.082   .     S
C209   O251    1.295   .     A
C209   C211    1.466   .     S
C209   O313    1.297   .     S
C210   C212    1.467   .     S
C210   O252    1.295   .     A
C210   O378    1.297   1_455 S
C211   C215    1.398   .     A
C211   C217    1.398   .     A
C212   C216    1.399   .     A
C212   C218    1.399   .     A
C213   C221    1.404   .     A
C213   H233    1.084   .     S
C213   C215    1.392   .     A
C214   C216    1.391   .     A
C214   C222    1.404   .     A
C214   H362    1.083   1_455 S
C215   H296    1.083   .     S
C216   H359    1.083   1_455 S
C217   H230    1.075   .     S
C217   C219    1.405   .     A
C218   H229    1.075   .     S
C218   C220    1.406   .     A
C219   C221    1.418   .     A
C219   C223    1.427   .     A
C220   C222    1.418   .     A
C220   C224    1.427   .     A
C221   C773    1.390   .     S
C222   C774    1.390   1_554 S
C223   C800    1.425   .     S
C224   C799    1.425   1_554 S
Cu225  N243    2.014   .     S
Cu225  O248    1.959   .     S
Cu225  O252    1.944   .     S
Cu225  O245    1.958   .     S
Cu225  O249    1.958   .     S
Cu225  Cu354   2.680   1_455 S
Cu226  N244    2.014   .     S
Cu226  O247    1.959   .     S
Cu226  O246    1.958   .     S
Cu226  O250    1.958   .     S
Cu226  O251    1.944   .     S
Cu226  Cu289   2.680   .     S
H231   C280    1.083   .     S
H232   C343    1.083   1_455 S
H234   C278    1.083   .     S
O245   C321    1.290   1_455 S
O246   C258    1.290   .     S
O249   C337    1.297   1_455 S
O250   C274    1.297   .     S
O253   H254    0.989   .     S
O255   H256    0.989   .     S
C257   O311    1.290   .     A
C257   C268    1.446   .     S
C257   O373    1.290   .     S
C258   O312    1.290   .     A
C258   C267    1.446   .     S
C259   H299    1.076   .     S
C259   C288    1.417   .     A
C259   C261    1.386   .     A
C260   H300    1.076   .     S
C260   C287    1.417   .     A
C260   C262    1.386   .     A
C261   H291    1.084   .     S
C261   C861    1.390   1_554 S
C262   H292    1.084   .     S
C262   C862    1.390   .     S
C263   H301    1.085   .     S
C263   C268    1.399   .     A
C264   C267    1.399   .     A
C264   H302    1.085   .     S
C264   C458    1.386   .     S
C265   O317    1.381   .     S
C265   C455    1.386   .     S
C265   C331    1.414   .     S
C266   O319    1.381   .     S
C268   C330    1.414   .     S
C269   N308    1.368   .     A
C269   C271    1.417   .     A
C269   H303    1.082   .     S
C270   C272    1.417   .     A
C270   H304    1.082   .     S
C270   N307    1.368   .     A
C271   N307    1.367   .     A
C271   H305    1.082   .     S
C272   N308    1.367   .     A
C272   H306    1.082   .     S
C273   O315    1.295   .     A
C273   C275    1.466   .     S
C273   O377    1.297   .     S
C274   C276    1.467   .     S
C274   O316    1.295   .     A
C275   C279    1.398   .     A
C275   C281    1.398   .     A
C276   C280    1.399   .     A
C276   C282    1.399   .     A
C277   C285    1.404   .     A
C277   H297    1.084   .     S
C277   C279    1.392   .     A
C278   C280    1.391   .     A
C278   C286    1.404   .     A
C279   H360    1.083   .     S
C281   H294    1.075   .     S
C281   C283    1.405   .     A
C282   H293    1.075   .     S
C282   C284    1.406   .     A
C283   C285    1.418   .     A
C283   C287    1.427   .     A
C284   C286    1.418   .     A
C284   C288    1.427   .     A
C285   C837    1.390   .     S
C286   C838    1.390   1_554 S
C287   C864    1.425   .     S
C288   C863    1.425   1_554 S
Cu289  N307    2.014   .     S
Cu289  O312    1.959   .     S
Cu289  O316    1.944   .     S
Cu289  O309    1.958   .     S
Cu289  O313    1.958   .     S
Cu290  N308    2.014   .     S
Cu290  O311    1.959   .     S
Cu290  O310    1.958   .     S
Cu290  O314    1.958   .     S
Cu290  O315    1.944   .     S
Cu290  Cu353   2.680   .     S
H295   C344    1.083   .     S
H298   C342    1.083   .     S
O310   C322    1.290   .     S
O314   C338    1.297   .     S
O317   H318    0.989   .     S
O319   H320    0.989   .     S
C321   O375    1.290   .     A
C321   C332    1.446   .     S
C321   O245    1.290   1_655 S
C322   O376    1.290   .     A
C322   C331    1.446   .     S
C323   H363    1.076   .     S
C323   C352    1.417   .     A
C323   C325    1.386   .     A
C324   H364    1.076   .     S
C324   C351    1.417   .     A
C324   C326    1.386   .     A
C325   H355    1.084   .     S
C325   C925    1.390   1_554 S
C326   H356    1.084   .     S
C326   C926    1.390   .     S
C327   H365    1.085   .     S
C327   C332    1.399   .     A
C328   C331    1.399   .     A
C328   H366    1.085   .     S
C328   C522    1.386   .     S
C329   O381    1.381   .     S
C329   C519    1.386   .     S
C329   C203    1.414   1_655 S
C330   O383    1.381   .     S
C332   C202    1.414   1_655 S
C333   N372    1.368   .     A
C333   C335    1.417   .     A
C333   H367    1.082   .     S
C334   C336    1.417   .     A
C334   H368    1.082   .     S
C334   N371    1.368   .     A
C335   N371    1.367   .     A
C335   H369    1.082   .     S
C336   N372    1.367   .     A
C336   H370    1.082   .     S
C337   O379    1.295   .     A
C337   C339    1.466   .     S
C337   O249    1.297   1_655 S
C338   C340    1.467   .     S
C338   O380    1.295   .     A
C339   C343    1.398   .     A
C339   C345    1.398   .     A
C340   C344    1.399   .     A
C340   C346    1.399   .     A
C341   C349    1.404   .     A
C341   H361    1.084   .     S
C341   C343    1.392   .     A
C342   C344    1.391   .     A
C342   C350    1.404   .     A
C343   H232    1.083   1_655 S
C345   H358    1.075   .     S
C345   C347    1.405   .     A
C346   H357    1.075   .     S
C346   C348    1.406   .     A
C347   C349    1.418   .     A
C347   C351    1.427   .     A
C348   C350    1.418   .     A
C348   C352    1.427   .     A
C349   C901    1.390   .     S
C350   C902    1.390   1_554 S
C351   C928    1.425   .     S
C352   C927    1.425   1_554 S
Cu353  N371    2.014   .     S
Cu353  O376    1.959   .     S
Cu353  O380    1.944   .     S
Cu353  O373    1.958   .     S
Cu353  O377    1.958   .     S
Cu354  N372    2.014   .     S
Cu354  O375    1.959   .     S
Cu354  O374    1.958   .     S
Cu354  O378    1.958   .     S
Cu354  O379    1.944   .     S
Cu354  Cu225   2.680   1_655 S
H359   C216    1.083   1_655 S
H362   C214    1.083   1_655 S
O374   C194    1.290   1_655 S
O378   C210    1.297   1_655 S
O381   H382    0.989   .     S
O383   H384    0.989   .     S
C385   O439    1.290   .     A
C385   C396    1.446   .     S
C385   O501    1.290   .     S
C386   O440    1.290   .     A
C386   C395    1.446   .     S
C386   O566    1.290   1_455 S
C387   H427    1.076   .     S
C387   C416    1.417   .     A
C387   C389    1.386   .     A
C388   H428    1.076   .     S
C388   C415    1.417   .     A
C388   C390    1.386   .     A
C389   H419    1.084   .     S
C389   C989    1.390   1_554 S
C390   H420    1.084   .     S
C390   C990    1.390   .     S
C391   H429    1.085   .     S
C391   C396    1.399   .     A
C392   C395    1.399   .     A
C392   H430    1.085   .     S
C392   C10     1.386   1_565 S
C393   O445    1.381   .     S
C393   C7      1.386   1_565 S
C393   C459    1.414   .     S
C394   O447    1.381   .     S
C394   C524    1.414   1_455 S
C395   C521    1.414   1_455 S
C396   C458    1.414   .     S
C397   N436    1.368   .     A
C397   C399    1.417   .     A
C397   H431    1.082   .     S
C398   C400    1.417   .     A
C398   H432    1.082   .     S
C398   N435    1.368   .     A
C399   N435    1.367   .     A
C399   H433    1.082   .     S
C400   N436    1.367   .     A
C400   H434    1.082   .     S
C401   O443    1.295   .     A
C401   C403    1.466   .     S
C401   O505    1.297   .     S
C402   C404    1.467   .     S
C402   O444    1.295   .     A
C402   O570    1.297   1_455 S
C403   C407    1.398   .     A
C403   C409    1.398   .     A
C404   C408    1.399   .     A
C404   C410    1.399   .     A
C405   C413    1.404   .     A
C405   H425    1.084   .     S
C405   C407    1.392   .     A
C406   C408    1.391   .     A
C406   C414    1.404   .     A
C406   H554    1.083   1_455 S
C407   H488    1.083   .     S
C408   H551    1.083   1_455 S
C409   H422    1.075   .     S
C409   C411    1.405   .     A
C410   H421    1.075   .     S
C410   C412    1.406   .     A
C411   C413    1.418   .     A
C411   C415    1.427   .     A
C412   C414    1.418   .     A
C412   C416    1.427   .     A
C413   C965    1.390   .     S
C414   C966    1.390   1_554 S
C415   C992    1.425   .     S
C416   C991    1.425   1_554 S
Cu417  N435    2.014   .     S
Cu417  O440    1.959   .     S
Cu417  O444    1.944   .     S
Cu417  O437    1.958   .     S
Cu417  O441    1.958   .     S
Cu417  Cu546   2.680   1_455 S
Cu418  N436    2.014   .     S
Cu418  O439    1.959   .     S
Cu418  O438    1.958   .     S
Cu418  O442    1.958   .     S
Cu418  O443    1.944   .     S
Cu418  Cu481   2.680   .     S
H423   C472    1.083   .     S
H424   C535    1.083   1_455 S
H426   C470    1.083   .     S
O437   C513    1.290   1_455 S
O438   C450    1.290   .     S
O441   C529    1.297   1_455 S
O442   C466    1.297   .     S
O445   H446    0.989   .     S
O447   H448    0.989   .     S
C449   O503    1.290   .     A
C449   C460    1.446   .     S
C449   O565    1.290   .     S
C450   O504    1.290   .     A
C450   C459    1.446   .     S
C451   H491    1.076   .     S
C451   C480    1.417   .     A
C451   C453    1.386   .     A
C452   H492    1.076   .     S
C452   C479    1.417   .     A
C452   C454    1.386   .     A
C453   H483    1.084   .     S
C453   C1053   1.390   1_554 S
C454   H484    1.084   .     S
C454   C1054   1.390   .     S
C455   H493    1.085   .     S
C455   C460    1.399   .     A
C456   C459    1.399   .     A
C456   H494    1.085   .     S
C456   C74     1.386   1_565 S
C457   O509    1.381   .     S
C457   C71     1.386   1_565 S
C457   C523    1.414   .     S
C458   O511    1.381   .     S
C460   C522    1.414   .     S
C461   N500    1.368   .     A
C461   C463    1.417   .     A
C461   H495    1.082   .     S
C462   C464    1.417   .     A
C462   H496    1.082   .     S
C462   N499    1.368   .     A
C463   N499    1.367   .     A
C463   H497    1.082   .     S
C464   N500    1.367   .     A
C464   H498    1.082   .     S
C465   O507    1.295   .     A
C465   C467    1.466   .     S
C465   O569    1.297   .     S
C466   C468    1.467   .     S
C466   O508    1.295   .     A
C467   C471    1.398   .     A
C467   C473    1.398   .     A
C468   C472    1.399   .     A
C468   C474    1.399   .     A
C469   C477    1.404   .     A
C469   H489    1.084   .     S
C469   C471    1.392   .     A
C470   C472    1.391   .     A
C470   C478    1.404   .     A
C471   H552    1.083   .     S
C473   H486    1.075   .     S
C473   C475    1.405   .     A
C474   H485    1.075   .     S
C474   C476    1.406   .     A
C475   C477    1.418   .     A
C475   C479    1.427   .     A
C476   C478    1.418   .     A
C476   C480    1.427   .     A
C477   C1029   1.390   .     S
C478   C1030   1.390   1_554 S
C479   C1056   1.425   .     S
C480   C1055   1.425   1_554 S
Cu481  N499    2.014   .     S
Cu481  O504    1.959   .     S
Cu481  O508    1.944   .     S
Cu481  O501    1.958   .     S
Cu481  O505    1.958   .     S
Cu482  N500    2.014   .     S
Cu482  O503    1.959   .     S
Cu482  O502    1.958   .     S
Cu482  O506    1.958   .     S
Cu482  O507    1.944   .     S
Cu482  Cu545   2.680   .     S
H487   C536    1.083   .     S
H490   C534    1.083   .     S
O502   C514    1.290   .     S
O506   C530    1.297   .     S
O509   H510    0.989   .     S
O511   H512    0.989   .     S
C513   O567    1.290   .     A
C513   C524    1.446   .     S
C513   O437    1.290   1_655 S
C514   O568    1.290   .     A
C514   C523    1.446   .     S
C515   H555    1.076   .     S
C515   C544    1.417   .     A
C515   C517    1.386   .     A
C516   H556    1.076   .     S
C516   C543    1.417   .     A
C516   C518    1.386   .     A
C517   H547    1.084   .     S
C517   C1117   1.390   1_554 S
C518   H548    1.084   .     S
C518   C1118   1.390   .     S
C519   H557    1.085   .     S
C519   C524    1.399   .     A
C520   C523    1.399   .     A
C520   H558    1.085   .     S
C520   C138    1.386   1_565 S
C521   O573    1.381   .     S
C521   C135    1.386   1_565 S
C521   C395    1.414   1_655 S
C522   O575    1.381   .     S
C524   C394    1.414   1_655 S
C525   N564    1.368   .     A
C525   C527    1.417   .     A
C525   H559    1.082   .     S
C526   C528    1.417   .     A
C526   H560    1.082   .     S
C526   N563    1.368   .     A
C527   N563    1.367   .     A
C527   H561    1.082   .     S
C528   N564    1.367   .     A
C528   H562    1.082   .     S
C529   O571    1.295   .     A
C529   C531    1.466   .     S
C529   O441    1.297   1_655 S
C530   C532    1.467   .     S
C530   O572    1.295   .     A
C531   C535    1.398   .     A
C531   C537    1.398   .     A
C532   C536    1.399   .     A
C532   C538    1.399   .     A
C533   C541    1.404   .     A
C533   H553    1.084   .     S
C533   C535    1.392   .     A
C534   C536    1.391   .     A
C534   C542    1.404   .     A
C535   H424    1.083   1_655 S
C537   H550    1.075   .     S
C537   C539    1.405   .     A
C538   H549    1.075   .     S
C538   C540    1.406   .     A
C539   C541    1.418   .     A
C539   C543    1.427   .     A
C540   C542    1.418   .     A
C540   C544    1.427   .     A
C541   C1093   1.390   .     S
C542   C1094   1.390   1_554 S
C543   C1120   1.425   .     S
C544   C1119   1.425   1_554 S
Cu545  N563    2.014   .     S
Cu545  O568    1.959   .     S
Cu545  O572    1.944   .     S
Cu545  O565    1.958   .     S
Cu545  O569    1.958   .     S
Cu546  N564    2.014   .     S
Cu546  O567    1.959   .     S
Cu546  O566    1.958   .     S
Cu546  O570    1.958   .     S
Cu546  O571    1.944   .     S
Cu546  Cu417   2.680   1_655 S
H551   C408    1.083   1_655 S
H554   C406    1.083   1_655 S
O566   C386    1.290   1_655 S
O570   C402    1.297   1_655 S
O573   H574    0.989   .     S
O575   H576    0.989   .     S
C577   O631    1.290   .     A
C577   C588    1.446   .     S
C577   O693    1.290   .     S
C578   O632    1.290   .     A
C578   C587    1.446   .     S
C578   O758    1.290   1_455 S
C579   H619    1.076   .     S
C579   C608    1.417   .     A
C579   C581    1.386   .     A
C580   H620    1.076   .     S
C580   C607    1.417   .     A
C580   C582    1.386   .     A
C581   H611    1.084   .     S
C582   H612    1.084   .     S
C582   C30     1.390   1_556 S
C583   H621    1.085   .     S
C583   C588    1.399   .     A
C583   C969    1.386   1_545 S
C584   C587    1.399   .     A
C584   H622    1.085   .     S
C584   C778    1.386   .     S
C585   O637    1.381   .     S
C585   C775    1.386   .     S
C585   C651    1.414   .     S
C586   O639    1.381   .     S
C586   C968    1.386   1_545 S
C586   C716    1.414   1_455 S
C587   C713    1.414   1_455 S
C588   C650    1.414   .     S
C589   N628    1.368   .     A
C589   C591    1.417   .     A
C589   H623    1.082   .     S
C590   C592    1.417   .     A
C590   H624    1.082   .     S
C590   N627    1.368   .     A
C591   N627    1.367   .     A
C591   H625    1.082   .     S
C592   N628    1.367   .     A
C592   H626    1.082   .     S
C593   O635    1.295   .     A
C593   C595    1.466   .     S
C593   O697    1.297   .     S
C594   C596    1.467   .     S
C594   O636    1.295   .     A
C594   O762    1.297   1_455 S
C595   C599    1.398   .     A
C595   C601    1.398   .     A
C596   C600    1.399   .     A
C596   C602    1.399   .     A
C597   C605    1.404   .     A
C597   H617    1.084   .     S
C597   C599    1.392   .     A
C598   C600    1.391   .     A
C598   C606    1.404   .     A
C598   H746    1.083   1_455 S
C599   H680    1.083   .     S
C600   H743    1.083   1_455 S
C601   H614    1.075   .     S
C601   C603    1.405   .     A
C602   H613    1.075   .     S
C602   C604    1.406   .     A
C603   C605    1.418   .     A
C603   C607    1.427   .     A
C604   C606    1.418   .     A
C604   C608    1.427   .     A
C605   C5      1.390   1_556 S
C607   C32     1.425   1_556 S
Cu609  N627    2.014   .     S
Cu609  O632    1.959   .     S
Cu609  O636    1.944   .     S
Cu609  O629    1.958   .     S
Cu609  O633    1.958   .     S
Cu609  Cu738   2.680   1_455 S
Cu610  N628    2.014   .     S
Cu610  O631    1.959   .     S
Cu610  O630    1.958   .     S
Cu610  O634    1.958   .     S
Cu610  O635    1.944   .     S
Cu610  Cu673   2.680   .     S
H615   C664    1.083   .     S
H616   C727    1.083   1_455 S
H618   C662    1.083   .     S
O629   C705    1.290   1_455 S
O630   C642    1.290   .     S
O633   C721    1.297   1_455 S
O634   C658    1.297   .     S
O637   H638    0.989   .     S
O639   H640    0.989   .     S
C641   O695    1.290   .     A
C641   C652    1.446   .     S
C641   O757    1.290   .     S
C642   O696    1.290   .     A
C642   C651    1.446   .     S
C643   H683    1.076   .     S
C643   C672    1.417   .     A
C643   C645    1.386   .     A
C644   H684    1.076   .     S
C644   C671    1.417   .     A
C644   C646    1.386   .     A
C645   H675    1.084   .     S
C646   H676    1.084   .     S
C646   C94     1.390   1_556 S
C647   H685    1.085   .     S
C647   C652    1.399   .     A
C647   C1033   1.386   1_545 S
C648   C651    1.399   .     A
C648   H686    1.085   .     S
C648   C842    1.386   .     S
C649   O701    1.381   .     S
C649   C839    1.386   .     S
C649   C715    1.414   .     S
C650   O703    1.381   .     S
C650   C1032   1.386   1_545 S
C652   C714    1.414   .     S
C653   N692    1.368   .     A
C653   C655    1.417   .     A
C653   H687    1.082   .     S
C654   C656    1.417   .     A
C654   H688    1.082   .     S
C654   N691    1.368   .     A
C655   N691    1.367   .     A
C655   H689    1.082   .     S
C656   N692    1.367   .     A
C656   H690    1.082   .     S
C657   O699    1.295   .     A
C657   C659    1.466   .     S
C657   O761    1.297   .     S
C658   C660    1.467   .     S
C658   O700    1.295   .     A
C659   C663    1.398   .     A
C659   C665    1.398   .     A
C660   C664    1.399   .     A
C660   C666    1.399   .     A
C661   C669    1.404   .     A
C661   H681    1.084   .     S
C661   C663    1.392   .     A
C662   C664    1.391   .     A
C662   C670    1.404   .     A
C663   H744    1.083   .     S
C665   H678    1.075   .     S
C665   C667    1.405   .     A
C666   H677    1.075   .     S
C666   C668    1.406   .     A
C667   C669    1.418   .     A
C667   C671    1.427   .     A
C668   C670    1.418   .     A
C668   C672    1.427   .     A
C669   C69     1.390   1_556 S
C671   C96     1.425   1_556 S
Cu673  N691    2.014   .     S
Cu673  O696    1.959   .     S
Cu673  O700    1.944   .     S
Cu673  O693    1.958   .     S
Cu673  O697    1.958   .     S
Cu674  N692    2.014   .     S
Cu674  O695    1.959   .     S
Cu674  O694    1.958   .     S
Cu674  O698    1.958   .     S
Cu674  O699    1.944   .     S
Cu674  Cu737   2.680   .     S
H679   C728    1.083   .     S
H682   C726    1.083   .     S
O694   C706    1.290   .     S
O698   C722    1.297   .     S
O701   H702    0.989   .     S
O703   H704    0.989   .     S
C705   O759    1.290   .     A
C705   C716    1.446   .     S
C705   O629    1.290   1_655 S
C706   O760    1.290   .     A
C706   C715    1.446   .     S
C707   H747    1.076   .     S
C707   C736    1.417   .     A
C707   C709    1.386   .     A
C708   H748    1.076   .     S
C708   C735    1.417   .     A
C708   C710    1.386   .     A
C709   H739    1.084   .     S
C710   H740    1.084   .     S
C710   C158    1.390   1_556 S
C711   H749    1.085   .     S
C711   C716    1.399   .     A
C711   C1097   1.386   1_545 S
C712   C715    1.399   .     A
C712   H750    1.085   .     S
C712   C906    1.386   .     S
C713   O765    1.381   .     S
C713   C903    1.386   .     S
C713   C587    1.414   1_655 S
C714   O767    1.381   .     S
C714   C1096   1.386   1_545 S
C716   C586    1.414   1_655 S
C717   N756    1.368   .     A
C717   C719    1.417   .     A
C717   H751    1.082   .     S
C718   C720    1.417   .     A
C718   H752    1.082   .     S
C718   N755    1.368   .     A
C719   N755    1.367   .     A
C719   H753    1.082   .     S
C720   N756    1.367   .     A
C720   H754    1.082   .     S
C721   O763    1.295   .     A
C721   C723    1.466   .     S
C721   O633    1.297   1_655 S
C722   C724    1.467   .     S
C722   O764    1.295   .     A
C723   C727    1.398   .     A
C723   C729    1.398   .     A
C724   C728    1.399   .     A
C724   C730    1.399   .     A
C725   C733    1.404   .     A
C725   H745    1.084   .     S
C725   C727    1.392   .     A
C726   C728    1.391   .     A
C726   C734    1.404   .     A
C727   H616    1.083   1_655 S
C729   H742    1.075   .     S
C729   C731    1.405   .     A
C730   H741    1.075   .     S
C730   C732    1.406   .     A
C731   C733    1.418   .     A
C731   C735    1.427   .     A
C732   C734    1.418   .     A
C732   C736    1.427   .     A
C733   C133    1.390   1_556 S
C735   C160    1.425   1_556 S
Cu737  N755    2.014   .     S
Cu737  O760    1.959   .     S
Cu737  O764    1.944   .     S
Cu737  O757    1.958   .     S
Cu737  O761    1.958   .     S
Cu738  N756    2.014   .     S
Cu738  O759    1.959   .     S
Cu738  O758    1.958   .     S
Cu738  O762    1.958   .     S
Cu738  O763    1.944   .     S
Cu738  Cu609   2.680   1_655 S
H743   C600    1.083   1_655 S
H746   C598    1.083   1_655 S
O758   C578    1.290   1_655 S
O762   C594    1.297   1_655 S
O765   H766    0.989   .     S
O767   H768    0.989   .     S
C769   O823    1.290   .     A
C769   C780    1.446   .     S
C769   O885    1.290   .     S
C770   O824    1.290   .     A
C770   C779    1.446   .     S
C770   O950    1.290   1_455 S
C771   H811    1.076   .     S
C771   C800    1.417   .     A
C771   C773    1.386   .     A
C772   H812    1.076   .     S
C772   C799    1.417   .     A
C772   C774    1.386   .     A
C773   H803    1.084   .     S
C774   H804    1.084   .     S
C774   C222    1.390   1_556 S
C775   H813    1.085   .     S
C775   C780    1.399   .     A
C776   C779    1.399   .     A
C776   H814    1.085   .     S
C776   C970    1.386   .     S
C777   O829    1.381   .     S
C777   C967    1.386   .     S
C777   C843    1.414   .     S
C778   O831    1.381   .     S
C778   C908    1.414   1_455 S
C779   C905    1.414   1_455 S
C780   C842    1.414   .     S
C781   N820    1.368   .     A
C781   C783    1.417   .     A
C781   H815    1.082   .     S
C782   C784    1.417   .     A
C782   H816    1.082   .     S
C782   N819    1.368   .     A
C783   N819    1.367   .     A
C783   H817    1.082   .     S
C784   N820    1.367   .     A
C784   H818    1.082   .     S
C785   O827    1.295   .     A
C785   C787    1.466   .     S
C785   O889    1.297   .     S
C786   C788    1.467   .     S
C786   O828    1.295   .     A
C786   O954    1.297   1_455 S
C787   C791    1.398   .     A
C787   C793    1.398   .     A
C788   C792    1.399   .     A
C788   C794    1.399   .     A
C789   C797    1.404   .     A
C789   H809    1.084   .     S
C789   C791    1.392   .     A
C790   C792    1.391   .     A
C790   C798    1.404   .     A
C790   H938    1.083   1_455 S
C791   H872    1.083   .     S
C792   H935    1.083   1_455 S
C793   H806    1.075   .     S
C793   C795    1.405   .     A
C794   H805    1.075   .     S
C794   C796    1.406   .     A
C795   C797    1.418   .     A
C795   C799    1.427   .     A
C796   C798    1.418   .     A
C796   C800    1.427   .     A
C797   C197    1.390   1_556 S
C799   C224    1.425   1_556 S
Cu801  N819    2.014   .     S
Cu801  O824    1.959   .     S
Cu801  O828    1.944   .     S
Cu801  O821    1.958   .     S
Cu801  O825    1.958   .     S
Cu801  Cu930   2.680   1_455 S
Cu802  N820    2.014   .     S
Cu802  O823    1.959   .     S
Cu802  O822    1.958   .     S
Cu802  O826    1.958   .     S
Cu802  O827    1.944   .     S
Cu802  Cu865   2.680   .     S
H807   C856    1.083   .     S
H808   C919    1.083   1_455 S
H810   C854    1.083   .     S
O821   C897    1.290   1_455 S
O822   C834    1.290   .     S
O825   C913    1.297   1_455 S
O826   C850    1.297   .     S
O829   H830    0.989   .     S
O831   H832    0.989   .     S
C833   O887    1.290   .     A
C833   C844    1.446   .     S
C833   O949    1.290   .     S
C834   O888    1.290   .     A
C834   C843    1.446   .     S
C835   H875    1.076   .     S
C835   C864    1.417   .     A
C835   C837    1.386   .     A
C836   H876    1.076   .     S
C836   C863    1.417   .     A
C836   C838    1.386   .     A
C837   H867    1.084   .     S
C838   H868    1.084   .     S
C838   C286    1.390   1_556 S
C839   H877    1.085   .     S
C839   C844    1.399   .     A
C840   C843    1.399   .     A
C840   H878    1.085   .     S
C840   C1034   1.386   .     S
C841   O893    1.381   .     S
C841   C1031   1.386   .     S
C841   C907    1.414   .     S
C842   O895    1.381   .     S
C844   C906    1.414   .     S
C845   N884    1.368   .     A
C845   C847    1.417   .     A
C845   H879    1.082   .     S
C846   C848    1.417   .     A
C846   H880    1.082   .     S
C846   N883    1.368   .     A
C847   N883    1.367   .     A
C847   H881    1.082   .     S
C848   N884    1.367   .     A
C848   H882    1.082   .     S
C849   O891    1.295   .     A
C849   C851    1.466   .     S
C849   O953    1.297   .     S
C850   C852    1.467   .     S
C850   O892    1.295   .     A
C851   C855    1.398   .     A
C851   C857    1.398   .     A
C852   C856    1.399   .     A
C852   C858    1.399   .     A
C853   C861    1.404   .     A
C853   H873    1.084   .     S
C853   C855    1.392   .     A
C854   C856    1.391   .     A
C854   C862    1.404   .     A
C855   H936    1.083   .     S
C857   H870    1.075   .     S
C857   C859    1.405   .     A
C858   H869    1.075   .     S
C858   C860    1.406   .     A
C859   C861    1.418   .     A
C859   C863    1.427   .     A
C860   C862    1.418   .     A
C860   C864    1.427   .     A
C861   C261    1.390   1_556 S
C863   C288    1.425   1_556 S
Cu865  N883    2.014   .     S
Cu865  O888    1.959   .     S
Cu865  O892    1.944   .     S
Cu865  O885    1.958   .     S
Cu865  O889    1.958   .     S
Cu866  N884    2.014   .     S
Cu866  O887    1.959   .     S
Cu866  O886    1.958   .     S
Cu866  O890    1.958   .     S
Cu866  O891    1.944   .     S
Cu866  Cu929   2.680   .     S
H871   C920    1.083   .     S
H874   C918    1.083   .     S
O886   C898    1.290   .     S
O890   C914    1.297   .     S
O893   H894    0.989   .     S
O895   H896    0.989   .     S
C897   O951    1.290   .     A
C897   C908    1.446   .     S
C897   O821    1.290   1_655 S
C898   O952    1.290   .     A
C898   C907    1.446   .     S
C899   H939    1.076   .     S
C899   C928    1.417   .     A
C899   C901    1.386   .     A
C900   H940    1.076   .     S
C900   C927    1.417   .     A
C900   C902    1.386   .     A
C901   H931    1.084   .     S
C902   H932    1.084   .     S
C902   C350    1.390   1_556 S
C903   H941    1.085   .     S
C903   C908    1.399   .     A
C904   C907    1.399   .     A
C904   H942    1.085   .     S
C904   C1098   1.386   .     S
C905   O957    1.381   .     S
C905   C1095   1.386   .     S
C905   C779    1.414   1_655 S
C906   O959    1.381   .     S
C908   C778    1.414   1_655 S
C909   N948    1.368   .     A
C909   C911    1.417   .     A
C909   H943    1.082   .     S
C910   C912    1.417   .     A
C910   H944    1.082   .     S
C910   N947    1.368   .     A
C911   N947    1.367   .     A
C911   H945    1.082   .     S
C912   N948    1.367   .     A
C912   H946    1.082   .     S
C913   O955    1.295   .     A
C913   C915    1.466   .     S
C913   O825    1.297   1_655 S
C914   C916    1.467   .     S
C914   O956    1.295   .     A
C915   C919    1.398   .     A
C915   C921    1.398   .     A
C916   C920    1.399   .     A
C916   C922    1.399   .     A
C917   C925    1.404   .     A
C917   H937    1.084   .     S
C917   C919    1.392   .     A
C918   C920    1.391   .     A
C918   C926    1.404   .     A
C919   H808    1.083   1_655 S
C921   H934    1.075   .     S
C921   C923    1.405   .     A
C922   H933    1.075   .     S
C922   C924    1.406   .     A
C923   C925    1.418   .     A
C923   C927    1.427   .     A
C924   C926    1.418   .     A
C924   C928    1.427   .     A
C925   C325    1.390   1_556 S
C927   C352    1.425   1_556 S
Cu929  N947    2.014   .     S
Cu929  O952    1.959   .     S
Cu929  O956    1.944   .     S
Cu929  O949    1.958   .     S
Cu929  O953    1.958   .     S
Cu930  N948    2.014   .     S
Cu930  O951    1.959   .     S
Cu930  O950    1.958   .     S
Cu930  O954    1.958   .     S
Cu930  O955    1.944   .     S
Cu930  Cu801   2.680   1_655 S
H935   C792    1.083   1_655 S
H938   C790    1.083   1_655 S
O950   C770    1.290   1_655 S
O954   C786    1.297   1_655 S
O957   H958    0.989   .     S
O959   H960    0.989   .     S
C961   O1015   1.290   .     A
C961   C972    1.446   .     S
C961   O1077   1.290   .     S
C962   O1016   1.290   .     A
C962   C971    1.446   .     S
C962   O1142   1.290   1_455 S
C963   H1003   1.076   .     S
C963   C992    1.417   .     A
C963   C965    1.386   .     A
C964   H1004   1.076   .     S
C964   C991    1.417   .     A
C964   C966    1.386   .     A
C965   H995    1.084   .     S
C966   H996    1.084   .     S
C966   C414    1.390   1_556 S
C967   H1005   1.085   .     S
C967   C972    1.399   .     A
C968   C971    1.399   .     A
C968   H1006   1.085   .     S
C968   C586    1.386   1_565 S
C969   O1021   1.381   .     S
C969   C583    1.386   1_565 S
C969   C1035   1.414   .     S
C970   O1023   1.381   .     S
C970   C1100   1.414   1_455 S
C971   C1097   1.414   1_455 S
C972   C1034   1.414   .     S
C973   N1012   1.368   .     A
C973   C975    1.417   .     A
C973   H1007   1.082   .     S
C974   C976    1.417   .     A
C974   H1008   1.082   .     S
C974   N1011   1.368   .     A
C975   N1011   1.367   .     A
C975   H1009   1.082   .     S
C976   N1012   1.367   .     A
C976   H1010   1.082   .     S
C977   O1019   1.295   .     A
C977   C979    1.466   .     S
C977   O1081   1.297   .     S
C978   C980    1.467   .     S
C978   O1020   1.295   .     A
C978   O1146   1.297   1_455 S
C979   C983    1.398   .     A
C979   C985    1.398   .     A
C980   C984    1.399   .     A
C980   C986    1.399   .     A
C981   C989    1.404   .     A
C981   H1001   1.084   .     S
C981   C983    1.392   .     A
C982   C984    1.391   .     A
C982   C990    1.404   .     A
C982   H1130   1.083   1_455 S
C983   H1064   1.083   .     S
C984   H1127   1.083   1_455 S
C985   H998    1.075   .     S
C985   C987    1.405   .     A
C986   H997    1.075   .     S
C986   C988    1.406   .     A
C987   C989    1.418   .     A
C987   C991    1.427   .     A
C988   C990    1.418   .     A
C988   C992    1.427   .     A
C989   C389    1.390   1_556 S
C991   C416    1.425   1_556 S
Cu993  N1011   2.014   .     S
Cu993  O1016   1.959   .     S
Cu993  O1020   1.944   .     S
Cu993  O1013   1.958   .     S
Cu993  O1017   1.958   .     S
Cu993  Cu1122  2.680   1_455 S
Cu994  N1012   2.014   .     S
Cu994  O1015   1.959   .     S
Cu994  O1014   1.958   .     S
Cu994  O1018   1.958   .     S
Cu994  O1019   1.944   .     S
Cu994  Cu1057  2.680   .     S
H999   C1048   1.083   .     S
H1000  C1111   1.083   1_455 S
H1002  C1046   1.083   .     S
O1013  C1089   1.290   1_455 S
O1014  C1026   1.290   .     S
O1017  C1105   1.297   1_455 S
O1018  C1042   1.297   .     S
O1021  H1022   0.989   .     S
O1023  H1024   0.989   .     S
C1025  O1079   1.290   .     A
C1025  C1036   1.446   .     S
C1025  O1141   1.290   .     S
C1026  O1080   1.290   .     A
C1026  C1035   1.446   .     S
C1027  H1067   1.076   .     S
C1027  C1056   1.417   .     A
C1027  C1029   1.386   .     A
C1028  H1068   1.076   .     S
C1028  C1055   1.417   .     A
C1028  C1030   1.386   .     A
C1029  H1059   1.084   .     S
C1030  H1060   1.084   .     S
C1030  C478    1.390   1_556 S
C1031  H1069   1.085   .     S
C1031  C1036   1.399   .     A
C1032  C1035   1.399   .     A
C1032  H1070   1.085   .     S
C1032  C650    1.386   1_565 S
C1033  O1085   1.381   .     S
C1033  C647    1.386   1_565 S
C1033  C1099   1.414   .     S
C1034  O1087   1.381   .     S
C1036  C1098   1.414   .     S
C1037  N1076   1.368   .     A
C1037  C1039   1.417   .     A
C1037  H1071   1.082   .     S
C1038  C1040   1.417   .     A
C1038  H1072   1.082   .     S
C1038  N1075   1.368   .     A
C1039  N1075   1.367   .     A
C1039  H1073   1.082   .     S
C1040  N1076   1.367   .     A
C1040  H1074   1.082   .     S
C1041  O1083   1.295   .     A
C1041  C1043   1.466   .     S
C1041  O1145   1.297   .     S
C1042  C1044   1.467   .     S
C1042  O1084   1.295   .     A
C1043  C1047   1.398   .     A
C1043  C1049   1.398   .     A
C1044  C1048   1.399   .     A
C1044  C1050   1.399   .     A
C1045  C1053   1.404   .     A
C1045  H1065   1.084   .     S
C1045  C1047   1.392   .     A
C1046  C1048   1.391   .     A
C1046  C1054   1.404   .     A
C1047  H1128   1.083   .     S
C1049  H1062   1.075   .     S
C1049  C1051   1.405   .     A
C1050  H1061   1.075   .     S
C1050  C1052   1.406   .     A
C1051  C1053   1.418   .     A
C1051  C1055   1.427   .     A
C1052  C1054   1.418   .     A
C1052  C1056   1.427   .     A
C1053  C453    1.390   1_556 S
C1055  C480    1.425   1_556 S
Cu1057 N1075   2.014   .     S
Cu1057 O1080   1.959   .     S
Cu1057 O1084   1.944   .     S
Cu1057 O1077   1.958   .     S
Cu1057 O1081   1.958   .     S
Cu1058 N1076   2.014   .     S
Cu1058 O1079   1.959   .     S
Cu1058 O1078   1.958   .     S
Cu1058 O1082   1.958   .     S
Cu1058 O1083   1.944   .     S
Cu1058 Cu1121  2.680   .     S
H1063  C1112   1.083   .     S
H1066  C1110   1.083   .     S
O1078  C1090   1.290   .     S
O1082  C1106   1.297   .     S
O1085  H1086   0.989   .     S
O1087  H1088   0.989   .     S
C1089  O1143   1.290   .     A
C1089  C1100   1.446   .     S
C1089  O1013   1.290   1_655 S
C1090  O1144   1.290   .     A
C1090  C1099   1.446   .     S
C1091  H1131   1.076   .     S
C1091  C1120   1.417   .     A
C1091  C1093   1.386   .     A
C1092  H1132   1.076   .     S
C1092  C1119   1.417   .     A
C1092  C1094   1.386   .     A
C1093  H1123   1.084   .     S
C1094  H1124   1.084   .     S
C1094  C542    1.390   1_556 S
C1095  H1133   1.085   .     S
C1095  C1100   1.399   .     A
C1096  C1099   1.399   .     A
C1096  H1134   1.085   .     S
C1096  C714    1.386   1_565 S
C1097  O1149   1.381   .     S
C1097  C711    1.386   1_565 S
C1097  C971    1.414   1_655 S
C1098  O1151   1.381   .     S
C1100  C970    1.414   1_655 S
C1101  N1140   1.368   .     A
C1101  C1103   1.417   .     A
C1101  H1135   1.082   .     S
C1102  C1104   1.417   .     A
C1102  H1136   1.082   .     S
C1102  N1139   1.368   .     A
C1103  N1139   1.367   .     A
C1103  H1137   1.082   .     S
C1104  N1140   1.367   .     A
C1104  H1138   1.082   .     S
C1105  O1147   1.295   .     A
C1105  C1107   1.466   .     S
C1105  O1017   1.297   1_655 S
C1106  C1108   1.467   .     S
C1106  O1148   1.295   .     A
C1107  C1111   1.398   .     A
C1107  C1113   1.398   .     A
C1108  C1112   1.399   .     A
C1108  C1114   1.399   .     A
C1109  C1117   1.404   .     A
C1109  H1129   1.084   .     S
C1109  C1111   1.392   .     A
C1110  C1112   1.391   .     A
C1110  C1118   1.404   .     A
C1111  H1000   1.083   1_655 S
C1113  H1126   1.075   .     S
C1113  C1115   1.405   .     A
C1114  H1125   1.075   .     S
C1114  C1116   1.406   .     A
C1115  C1117   1.418   .     A
C1115  C1119   1.427   .     A
C1116  C1118   1.418   .     A
C1116  C1120   1.427   .     A
C1117  C517    1.390   1_556 S
C1119  C544    1.425   1_556 S
Cu1121 N1139   2.014   .     S
Cu1121 O1144   1.959   .     S
Cu1121 O1148   1.944   .     S
Cu1121 O1141   1.958   .     S
Cu1121 O1145   1.958   .     S
Cu1122 N1140   2.014   .     S
Cu1122 O1143   1.959   .     S
Cu1122 O1142   1.958   .     S
Cu1122 O1146   1.958   .     S
Cu1122 O1147   1.944   .     S
Cu1122 Cu993   2.680   1_655 S
H1127  C984    1.083   1_655 S
H1130  C982    1.083   1_655 S
O1142  C962    1.290   1_655 S
O1146  C978    1.297   1_655 S
O1149  H1150   0.989   .     S
O1151  H1152   0.989   .     S
