data_str_m1_o10_o16_pcu_sym.191
_audit_creation_date              2020-01-03
_audit_creation_method            'Materials Studio'
_symmetry_space_group_name_H-M    'P1'
_symmetry_Int_Tables_number       1
_symmetry_cell_setting            triclinic
loop_
_symmetry_equiv_pos_as_xyz
  x,y,z
_cell_length_a                    32.6147
_cell_length_b                    32.5986
_cell_length_c                    30.8770
_cell_angle_alpha                 96.6278
_cell_angle_beta                  74.4825
_cell_angle_gamma                 99.1555
loop_
_atom_site_label
_atom_site_type_symbol
_atom_site_fract_x
_atom_site_fract_y
_atom_site_fract_z
_atom_site_U_iso_or_equiv
_atom_site_adp_type
_atom_site_occupancy
C1     C     0.05260   0.15902   0.26065   0.00000  Uiso   1.00
C2     C     0.17886   0.16518   0.05690   0.00000  Uiso   1.00
C3     C     0.20788   0.10166   0.05894   0.00000  Uiso   1.00
C4     C     0.28102   0.17403   0.23967   0.00000  Uiso   1.00
C5     C     0.14317   0.19572   0.42032   0.00000  Uiso   1.00
C6     C     0.32744   0.17765   0.23447   0.00000  Uiso   1.00
C7     C     0.00782   0.15755   0.26255   0.00000  Uiso   1.00
C8     C     0.18277   0.32300   0.23579   0.00000  Uiso   1.00
C9     C     0.15268   0.01167   0.26229   0.00000  Uiso   1.00
C10    C     0.15534   0.05593   0.26079   0.00000  Uiso   1.00
C11    C     0.17705   0.27809   0.23999   0.00000  Uiso   1.00
C12    C     0.15065   0.25148   0.47830   0.00000  Uiso   1.00
C13    C     0.18534   0.14797   0.12912   0.00000  Uiso   1.00
C14    C     0.14862   0.18506   0.37110   0.00000  Uiso   1.00
C15    C     0.20234   0.08818   0.01516   0.00000  Uiso   1.00
C16    C     0.19265   0.13875   0.08044   0.00000  Uiso   1.00
C17    C     0.13951   0.23764   0.43817   0.00000  Uiso   1.00
C18    C     0.22995   0.07835   0.08279   0.00000  Uiso   1.00
C19    C     0.22175   0.00828   0.20228   0.00000  Uiso   1.00
C20    C     0.21799   0.04900   0.49188   0.00000  Uiso   1.00
C21    C     0.12628   0.26913   0.41566   0.00000  Uiso   1.00
C22    C     0.11621   0.10316   0.40781   0.00000  Uiso   1.00
C23    C     0.16381   0.22463   0.00184   0.00000  Uiso   1.00
C24    C     0.02336   0.20337   0.19839   0.00000  Uiso   1.00
C25    C     0.16283   0.18171   0.48803   0.00000  Uiso   1.00
C26    C     0.15034   0.16661   0.44785   0.00000  Uiso   1.00
C27    C     0.17534   0.15386   0.01265   0.00000  Uiso   1.00
C28    C     0.18198   0.11285   0.49375   0.00000  Uiso   1.00
C29    C     0.16415   0.09670   0.45698   0.00000  Uiso   1.00
C30    C     0.14526   0.12285   0.43661   0.00000  Uiso   1.00
H31    H     0.31875   0.13918   0.28820   0.00000  Uiso   1.00
H32    H     0.23537   0.04826   0.45657   0.00000  Uiso   1.00
H33    H     0.14491   0.29980   0.41238   0.00000  Uiso   1.00
H34    H     0.12272   0.07482   0.38660   0.00000  Uiso   1.00
H35    H     0.00983   0.21893   0.17731   0.00000  Uiso   1.00
H36    H     0.12455   0.33001   0.28549   0.00000  Uiso   1.00
H37    H     0.16727   0.19300   0.07546   0.00000  Uiso   1.00
H38    H     0.17532   0.23864   0.03052   0.00000  Uiso   1.00
H39    H     0.15017   0.28385   0.49109   0.00000  Uiso   1.00
H40    H     0.22025   0.07838   0.11923   0.00000  Uiso   1.00
H41    H     0.24493   0.32181   0.18258   0.00000  Uiso   1.00
H42    H     0.12793   0.04045   0.45031   0.00000  Uiso   1.00
H43    H     0.17512   0.04814   0.40972   0.00000  Uiso   1.00
N44    N     0.16040   0.05275   0.44410   0.00000  Uiso   1.00
O45    O     0.16667   0.16667   0.25000   0.00000  Uiso   1.00
O46    O     0.15451   0.12637   0.15459   0.00000  Uiso   1.00
O47    O     0.12940   0.20391   0.34968   0.00000  Uiso   1.00
O48    O     0.20824   0.17759   0.14606   0.00000  Uiso   1.00
O49    O     0.17451   0.15880   0.34968   0.00000  Uiso   1.00
O50    O     0.26066   0.06080   0.06234   0.00000  Uiso   1.00
O51    O     0.22871   0.04532   0.19600   0.00000  Uiso   1.00
O52    O     0.21010   0.01699   0.01130   0.00000  Uiso   1.00
O53    O     0.09289   0.26219   0.40373   0.00000  Uiso   1.00
O54    O     0.08374   0.11780   0.40874   0.00000  Uiso   1.00
O55    O     0.06239   0.20762   0.19148   0.00000  Uiso   1.00
O56    O     0.17930   0.08019   0.28214   0.00000  Uiso   1.00
O57    O     0.14632   0.26085   0.27014   0.00000  Uiso   1.00
O58    O     0.07412   0.13291   0.23413   0.00000  Uiso   1.00
O59    O     0.26693   0.19272   0.21361   0.00000  Uiso   1.00
O60    O     0.07071   0.18878   0.28213   0.00000  Uiso   1.00
O61    O     0.25491   0.15226   0.27014   0.00000  Uiso   1.00
O62    O     0.13760   0.06944   0.23413   0.00000  Uiso   1.00
O63    O     0.20345   0.25620   0.21361   0.00000  Uiso   1.00
Zn64   Zn    0.19338   0.13994   0.28734   0.00000  Uiso   1.00
Zn65   Zn    0.13379   0.12458   0.21876   0.00000  Uiso   1.00
Zn66   Zn    0.21056   0.19775   0.20657   0.00000  Uiso   1.00
Zn67   Zn    0.12893   0.20439   0.28734   0.00000  Uiso   1.00
C68    C     0.38593   0.15902   0.26065   0.00000  Uiso   1.00
C69    C     0.51219   0.16518   0.05690   0.00000  Uiso   1.00
C70    C     0.54121   0.10166   0.05894   0.00000  Uiso   1.00
C71    C     0.61436   0.17403   0.23967   0.00000  Uiso   1.00
C72    C     0.47650   0.19572   0.42032   0.00000  Uiso   1.00
C73    C     0.66077   0.17765   0.23447   0.00000  Uiso   1.00
C74    C     0.34115   0.15755   0.26255   0.00000  Uiso   1.00
C75    C     0.51610   0.32300   0.23579   0.00000  Uiso   1.00
C76    C     0.48601   0.01167   0.26229   0.00000  Uiso   1.00
C77    C     0.48867   0.05593   0.26079   0.00000  Uiso   1.00
C78    C     0.51038   0.27809   0.23999   0.00000  Uiso   1.00
C79    C     0.48399   0.25148   0.47830   0.00000  Uiso   1.00
C80    C     0.51868   0.14797   0.12912   0.00000  Uiso   1.00
C81    C     0.48196   0.18506   0.37110   0.00000  Uiso   1.00
C82    C     0.53567   0.08818   0.01516   0.00000  Uiso   1.00
C83    C     0.52598   0.13875   0.08044   0.00000  Uiso   1.00
C84    C     0.47284   0.23764   0.43817   0.00000  Uiso   1.00
C85    C     0.56328   0.07835   0.08279   0.00000  Uiso   1.00
C86    C     0.55508   0.00828   0.20228   0.00000  Uiso   1.00
C87    C     0.55132   0.04900   0.49188   0.00000  Uiso   1.00
C88    C     0.45962   0.26913   0.41566   0.00000  Uiso   1.00
C89    C     0.44954   0.10316   0.40781   0.00000  Uiso   1.00
C90    C     0.49714   0.22463   0.00184   0.00000  Uiso   1.00
C91    C     0.35669   0.20337   0.19839   0.00000  Uiso   1.00
C92    C     0.49616   0.18171   0.48803   0.00000  Uiso   1.00
C93    C     0.48367   0.16661   0.44785   0.00000  Uiso   1.00
C94    C     0.50867   0.15386   0.01265   0.00000  Uiso   1.00
C95    C     0.51531   0.11285   0.49375   0.00000  Uiso   1.00
C96    C     0.49748   0.09670   0.45698   0.00000  Uiso   1.00
C97    C     0.47859   0.12285   0.43661   0.00000  Uiso   1.00
H98    H     0.65209   0.13918   0.28820   0.00000  Uiso   1.00
H99    H     0.56871   0.04826   0.45657   0.00000  Uiso   1.00
H100   H     0.47824   0.29980   0.41238   0.00000  Uiso   1.00
H101   H     0.45605   0.07482   0.38660   0.00000  Uiso   1.00
H102   H     0.34316   0.21893   0.17731   0.00000  Uiso   1.00
H103   H     0.45788   0.33001   0.28549   0.00000  Uiso   1.00
H104   H     0.50060   0.19300   0.07546   0.00000  Uiso   1.00
H105   H     0.50865   0.23864   0.03052   0.00000  Uiso   1.00
H106   H     0.48350   0.28385   0.49109   0.00000  Uiso   1.00
H107   H     0.55358   0.07838   0.11923   0.00000  Uiso   1.00
H108   H     0.57826   0.32181   0.18258   0.00000  Uiso   1.00
H109   H     0.46126   0.04045   0.45031   0.00000  Uiso   1.00
H110   H     0.50845   0.04814   0.40972   0.00000  Uiso   1.00
N111   N     0.49374   0.05275   0.44410   0.00000  Uiso   1.00
O112   O     0.50000   0.16667   0.25000   0.00000  Uiso   1.00
O113   O     0.48784   0.12637   0.15459   0.00000  Uiso   1.00
O114   O     0.46274   0.20391   0.34968   0.00000  Uiso   1.00
O115   O     0.54157   0.17759   0.14606   0.00000  Uiso   1.00
O116   O     0.50785   0.15880   0.34968   0.00000  Uiso   1.00
O117   O     0.59400   0.06080   0.06234   0.00000  Uiso   1.00
O118   O     0.56205   0.04532   0.19600   0.00000  Uiso   1.00
O119   O     0.54343   0.01699   0.01130   0.00000  Uiso   1.00
O120   O     0.42622   0.26219   0.40373   0.00000  Uiso   1.00
O121   O     0.41707   0.11780   0.40874   0.00000  Uiso   1.00
O122   O     0.39572   0.20762   0.19148   0.00000  Uiso   1.00
O123   O     0.51264   0.08019   0.28214   0.00000  Uiso   1.00
O124   O     0.47965   0.26085   0.27014   0.00000  Uiso   1.00
O125   O     0.40745   0.13291   0.23413   0.00000  Uiso   1.00
O126   O     0.60026   0.19272   0.21361   0.00000  Uiso   1.00
O127   O     0.40405   0.18878   0.28213   0.00000  Uiso   1.00
O128   O     0.58824   0.15226   0.27014   0.00000  Uiso   1.00
O129   O     0.47093   0.06944   0.23413   0.00000  Uiso   1.00
O130   O     0.53678   0.25620   0.21361   0.00000  Uiso   1.00
Zn131  Zn    0.52672   0.13994   0.28734   0.00000  Uiso   1.00
Zn132  Zn    0.46713   0.12458   0.21876   0.00000  Uiso   1.00
Zn133  Zn    0.54389   0.19775   0.20657   0.00000  Uiso   1.00
Zn134  Zn    0.46226   0.20439   0.28734   0.00000  Uiso   1.00
C135   C     0.71926   0.15902   0.26065   0.00000  Uiso   1.00
C136   C     0.84553   0.16518   0.05690   0.00000  Uiso   1.00
C137   C     0.87455   0.10166   0.05894   0.00000  Uiso   1.00
C138   C     0.94769   0.17403   0.23967   0.00000  Uiso   1.00
C139   C     0.80983   0.19572   0.42032   0.00000  Uiso   1.00
C140   C     0.99411   0.17765   0.23447   0.00000  Uiso   1.00
C141   C     0.67449   0.15755   0.26255   0.00000  Uiso   1.00
C142   C     0.84943   0.32300   0.23579   0.00000  Uiso   1.00
C143   C     0.81935   0.01167   0.26229   0.00000  Uiso   1.00
C144   C     0.82200   0.05593   0.26079   0.00000  Uiso   1.00
C145   C     0.84371   0.27809   0.23999   0.00000  Uiso   1.00
C146   C     0.81732   0.25148   0.47830   0.00000  Uiso   1.00
C147   C     0.85201   0.14797   0.12912   0.00000  Uiso   1.00
C148   C     0.81529   0.18506   0.37110   0.00000  Uiso   1.00
C149   C     0.86901   0.08818   0.01516   0.00000  Uiso   1.00
C150   C     0.85932   0.13875   0.08044   0.00000  Uiso   1.00
C151   C     0.80617   0.23764   0.43817   0.00000  Uiso   1.00
C152   C     0.89661   0.07835   0.08279   0.00000  Uiso   1.00
C153   C     0.88842   0.00828   0.20228   0.00000  Uiso   1.00
C154   C     0.88465   0.04900   0.49188   0.00000  Uiso   1.00
C155   C     0.79295   0.26913   0.41566   0.00000  Uiso   1.00
C156   C     0.78288   0.10316   0.40781   0.00000  Uiso   1.00
C157   C     0.83047   0.22463   0.00184   0.00000  Uiso   1.00
C158   C     0.69003   0.20337   0.19839   0.00000  Uiso   1.00
C159   C     0.82949   0.18171   0.48803   0.00000  Uiso   1.00
C160   C     0.81701   0.16661   0.44785   0.00000  Uiso   1.00
C161   C     0.84200   0.15386   0.01265   0.00000  Uiso   1.00
C162   C     0.84864   0.11285   0.49375   0.00000  Uiso   1.00
C163   C     0.83081   0.09670   0.45698   0.00000  Uiso   1.00
C164   C     0.81193   0.12285   0.43661   0.00000  Uiso   1.00
H165   H     0.98542   0.13918   0.28820   0.00000  Uiso   1.00
H166   H     0.90204   0.04826   0.45657   0.00000  Uiso   1.00
H167   H     0.81158   0.29980   0.41238   0.00000  Uiso   1.00
H168   H     0.78939   0.07482   0.38660   0.00000  Uiso   1.00
H169   H     0.67649   0.21893   0.17731   0.00000  Uiso   1.00
H170   H     0.79121   0.33001   0.28549   0.00000  Uiso   1.00
H171   H     0.83394   0.19300   0.07546   0.00000  Uiso   1.00
H172   H     0.84198   0.23864   0.03052   0.00000  Uiso   1.00
H173   H     0.81683   0.28385   0.49109   0.00000  Uiso   1.00
H174   H     0.88691   0.07838   0.11923   0.00000  Uiso   1.00
H175   H     0.91160   0.32181   0.18258   0.00000  Uiso   1.00
H176   H     0.79460   0.04045   0.45031   0.00000  Uiso   1.00
H177   H     0.84178   0.04814   0.40972   0.00000  Uiso   1.00
N178   N     0.82707   0.05275   0.44410   0.00000  Uiso   1.00
O179   O     0.83333   0.16667   0.25000   0.00000  Uiso   1.00
O180   O     0.82118   0.12637   0.15459   0.00000  Uiso   1.00
O181   O     0.79607   0.20391   0.34968   0.00000  Uiso   1.00
O182   O     0.87491   0.17759   0.14606   0.00000  Uiso   1.00
O183   O     0.84118   0.15880   0.34968   0.00000  Uiso   1.00
O184   O     0.92733   0.06080   0.06234   0.00000  Uiso   1.00
O185   O     0.89538   0.04532   0.19600   0.00000  Uiso   1.00
O186   O     0.87676   0.01699   0.01130   0.00000  Uiso   1.00
O187   O     0.75956   0.26219   0.40373   0.00000  Uiso   1.00
O188   O     0.75040   0.11780   0.40874   0.00000  Uiso   1.00
O189   O     0.72906   0.20762   0.19148   0.00000  Uiso   1.00
O190   O     0.84597   0.08019   0.28214   0.00000  Uiso   1.00
O191   O     0.81298   0.26085   0.27014   0.00000  Uiso   1.00
O192   O     0.74078   0.13291   0.23413   0.00000  Uiso   1.00
O193   O     0.93360   0.19272   0.21361   0.00000  Uiso   1.00
O194   O     0.73738   0.18878   0.28213   0.00000  Uiso   1.00
O195   O     0.92158   0.15226   0.27014   0.00000  Uiso   1.00
O196   O     0.80426   0.06944   0.23413   0.00000  Uiso   1.00
O197   O     0.87012   0.25620   0.21361   0.00000  Uiso   1.00
Zn198  Zn    0.86005   0.13994   0.28734   0.00000  Uiso   1.00
Zn199  Zn    0.80046   0.12458   0.21876   0.00000  Uiso   1.00
Zn200  Zn    0.87723   0.19775   0.20657   0.00000  Uiso   1.00
Zn201  Zn    0.79560   0.20439   0.28734   0.00000  Uiso   1.00
C202   C     0.05260   0.49235   0.26065   0.00000  Uiso   1.00
C203   C     0.17886   0.49851   0.05690   0.00000  Uiso   1.00
C204   C     0.20788   0.43499   0.05894   0.00000  Uiso   1.00
C205   C     0.28102   0.50736   0.23967   0.00000  Uiso   1.00
C206   C     0.14317   0.52906   0.42032   0.00000  Uiso   1.00
C207   C     0.32744   0.51099   0.23447   0.00000  Uiso   1.00
C208   C     0.00782   0.49088   0.26255   0.00000  Uiso   1.00
C209   C     0.18277   0.65633   0.23579   0.00000  Uiso   1.00
C210   C     0.15268   0.34501   0.26229   0.00000  Uiso   1.00
C211   C     0.15534   0.38927   0.26079   0.00000  Uiso   1.00
C212   C     0.17705   0.61142   0.23999   0.00000  Uiso   1.00
C213   C     0.15065   0.58481   0.47830   0.00000  Uiso   1.00
C214   C     0.18534   0.48131   0.12912   0.00000  Uiso   1.00
C215   C     0.14862   0.51840   0.37110   0.00000  Uiso   1.00
C216   C     0.20234   0.42151   0.01516   0.00000  Uiso   1.00
C217   C     0.19265   0.47209   0.08044   0.00000  Uiso   1.00
C218   C     0.13951   0.57098   0.43817   0.00000  Uiso   1.00
C219   C     0.22995   0.41168   0.08279   0.00000  Uiso   1.00
C220   C     0.22175   0.34161   0.20228   0.00000  Uiso   1.00
C221   C     0.21799   0.38233   0.49188   0.00000  Uiso   1.00
C222   C     0.12628   0.60246   0.41566   0.00000  Uiso   1.00
C223   C     0.11621   0.43649   0.40781   0.00000  Uiso   1.00
C224   C     0.16381   0.55796   0.00184   0.00000  Uiso   1.00
C225   C     0.02336   0.53670   0.19839   0.00000  Uiso   1.00
C226   C     0.16283   0.51504   0.48803   0.00000  Uiso   1.00
C227   C     0.15034   0.49994   0.44785   0.00000  Uiso   1.00
C228   C     0.17534   0.48720   0.01265   0.00000  Uiso   1.00
C229   C     0.18198   0.44618   0.49375   0.00000  Uiso   1.00
C230   C     0.16415   0.43003   0.45698   0.00000  Uiso   1.00
C231   C     0.14526   0.45618   0.43661   0.00000  Uiso   1.00
H232   H     0.31875   0.47252   0.28820   0.00000  Uiso   1.00
H233   H     0.23537   0.38160   0.45657   0.00000  Uiso   1.00
H234   H     0.14491   0.63313   0.41238   0.00000  Uiso   1.00
H235   H     0.12272   0.40815   0.38660   0.00000  Uiso   1.00
H236   H     0.00983   0.55226   0.17731   0.00000  Uiso   1.00
H237   H     0.12455   0.66335   0.28549   0.00000  Uiso   1.00
H238   H     0.16727   0.52633   0.07546   0.00000  Uiso   1.00
H239   H     0.17532   0.57198   0.03052   0.00000  Uiso   1.00
H240   H     0.15017   0.61718   0.49109   0.00000  Uiso   1.00
H241   H     0.22025   0.41171   0.11923   0.00000  Uiso   1.00
H242   H     0.24493   0.65514   0.18258   0.00000  Uiso   1.00
H243   H     0.12793   0.37378   0.45031   0.00000  Uiso   1.00
H244   H     0.17512   0.38147   0.40972   0.00000  Uiso   1.00
N245   N     0.16040   0.38608   0.44410   0.00000  Uiso   1.00
O246   O     0.16667   0.50000   0.25000   0.00000  Uiso   1.00
O247   O     0.15451   0.45970   0.15459   0.00000  Uiso   1.00
O248   O     0.12940   0.53724   0.34968   0.00000  Uiso   1.00
O249   O     0.20824   0.51092   0.14606   0.00000  Uiso   1.00
O250   O     0.17451   0.49213   0.34968   0.00000  Uiso   1.00
O251   O     0.26066   0.39413   0.06234   0.00000  Uiso   1.00
O252   O     0.22871   0.37865   0.19600   0.00000  Uiso   1.00
O253   O     0.21010   0.35032   0.01130   0.00000  Uiso   1.00
O254   O     0.09289   0.59553   0.40373   0.00000  Uiso   1.00
O255   O     0.08374   0.45114   0.40874   0.00000  Uiso   1.00
O256   O     0.06239   0.54096   0.19148   0.00000  Uiso   1.00
O257   O     0.17930   0.41352   0.28214   0.00000  Uiso   1.00
O258   O     0.14632   0.59418   0.27014   0.00000  Uiso   1.00
O259   O     0.07412   0.46625   0.23413   0.00000  Uiso   1.00
O260   O     0.26693   0.52605   0.21361   0.00000  Uiso   1.00
O261   O     0.07071   0.52211   0.28213   0.00000  Uiso   1.00
O262   O     0.25491   0.48559   0.27014   0.00000  Uiso   1.00
O263   O     0.13760   0.40277   0.23413   0.00000  Uiso   1.00
O264   O     0.20345   0.58953   0.21361   0.00000  Uiso   1.00
Zn265  Zn    0.19338   0.47327   0.28734   0.00000  Uiso   1.00
Zn266  Zn    0.13379   0.45791   0.21876   0.00000  Uiso   1.00
Zn267  Zn    0.21056   0.53109   0.20657   0.00000  Uiso   1.00
Zn268  Zn    0.12893   0.53773   0.28734   0.00000  Uiso   1.00
C269   C     0.38593   0.49235   0.26065   0.00000  Uiso   1.00
C270   C     0.51219   0.49851   0.05690   0.00000  Uiso   1.00
C271   C     0.54121   0.43499   0.05894   0.00000  Uiso   1.00
C272   C     0.61436   0.50736   0.23967   0.00000  Uiso   1.00
C273   C     0.47650   0.52906   0.42032   0.00000  Uiso   1.00
C274   C     0.66077   0.51099   0.23447   0.00000  Uiso   1.00
C275   C     0.34115   0.49088   0.26255   0.00000  Uiso   1.00
C276   C     0.51610   0.65633   0.23579   0.00000  Uiso   1.00
C277   C     0.48601   0.34501   0.26229   0.00000  Uiso   1.00
C278   C     0.48867   0.38927   0.26079   0.00000  Uiso   1.00
C279   C     0.51038   0.61142   0.23999   0.00000  Uiso   1.00
C280   C     0.48399   0.58481   0.47830   0.00000  Uiso   1.00
C281   C     0.51868   0.48131   0.12912   0.00000  Uiso   1.00
C282   C     0.48196   0.51840   0.37110   0.00000  Uiso   1.00
C283   C     0.53567   0.42151   0.01516   0.00000  Uiso   1.00
C284   C     0.52598   0.47209   0.08044   0.00000  Uiso   1.00
C285   C     0.47284   0.57098   0.43817   0.00000  Uiso   1.00
C286   C     0.56328   0.41168   0.08279   0.00000  Uiso   1.00
C287   C     0.55508   0.34161   0.20228   0.00000  Uiso   1.00
C288   C     0.55132   0.38233   0.49188   0.00000  Uiso   1.00
C289   C     0.45962   0.60246   0.41566   0.00000  Uiso   1.00
C290   C     0.44954   0.43649   0.40781   0.00000  Uiso   1.00
C291   C     0.49714   0.55796   0.00184   0.00000  Uiso   1.00
C292   C     0.35669   0.53670   0.19839   0.00000  Uiso   1.00
C293   C     0.49616   0.51504   0.48803   0.00000  Uiso   1.00
C294   C     0.48367   0.49994   0.44785   0.00000  Uiso   1.00
C295   C     0.50867   0.48720   0.01265   0.00000  Uiso   1.00
C296   C     0.51531   0.44618   0.49375   0.00000  Uiso   1.00
C297   C     0.49748   0.43003   0.45698   0.00000  Uiso   1.00
C298   C     0.47859   0.45618   0.43661   0.00000  Uiso   1.00
H299   H     0.65209   0.47252   0.28820   0.00000  Uiso   1.00
H300   H     0.56871   0.38160   0.45657   0.00000  Uiso   1.00
H301   H     0.47824   0.63313   0.41238   0.00000  Uiso   1.00
H302   H     0.45605   0.40815   0.38660   0.00000  Uiso   1.00
H303   H     0.34316   0.55226   0.17731   0.00000  Uiso   1.00
H304   H     0.45788   0.66335   0.28549   0.00000  Uiso   1.00
H305   H     0.50060   0.52633   0.07546   0.00000  Uiso   1.00
H306   H     0.50865   0.57198   0.03052   0.00000  Uiso   1.00
H307   H     0.48350   0.61718   0.49109   0.00000  Uiso   1.00
H308   H     0.55358   0.41171   0.11923   0.00000  Uiso   1.00
H309   H     0.57826   0.65514   0.18258   0.00000  Uiso   1.00
H310   H     0.46126   0.37378   0.45031   0.00000  Uiso   1.00
H311   H     0.50845   0.38147   0.40972   0.00000  Uiso   1.00
N312   N     0.49374   0.38608   0.44410   0.00000  Uiso   1.00
O313   O     0.50000   0.50000   0.25000   0.00000  Uiso   1.00
O314   O     0.48784   0.45970   0.15459   0.00000  Uiso   1.00
O315   O     0.46274   0.53724   0.34968   0.00000  Uiso   1.00
O316   O     0.54157   0.51092   0.14606   0.00000  Uiso   1.00
O317   O     0.50785   0.49213   0.34968   0.00000  Uiso   1.00
O318   O     0.59400   0.39413   0.06234   0.00000  Uiso   1.00
O319   O     0.56205   0.37865   0.19600   0.00000  Uiso   1.00
O320   O     0.54343   0.35032   0.01130   0.00000  Uiso   1.00
O321   O     0.42622   0.59553   0.40373   0.00000  Uiso   1.00
O322   O     0.41707   0.45114   0.40874   0.00000  Uiso   1.00
O323   O     0.39572   0.54096   0.19148   0.00000  Uiso   1.00
O324   O     0.51264   0.41352   0.28214   0.00000  Uiso   1.00
O325   O     0.47965   0.59418   0.27014   0.00000  Uiso   1.00
O326   O     0.40745   0.46625   0.23413   0.00000  Uiso   1.00
O327   O     0.60026   0.52605   0.21361   0.00000  Uiso   1.00
O328   O     0.40405   0.52211   0.28213   0.00000  Uiso   1.00
O329   O     0.58824   0.48559   0.27014   0.00000  Uiso   1.00
O330   O     0.47093   0.40277   0.23413   0.00000  Uiso   1.00
O331   O     0.53678   0.58953   0.21361   0.00000  Uiso   1.00
Zn332  Zn    0.52672   0.47327   0.28734   0.00000  Uiso   1.00
Zn333  Zn    0.46713   0.45791   0.21876   0.00000  Uiso   1.00
Zn334  Zn    0.54389   0.53109   0.20657   0.00000  Uiso   1.00
Zn335  Zn    0.46226   0.53773   0.28734   0.00000  Uiso   1.00
C336   C     0.71926   0.49235   0.26065   0.00000  Uiso   1.00
C337   C     0.84553   0.49851   0.05690   0.00000  Uiso   1.00
C338   C     0.87455   0.43499   0.05894   0.00000  Uiso   1.00
C339   C     0.94769   0.50736   0.23967   0.00000  Uiso   1.00
C340   C     0.80983   0.52906   0.42032   0.00000  Uiso   1.00
C341   C     0.99411   0.51099   0.23447   0.00000  Uiso   1.00
C342   C     0.67449   0.49088   0.26255   0.00000  Uiso   1.00
C343   C     0.84943   0.65633   0.23579   0.00000  Uiso   1.00
C344   C     0.81935   0.34501   0.26229   0.00000  Uiso   1.00
C345   C     0.82200   0.38927   0.26079   0.00000  Uiso   1.00
C346   C     0.84371   0.61142   0.23999   0.00000  Uiso   1.00
C347   C     0.81732   0.58481   0.47830   0.00000  Uiso   1.00
C348   C     0.85201   0.48131   0.12912   0.00000  Uiso   1.00
C349   C     0.81529   0.51840   0.37110   0.00000  Uiso   1.00
C350   C     0.86901   0.42151   0.01516   0.00000  Uiso   1.00
C351   C     0.85932   0.47209   0.08044   0.00000  Uiso   1.00
C352   C     0.80617   0.57098   0.43817   0.00000  Uiso   1.00
C353   C     0.89661   0.41168   0.08279   0.00000  Uiso   1.00
C354   C     0.88842   0.34161   0.20228   0.00000  Uiso   1.00
C355   C     0.88465   0.38233   0.49188   0.00000  Uiso   1.00
C356   C     0.79295   0.60246   0.41566   0.00000  Uiso   1.00
C357   C     0.78288   0.43649   0.40781   0.00000  Uiso   1.00
C358   C     0.83047   0.55796   0.00184   0.00000  Uiso   1.00
C359   C     0.69003   0.53670   0.19839   0.00000  Uiso   1.00
C360   C     0.82949   0.51504   0.48803   0.00000  Uiso   1.00
C361   C     0.81701   0.49994   0.44785   0.00000  Uiso   1.00
C362   C     0.84200   0.48720   0.01265   0.00000  Uiso   1.00
C363   C     0.84864   0.44618   0.49375   0.00000  Uiso   1.00
C364   C     0.83081   0.43003   0.45698   0.00000  Uiso   1.00
C365   C     0.81193   0.45618   0.43661   0.00000  Uiso   1.00
H366   H     0.98542   0.47252   0.28820   0.00000  Uiso   1.00
H367   H     0.90204   0.38160   0.45657   0.00000  Uiso   1.00
H368   H     0.81158   0.63313   0.41238   0.00000  Uiso   1.00
H369   H     0.78939   0.40815   0.38660   0.00000  Uiso   1.00
H370   H     0.67649   0.55226   0.17731   0.00000  Uiso   1.00
H371   H     0.79121   0.66335   0.28549   0.00000  Uiso   1.00
H372   H     0.83394   0.52633   0.07546   0.00000  Uiso   1.00
H373   H     0.84198   0.57198   0.03052   0.00000  Uiso   1.00
H374   H     0.81683   0.61718   0.49109   0.00000  Uiso   1.00
H375   H     0.88691   0.41171   0.11923   0.00000  Uiso   1.00
H376   H     0.91160   0.65514   0.18258   0.00000  Uiso   1.00
H377   H     0.79460   0.37378   0.45031   0.00000  Uiso   1.00
H378   H     0.84178   0.38147   0.40972   0.00000  Uiso   1.00
N379   N     0.82707   0.38608   0.44410   0.00000  Uiso   1.00
O380   O     0.83333   0.50000   0.25000   0.00000  Uiso   1.00
O381   O     0.82118   0.45970   0.15459   0.00000  Uiso   1.00
O382   O     0.79607   0.53724   0.34968   0.00000  Uiso   1.00
O383   O     0.87491   0.51092   0.14606   0.00000  Uiso   1.00
O384   O     0.84118   0.49213   0.34968   0.00000  Uiso   1.00
O385   O     0.92733   0.39413   0.06234   0.00000  Uiso   1.00
O386   O     0.89538   0.37865   0.19600   0.00000  Uiso   1.00
O387   O     0.87676   0.35032   0.01130   0.00000  Uiso   1.00
O388   O     0.75956   0.59553   0.40373   0.00000  Uiso   1.00
O389   O     0.75040   0.45114   0.40874   0.00000  Uiso   1.00
O390   O     0.72906   0.54096   0.19148   0.00000  Uiso   1.00
O391   O     0.84597   0.41352   0.28214   0.00000  Uiso   1.00
O392   O     0.81298   0.59418   0.27014   0.00000  Uiso   1.00
O393   O     0.74078   0.46625   0.23413   0.00000  Uiso   1.00
O394   O     0.93360   0.52605   0.21361   0.00000  Uiso   1.00
O395   O     0.73738   0.52211   0.28213   0.00000  Uiso   1.00
O396   O     0.92158   0.48559   0.27014   0.00000  Uiso   1.00
O397   O     0.80426   0.40277   0.23413   0.00000  Uiso   1.00
O398   O     0.87012   0.58953   0.21361   0.00000  Uiso   1.00
Zn399  Zn    0.86005   0.47327   0.28734   0.00000  Uiso   1.00
Zn400  Zn    0.80046   0.45791   0.21876   0.00000  Uiso   1.00
Zn401  Zn    0.87723   0.53109   0.20657   0.00000  Uiso   1.00
Zn402  Zn    0.79560   0.53773   0.28734   0.00000  Uiso   1.00
C403   C     0.05260   0.82568   0.26065   0.00000  Uiso   1.00
C404   C     0.17886   0.83184   0.05690   0.00000  Uiso   1.00
C405   C     0.20788   0.76832   0.05894   0.00000  Uiso   1.00
C406   C     0.28102   0.84070   0.23967   0.00000  Uiso   1.00
C407   C     0.14317   0.86239   0.42032   0.00000  Uiso   1.00
C408   C     0.32744   0.84432   0.23447   0.00000  Uiso   1.00
C409   C     0.00782   0.82421   0.26255   0.00000  Uiso   1.00
C410   C     0.18277   0.98967   0.23579   0.00000  Uiso   1.00
C411   C     0.15268   0.67834   0.26229   0.00000  Uiso   1.00
C412   C     0.15534   0.72260   0.26079   0.00000  Uiso   1.00
C413   C     0.17705   0.94476   0.23999   0.00000  Uiso   1.00
C414   C     0.15065   0.91815   0.47830   0.00000  Uiso   1.00
C415   C     0.18534   0.81464   0.12912   0.00000  Uiso   1.00
C416   C     0.14862   0.85173   0.37110   0.00000  Uiso   1.00
C417   C     0.20234   0.75485   0.01516   0.00000  Uiso   1.00
C418   C     0.19265   0.80542   0.08044   0.00000  Uiso   1.00
C419   C     0.13951   0.90431   0.43817   0.00000  Uiso   1.00
C420   C     0.22995   0.74502   0.08279   0.00000  Uiso   1.00
C421   C     0.22175   0.67495   0.20228   0.00000  Uiso   1.00
C422   C     0.21799   0.71566   0.49188   0.00000  Uiso   1.00
C423   C     0.12628   0.93579   0.41566   0.00000  Uiso   1.00
C424   C     0.11621   0.76983   0.40781   0.00000  Uiso   1.00
C425   C     0.16381   0.89130   0.00184   0.00000  Uiso   1.00
C426   C     0.02336   0.87004   0.19839   0.00000  Uiso   1.00
C427   C     0.16283   0.84837   0.48803   0.00000  Uiso   1.00
C428   C     0.15034   0.83327   0.44785   0.00000  Uiso   1.00
C429   C     0.17534   0.82053   0.01265   0.00000  Uiso   1.00
C430   C     0.18198   0.77951   0.49375   0.00000  Uiso   1.00
C431   C     0.16415   0.76336   0.45698   0.00000  Uiso   1.00
C432   C     0.14526   0.78952   0.43661   0.00000  Uiso   1.00
H433   H     0.31875   0.80585   0.28820   0.00000  Uiso   1.00
H434   H     0.23537   0.71493   0.45657   0.00000  Uiso   1.00
H435   H     0.14491   0.96647   0.41238   0.00000  Uiso   1.00
H436   H     0.12272   0.74149   0.38660   0.00000  Uiso   1.00
H437   H     0.00983   0.88560   0.17731   0.00000  Uiso   1.00
H438   H     0.12455   0.99668   0.28549   0.00000  Uiso   1.00
H439   H     0.16727   0.85967   0.07546   0.00000  Uiso   1.00
H440   H     0.17532   0.90531   0.03052   0.00000  Uiso   1.00
H441   H     0.15017   0.95052   0.49109   0.00000  Uiso   1.00
H442   H     0.22025   0.74504   0.11923   0.00000  Uiso   1.00
H443   H     0.24493   0.98847   0.18258   0.00000  Uiso   1.00
H444   H     0.12793   0.70712   0.45031   0.00000  Uiso   1.00
H445   H     0.17512   0.71481   0.40972   0.00000  Uiso   1.00
N446   N     0.16040   0.71942   0.44410   0.00000  Uiso   1.00
O447   O     0.16667   0.83333   0.25000   0.00000  Uiso   1.00
O448   O     0.15451   0.79304   0.15459   0.00000  Uiso   1.00
O449   O     0.12940   0.87058   0.34968   0.00000  Uiso   1.00
O450   O     0.20824   0.84425   0.14606   0.00000  Uiso   1.00
O451   O     0.17451   0.82546   0.34968   0.00000  Uiso   1.00
O452   O     0.26066   0.72747   0.06234   0.00000  Uiso   1.00
O453   O     0.22871   0.71198   0.19600   0.00000  Uiso   1.00
O454   O     0.21010   0.68366   0.01130   0.00000  Uiso   1.00
O455   O     0.09289   0.92886   0.40373   0.00000  Uiso   1.00
O456   O     0.08374   0.78447   0.40874   0.00000  Uiso   1.00
O457   O     0.06239   0.87429   0.19148   0.00000  Uiso   1.00
O458   O     0.17930   0.74686   0.28214   0.00000  Uiso   1.00
O459   O     0.14632   0.92751   0.27014   0.00000  Uiso   1.00
O460   O     0.07412   0.79958   0.23413   0.00000  Uiso   1.00
O461   O     0.26693   0.85939   0.21361   0.00000  Uiso   1.00
O462   O     0.07071   0.85544   0.28213   0.00000  Uiso   1.00
O463   O     0.25491   0.81892   0.27014   0.00000  Uiso   1.00
O464   O     0.13760   0.73610   0.23413   0.00000  Uiso   1.00
O465   O     0.20345   0.92286   0.21361   0.00000  Uiso   1.00
Zn466  Zn    0.19338   0.80661   0.28734   0.00000  Uiso   1.00
Zn467  Zn    0.13379   0.79124   0.21876   0.00000  Uiso   1.00
Zn468  Zn    0.21056   0.86442   0.20657   0.00000  Uiso   1.00
Zn469  Zn    0.12893   0.87106   0.28734   0.00000  Uiso   1.00
C470   C     0.38593   0.82568   0.26065   0.00000  Uiso   1.00
C471   C     0.51219   0.83184   0.05690   0.00000  Uiso   1.00
C472   C     0.54121   0.76832   0.05894   0.00000  Uiso   1.00
C473   C     0.61436   0.84070   0.23967   0.00000  Uiso   1.00
C474   C     0.47650   0.86239   0.42032   0.00000  Uiso   1.00
C475   C     0.66077   0.84432   0.23447   0.00000  Uiso   1.00
C476   C     0.34115   0.82421   0.26255   0.00000  Uiso   1.00
C477   C     0.51610   0.98967   0.23579   0.00000  Uiso   1.00
C478   C     0.48601   0.67834   0.26229   0.00000  Uiso   1.00
C479   C     0.48867   0.72260   0.26079   0.00000  Uiso   1.00
C480   C     0.51038   0.94476   0.23999   0.00000  Uiso   1.00
C481   C     0.48399   0.91815   0.47830   0.00000  Uiso   1.00
C482   C     0.51868   0.81464   0.12912   0.00000  Uiso   1.00
C483   C     0.48196   0.85173   0.37110   0.00000  Uiso   1.00
C484   C     0.53567   0.75485   0.01516   0.00000  Uiso   1.00
C485   C     0.52598   0.80542   0.08044   0.00000  Uiso   1.00
C486   C     0.47284   0.90431   0.43817   0.00000  Uiso   1.00
C487   C     0.56328   0.74502   0.08279   0.00000  Uiso   1.00
C488   C     0.55508   0.67495   0.20228   0.00000  Uiso   1.00
C489   C     0.55132   0.71566   0.49188   0.00000  Uiso   1.00
C490   C     0.45962   0.93579   0.41566   0.00000  Uiso   1.00
C491   C     0.44954   0.76983   0.40781   0.00000  Uiso   1.00
C492   C     0.49714   0.89130   0.00184   0.00000  Uiso   1.00
C493   C     0.35669   0.87004   0.19839   0.00000  Uiso   1.00
C494   C     0.49616   0.84837   0.48803   0.00000  Uiso   1.00
C495   C     0.48367   0.83327   0.44785   0.00000  Uiso   1.00
C496   C     0.50867   0.82053   0.01265   0.00000  Uiso   1.00
C497   C     0.51531   0.77951   0.49375   0.00000  Uiso   1.00
C498   C     0.49748   0.76336   0.45698   0.00000  Uiso   1.00
C499   C     0.47859   0.78952   0.43661   0.00000  Uiso   1.00
H500   H     0.65209   0.80585   0.28820   0.00000  Uiso   1.00
H501   H     0.56871   0.71493   0.45657   0.00000  Uiso   1.00
H502   H     0.47824   0.96647   0.41238   0.00000  Uiso   1.00
H503   H     0.45605   0.74149   0.38660   0.00000  Uiso   1.00
H504   H     0.34316   0.88560   0.17731   0.00000  Uiso   1.00
H505   H     0.45788   0.99668   0.28549   0.00000  Uiso   1.00
H506   H     0.50060   0.85967   0.07546   0.00000  Uiso   1.00
H507   H     0.50865   0.90531   0.03052   0.00000  Uiso   1.00
H508   H     0.48350   0.95052   0.49109   0.00000  Uiso   1.00
H509   H     0.55358   0.74504   0.11923   0.00000  Uiso   1.00
H510   H     0.57826   0.98847   0.18258   0.00000  Uiso   1.00
H511   H     0.46126   0.70712   0.45031   0.00000  Uiso   1.00
H512   H     0.50845   0.71481   0.40972   0.00000  Uiso   1.00
N513   N     0.49374   0.71942   0.44410   0.00000  Uiso   1.00
O514   O     0.50000   0.83333   0.25000   0.00000  Uiso   1.00
O515   O     0.48784   0.79304   0.15459   0.00000  Uiso   1.00
O516   O     0.46274   0.87058   0.34968   0.00000  Uiso   1.00
O517   O     0.54157   0.84425   0.14606   0.00000  Uiso   1.00
O518   O     0.50785   0.82546   0.34968   0.00000  Uiso   1.00
O519   O     0.59400   0.72747   0.06234   0.00000  Uiso   1.00
O520   O     0.56205   0.71198   0.19600   0.00000  Uiso   1.00
O521   O     0.54343   0.68366   0.01130   0.00000  Uiso   1.00
O522   O     0.42622   0.92886   0.40373   0.00000  Uiso   1.00
O523   O     0.41707   0.78447   0.40874   0.00000  Uiso   1.00
O524   O     0.39572   0.87429   0.19148   0.00000  Uiso   1.00
O525   O     0.51264   0.74686   0.28214   0.00000  Uiso   1.00
O526   O     0.47965   0.92751   0.27014   0.00000  Uiso   1.00
O527   O     0.40745   0.79958   0.23413   0.00000  Uiso   1.00
O528   O     0.60026   0.85939   0.21361   0.00000  Uiso   1.00
O529   O     0.40405   0.85544   0.28213   0.00000  Uiso   1.00
O530   O     0.58824   0.81892   0.27014   0.00000  Uiso   1.00
O531   O     0.47093   0.73610   0.23413   0.00000  Uiso   1.00
O532   O     0.53678   0.92286   0.21361   0.00000  Uiso   1.00
Zn533  Zn    0.52672   0.80661   0.28734   0.00000  Uiso   1.00
Zn534  Zn    0.46713   0.79124   0.21876   0.00000  Uiso   1.00
Zn535  Zn    0.54389   0.86442   0.20657   0.00000  Uiso   1.00
Zn536  Zn    0.46226   0.87106   0.28734   0.00000  Uiso   1.00
C537   C     0.71926   0.82568   0.26065   0.00000  Uiso   1.00
C538   C     0.84553   0.83184   0.05690   0.00000  Uiso   1.00
C539   C     0.87455   0.76832   0.05894   0.00000  Uiso   1.00
C540   C     0.94769   0.84070   0.23967   0.00000  Uiso   1.00
C541   C     0.80983   0.86239   0.42032   0.00000  Uiso   1.00
C542   C     0.99411   0.84432   0.23447   0.00000  Uiso   1.00
C543   C     0.67449   0.82421   0.26255   0.00000  Uiso   1.00
C544   C     0.84943   0.98967   0.23579   0.00000  Uiso   1.00
C545   C     0.81935   0.67834   0.26229   0.00000  Uiso   1.00
C546   C     0.82200   0.72260   0.26079   0.00000  Uiso   1.00
C547   C     0.84371   0.94476   0.23999   0.00000  Uiso   1.00
C548   C     0.81732   0.91815   0.47830   0.00000  Uiso   1.00
C549   C     0.85201   0.81464   0.12912   0.00000  Uiso   1.00
C550   C     0.81529   0.85173   0.37110   0.00000  Uiso   1.00
C551   C     0.86901   0.75485   0.01516   0.00000  Uiso   1.00
C552   C     0.85932   0.80542   0.08044   0.00000  Uiso   1.00
C553   C     0.80617   0.90431   0.43817   0.00000  Uiso   1.00
C554   C     0.89661   0.74502   0.08279   0.00000  Uiso   1.00
C555   C     0.88842   0.67495   0.20228   0.00000  Uiso   1.00
C556   C     0.88465   0.71566   0.49188   0.00000  Uiso   1.00
C557   C     0.79295   0.93579   0.41566   0.00000  Uiso   1.00
C558   C     0.78288   0.76983   0.40781   0.00000  Uiso   1.00
C559   C     0.83047   0.89130   0.00184   0.00000  Uiso   1.00
C560   C     0.69003   0.87004   0.19839   0.00000  Uiso   1.00
C561   C     0.82949   0.84837   0.48803   0.00000  Uiso   1.00
C562   C     0.81701   0.83327   0.44785   0.00000  Uiso   1.00
C563   C     0.84200   0.82053   0.01265   0.00000  Uiso   1.00
C564   C     0.84864   0.77951   0.49375   0.00000  Uiso   1.00
C565   C     0.83081   0.76336   0.45698   0.00000  Uiso   1.00
C566   C     0.81193   0.78952   0.43661   0.00000  Uiso   1.00
H567   H     0.98542   0.80585   0.28820   0.00000  Uiso   1.00
H568   H     0.90204   0.71493   0.45657   0.00000  Uiso   1.00
H569   H     0.81158   0.96647   0.41238   0.00000  Uiso   1.00
H570   H     0.78939   0.74149   0.38660   0.00000  Uiso   1.00
H571   H     0.67649   0.88560   0.17731   0.00000  Uiso   1.00
H572   H     0.79121   0.99668   0.28549   0.00000  Uiso   1.00
H573   H     0.83394   0.85967   0.07546   0.00000  Uiso   1.00
H574   H     0.84198   0.90531   0.03052   0.00000  Uiso   1.00
H575   H     0.81683   0.95052   0.49109   0.00000  Uiso   1.00
H576   H     0.88691   0.74504   0.11923   0.00000  Uiso   1.00
H577   H     0.91160   0.98847   0.18258   0.00000  Uiso   1.00
H578   H     0.79460   0.70712   0.45031   0.00000  Uiso   1.00
H579   H     0.84178   0.71481   0.40972   0.00000  Uiso   1.00
N580   N     0.82707   0.71942   0.44410   0.00000  Uiso   1.00
O581   O     0.83333   0.83333   0.25000   0.00000  Uiso   1.00
O582   O     0.82118   0.79304   0.15459   0.00000  Uiso   1.00
O583   O     0.79607   0.87058   0.34968   0.00000  Uiso   1.00
O584   O     0.87491   0.84425   0.14606   0.00000  Uiso   1.00
O585   O     0.84118   0.82546   0.34968   0.00000  Uiso   1.00
O586   O     0.92733   0.72747   0.06234   0.00000  Uiso   1.00
O587   O     0.89538   0.71198   0.19600   0.00000  Uiso   1.00
O588   O     0.87676   0.68366   0.01130   0.00000  Uiso   1.00
O589   O     0.75956   0.92886   0.40373   0.00000  Uiso   1.00
O590   O     0.75040   0.78447   0.40874   0.00000  Uiso   1.00
O591   O     0.72906   0.87429   0.19148   0.00000  Uiso   1.00
O592   O     0.84597   0.74686   0.28214   0.00000  Uiso   1.00
O593   O     0.81298   0.92751   0.27014   0.00000  Uiso   1.00
O594   O     0.74078   0.79958   0.23413   0.00000  Uiso   1.00
O595   O     0.93360   0.85939   0.21361   0.00000  Uiso   1.00
O596   O     0.73738   0.85544   0.28213   0.00000  Uiso   1.00
O597   O     0.92158   0.81892   0.27014   0.00000  Uiso   1.00
O598   O     0.80426   0.73610   0.23413   0.00000  Uiso   1.00
O599   O     0.87012   0.92286   0.21361   0.00000  Uiso   1.00
Zn600  Zn    0.86005   0.80661   0.28734   0.00000  Uiso   1.00
Zn601  Zn    0.80046   0.79124   0.21876   0.00000  Uiso   1.00
Zn602  Zn    0.87723   0.86442   0.20657   0.00000  Uiso   1.00
Zn603  Zn    0.79560   0.87106   0.28734   0.00000  Uiso   1.00
C604   C     0.05260   0.15902   0.76065   0.00000  Uiso   1.00
C605   C     0.17886   0.16518   0.55690   0.00000  Uiso   1.00
C606   C     0.20788   0.10166   0.55894   0.00000  Uiso   1.00
C607   C     0.28102   0.17403   0.73967   0.00000  Uiso   1.00
C608   C     0.14317   0.19572   0.92032   0.00000  Uiso   1.00
C609   C     0.32744   0.17765   0.73447   0.00000  Uiso   1.00
C610   C     0.00782   0.15755   0.76255   0.00000  Uiso   1.00
C611   C     0.18277   0.32300   0.73579   0.00000  Uiso   1.00
C612   C     0.15268   0.01167   0.76229   0.00000  Uiso   1.00
C613   C     0.15534   0.05593   0.76079   0.00000  Uiso   1.00
C614   C     0.17705   0.27809   0.73999   0.00000  Uiso   1.00
C615   C     0.15065   0.25148   0.97830   0.00000  Uiso   1.00
C616   C     0.18534   0.14797   0.62912   0.00000  Uiso   1.00
C617   C     0.14862   0.18506   0.87110   0.00000  Uiso   1.00
C618   C     0.20234   0.08818   0.51516   0.00000  Uiso   1.00
C619   C     0.19265   0.13875   0.58044   0.00000  Uiso   1.00
C620   C     0.13951   0.23764   0.93817   0.00000  Uiso   1.00
C621   C     0.22995   0.07835   0.58279   0.00000  Uiso   1.00
C622   C     0.22175   0.00828   0.70228   0.00000  Uiso   1.00
C623   C     0.21799   0.04900   0.99188   0.00000  Uiso   1.00
C624   C     0.12628   0.26913   0.91566   0.00000  Uiso   1.00
C625   C     0.11621   0.10316   0.90781   0.00000  Uiso   1.00
C626   C     0.16381   0.22463   0.50184   0.00000  Uiso   1.00
C627   C     0.02336   0.20337   0.69839   0.00000  Uiso   1.00
C628   C     0.16283   0.18171   0.98803   0.00000  Uiso   1.00
C629   C     0.15034   0.16661   0.94785   0.00000  Uiso   1.00
C630   C     0.17534   0.15386   0.51265   0.00000  Uiso   1.00
C631   C     0.18198   0.11285   0.99375   0.00000  Uiso   1.00
C632   C     0.16415   0.09670   0.95698   0.00000  Uiso   1.00
C633   C     0.14526   0.12285   0.93661   0.00000  Uiso   1.00
H634   H     0.31875   0.13918   0.78820   0.00000  Uiso   1.00
H635   H     0.23537   0.04826   0.95657   0.00000  Uiso   1.00
H636   H     0.14491   0.29980   0.91238   0.00000  Uiso   1.00
H637   H     0.12272   0.07482   0.88660   0.00000  Uiso   1.00
H638   H     0.00983   0.21893   0.67731   0.00000  Uiso   1.00
H639   H     0.12455   0.33001   0.78549   0.00000  Uiso   1.00
H640   H     0.16727   0.19300   0.57546   0.00000  Uiso   1.00
H641   H     0.17532   0.23864   0.53052   0.00000  Uiso   1.00
H642   H     0.15017   0.28385   0.99109   0.00000  Uiso   1.00
H643   H     0.22025   0.07838   0.61923   0.00000  Uiso   1.00
H644   H     0.24493   0.32181   0.68258   0.00000  Uiso   1.00
H645   H     0.12793   0.04045   0.95031   0.00000  Uiso   1.00
H646   H     0.17512   0.04814   0.90972   0.00000  Uiso   1.00
N647   N     0.16040   0.05275   0.94410   0.00000  Uiso   1.00
O648   O     0.16667   0.16667   0.75000   0.00000  Uiso   1.00
O649   O     0.15451   0.12637   0.65459   0.00000  Uiso   1.00
O650   O     0.12940   0.20391   0.84968   0.00000  Uiso   1.00
O651   O     0.20824   0.17759   0.64606   0.00000  Uiso   1.00
O652   O     0.17451   0.15880   0.84968   0.00000  Uiso   1.00
O653   O     0.26066   0.06080   0.56234   0.00000  Uiso   1.00
O654   O     0.22871   0.04532   0.69600   0.00000  Uiso   1.00
O655   O     0.21010   0.01699   0.51130   0.00000  Uiso   1.00
O656   O     0.09289   0.26219   0.90373   0.00000  Uiso   1.00
O657   O     0.08374   0.11780   0.90874   0.00000  Uiso   1.00
O658   O     0.06239   0.20762   0.69148   0.00000  Uiso   1.00
O659   O     0.17930   0.08019   0.78214   0.00000  Uiso   1.00
O660   O     0.14632   0.26085   0.77014   0.00000  Uiso   1.00
O661   O     0.07412   0.13291   0.73413   0.00000  Uiso   1.00
O662   O     0.26693   0.19272   0.71361   0.00000  Uiso   1.00
O663   O     0.07071   0.18878   0.78213   0.00000  Uiso   1.00
O664   O     0.25491   0.15226   0.77014   0.00000  Uiso   1.00
O665   O     0.13760   0.06944   0.73413   0.00000  Uiso   1.00
O666   O     0.20345   0.25620   0.71361   0.00000  Uiso   1.00
Zn667  Zn    0.19338   0.13994   0.78734   0.00000  Uiso   1.00
Zn668  Zn    0.13379   0.12458   0.71876   0.00000  Uiso   1.00
Zn669  Zn    0.21056   0.19775   0.70657   0.00000  Uiso   1.00
Zn670  Zn    0.12893   0.20439   0.78734   0.00000  Uiso   1.00
C671   C     0.38593   0.15902   0.76065   0.00000  Uiso   1.00
C672   C     0.51219   0.16518   0.55690   0.00000  Uiso   1.00
C673   C     0.54121   0.10166   0.55894   0.00000  Uiso   1.00
C674   C     0.61436   0.17403   0.73967   0.00000  Uiso   1.00
C675   C     0.47650   0.19572   0.92032   0.00000  Uiso   1.00
C676   C     0.66077   0.17765   0.73447   0.00000  Uiso   1.00
C677   C     0.34115   0.15755   0.76255   0.00000  Uiso   1.00
C678   C     0.51610   0.32300   0.73579   0.00000  Uiso   1.00
C679   C     0.48601   0.01167   0.76229   0.00000  Uiso   1.00
C680   C     0.48867   0.05593   0.76079   0.00000  Uiso   1.00
C681   C     0.51038   0.27809   0.73999   0.00000  Uiso   1.00
C682   C     0.48399   0.25148   0.97830   0.00000  Uiso   1.00
C683   C     0.51868   0.14797   0.62912   0.00000  Uiso   1.00
C684   C     0.48196   0.18506   0.87110   0.00000  Uiso   1.00
C685   C     0.53567   0.08818   0.51516   0.00000  Uiso   1.00
C686   C     0.52598   0.13875   0.58044   0.00000  Uiso   1.00
C687   C     0.47284   0.23764   0.93817   0.00000  Uiso   1.00
C688   C     0.56328   0.07835   0.58279   0.00000  Uiso   1.00
C689   C     0.55508   0.00828   0.70228   0.00000  Uiso   1.00
C690   C     0.55132   0.04900   0.99188   0.00000  Uiso   1.00
C691   C     0.45962   0.26913   0.91566   0.00000  Uiso   1.00
C692   C     0.44954   0.10316   0.90781   0.00000  Uiso   1.00
C693   C     0.49714   0.22463   0.50184   0.00000  Uiso   1.00
C694   C     0.35669   0.20337   0.69839   0.00000  Uiso   1.00
C695   C     0.49616   0.18171   0.98803   0.00000  Uiso   1.00
C696   C     0.48367   0.16661   0.94785   0.00000  Uiso   1.00
C697   C     0.50867   0.15386   0.51265   0.00000  Uiso   1.00
C698   C     0.51531   0.11285   0.99375   0.00000  Uiso   1.00
C699   C     0.49748   0.09670   0.95698   0.00000  Uiso   1.00
C700   C     0.47859   0.12285   0.93661   0.00000  Uiso   1.00
H701   H     0.65209   0.13918   0.78820   0.00000  Uiso   1.00
H702   H     0.56871   0.04826   0.95657   0.00000  Uiso   1.00
H703   H     0.47824   0.29980   0.91238   0.00000  Uiso   1.00
H704   H     0.45605   0.07482   0.88660   0.00000  Uiso   1.00
H705   H     0.34316   0.21893   0.67731   0.00000  Uiso   1.00
H706   H     0.45788   0.33001   0.78549   0.00000  Uiso   1.00
H707   H     0.50060   0.19300   0.57546   0.00000  Uiso   1.00
H708   H     0.50865   0.23864   0.53052   0.00000  Uiso   1.00
H709   H     0.48350   0.28385   0.99109   0.00000  Uiso   1.00
H710   H     0.55358   0.07838   0.61923   0.00000  Uiso   1.00
H711   H     0.57826   0.32181   0.68258   0.00000  Uiso   1.00
H712   H     0.46126   0.04045   0.95031   0.00000  Uiso   1.00
H713   H     0.50845   0.04814   0.90972   0.00000  Uiso   1.00
N714   N     0.49374   0.05275   0.94410   0.00000  Uiso   1.00
O715   O     0.50000   0.16667   0.75000   0.00000  Uiso   1.00
O716   O     0.48784   0.12637   0.65459   0.00000  Uiso   1.00
O717   O     0.46274   0.20391   0.84968   0.00000  Uiso   1.00
O718   O     0.54157   0.17759   0.64606   0.00000  Uiso   1.00
O719   O     0.50785   0.15880   0.84968   0.00000  Uiso   1.00
O720   O     0.59400   0.06080   0.56234   0.00000  Uiso   1.00
O721   O     0.56205   0.04532   0.69600   0.00000  Uiso   1.00
O722   O     0.54343   0.01699   0.51130   0.00000  Uiso   1.00
O723   O     0.42622   0.26219   0.90373   0.00000  Uiso   1.00
O724   O     0.41707   0.11780   0.90874   0.00000  Uiso   1.00
O725   O     0.39572   0.20762   0.69148   0.00000  Uiso   1.00
O726   O     0.51264   0.08019   0.78214   0.00000  Uiso   1.00
O727   O     0.47965   0.26085   0.77014   0.00000  Uiso   1.00
O728   O     0.40745   0.13291   0.73413   0.00000  Uiso   1.00
O729   O     0.60026   0.19272   0.71361   0.00000  Uiso   1.00
O730   O     0.40405   0.18878   0.78213   0.00000  Uiso   1.00
O731   O     0.58824   0.15226   0.77014   0.00000  Uiso   1.00
O732   O     0.47093   0.06944   0.73413   0.00000  Uiso   1.00
O733   O     0.53678   0.25620   0.71361   0.00000  Uiso   1.00
Zn734  Zn    0.52672   0.13994   0.78734   0.00000  Uiso   1.00
Zn735  Zn    0.46713   0.12458   0.71876   0.00000  Uiso   1.00
Zn736  Zn    0.54389   0.19775   0.70657   0.00000  Uiso   1.00
Zn737  Zn    0.46226   0.20439   0.78734   0.00000  Uiso   1.00
C738   C     0.71926   0.15902   0.76065   0.00000  Uiso   1.00
C739   C     0.84553   0.16518   0.55690   0.00000  Uiso   1.00
C740   C     0.87455   0.10166   0.55894   0.00000  Uiso   1.00
C741   C     0.94769   0.17403   0.73967   0.00000  Uiso   1.00
C742   C     0.80983   0.19572   0.92032   0.00000  Uiso   1.00
C743   C     0.99411   0.17765   0.73447   0.00000  Uiso   1.00
C744   C     0.67449   0.15755   0.76255   0.00000  Uiso   1.00
C745   C     0.84943   0.32300   0.73579   0.00000  Uiso   1.00
C746   C     0.81935   0.01167   0.76229   0.00000  Uiso   1.00
C747   C     0.82200   0.05593   0.76079   0.00000  Uiso   1.00
C748   C     0.84371   0.27809   0.73999   0.00000  Uiso   1.00
C749   C     0.81732   0.25148   0.97830   0.00000  Uiso   1.00
C750   C     0.85201   0.14797   0.62912   0.00000  Uiso   1.00
C751   C     0.81529   0.18506   0.87110   0.00000  Uiso   1.00
C752   C     0.86901   0.08818   0.51516   0.00000  Uiso   1.00
C753   C     0.85932   0.13875   0.58044   0.00000  Uiso   1.00
C754   C     0.80617   0.23764   0.93817   0.00000  Uiso   1.00
C755   C     0.89661   0.07835   0.58279   0.00000  Uiso   1.00
C756   C     0.88842   0.00828   0.70228   0.00000  Uiso   1.00
C757   C     0.88465   0.04900   0.99188   0.00000  Uiso   1.00
C758   C     0.79295   0.26913   0.91566   0.00000  Uiso   1.00
C759   C     0.78288   0.10316   0.90781   0.00000  Uiso   1.00
C760   C     0.83047   0.22463   0.50184   0.00000  Uiso   1.00
C761   C     0.69003   0.20337   0.69839   0.00000  Uiso   1.00
C762   C     0.82949   0.18171   0.98803   0.00000  Uiso   1.00
C763   C     0.81701   0.16661   0.94785   0.00000  Uiso   1.00
C764   C     0.84200   0.15386   0.51265   0.00000  Uiso   1.00
C765   C     0.84864   0.11285   0.99375   0.00000  Uiso   1.00
C766   C     0.83081   0.09670   0.95698   0.00000  Uiso   1.00
C767   C     0.81193   0.12285   0.93661   0.00000  Uiso   1.00
H768   H     0.98542   0.13918   0.78820   0.00000  Uiso   1.00
H769   H     0.90204   0.04826   0.95657   0.00000  Uiso   1.00
H770   H     0.81158   0.29980   0.91238   0.00000  Uiso   1.00
H771   H     0.78939   0.07482   0.88660   0.00000  Uiso   1.00
H772   H     0.67649   0.21893   0.67731   0.00000  Uiso   1.00
H773   H     0.79121   0.33001   0.78549   0.00000  Uiso   1.00
H774   H     0.83394   0.19300   0.57546   0.00000  Uiso   1.00
H775   H     0.84198   0.23864   0.53052   0.00000  Uiso   1.00
H776   H     0.81683   0.28385   0.99109   0.00000  Uiso   1.00
H777   H     0.88691   0.07838   0.61923   0.00000  Uiso   1.00
H778   H     0.91160   0.32181   0.68258   0.00000  Uiso   1.00
H779   H     0.79460   0.04045   0.95031   0.00000  Uiso   1.00
H780   H     0.84178   0.04814   0.90972   0.00000  Uiso   1.00
N781   N     0.82707   0.05275   0.94410   0.00000  Uiso   1.00
O782   O     0.83333   0.16667   0.75000   0.00000  Uiso   1.00
O783   O     0.82118   0.12637   0.65459   0.00000  Uiso   1.00
O784   O     0.79607   0.20391   0.84968   0.00000  Uiso   1.00
O785   O     0.87491   0.17759   0.64606   0.00000  Uiso   1.00
O786   O     0.84118   0.15880   0.84968   0.00000  Uiso   1.00
O787   O     0.92733   0.06080   0.56234   0.00000  Uiso   1.00
O788   O     0.89538   0.04532   0.69600   0.00000  Uiso   1.00
O789   O     0.87676   0.01699   0.51130   0.00000  Uiso   1.00
O790   O     0.75956   0.26219   0.90373   0.00000  Uiso   1.00
O791   O     0.75040   0.11780   0.90874   0.00000  Uiso   1.00
O792   O     0.72906   0.20762   0.69148   0.00000  Uiso   1.00
O793   O     0.84597   0.08019   0.78214   0.00000  Uiso   1.00
O794   O     0.81298   0.26085   0.77014   0.00000  Uiso   1.00
O795   O     0.74078   0.13291   0.73413   0.00000  Uiso   1.00
O796   O     0.93360   0.19272   0.71361   0.00000  Uiso   1.00
O797   O     0.73738   0.18878   0.78213   0.00000  Uiso   1.00
O798   O     0.92158   0.15226   0.77014   0.00000  Uiso   1.00
O799   O     0.80426   0.06944   0.73413   0.00000  Uiso   1.00
O800   O     0.87012   0.25620   0.71361   0.00000  Uiso   1.00
Zn801  Zn    0.86005   0.13994   0.78734   0.00000  Uiso   1.00
Zn802  Zn    0.80046   0.12458   0.71876   0.00000  Uiso   1.00
Zn803  Zn    0.87723   0.19775   0.70657   0.00000  Uiso   1.00
Zn804  Zn    0.79560   0.20439   0.78734   0.00000  Uiso   1.00
C805   C     0.05260   0.49235   0.76065   0.00000  Uiso   1.00
C806   C     0.17886   0.49851   0.55690   0.00000  Uiso   1.00
C807   C     0.20788   0.43499   0.55894   0.00000  Uiso   1.00
C808   C     0.28102   0.50736   0.73967   0.00000  Uiso   1.00
C809   C     0.14317   0.52906   0.92032   0.00000  Uiso   1.00
C810   C     0.32744   0.51099   0.73447   0.00000  Uiso   1.00
C811   C     0.00782   0.49088   0.76255   0.00000  Uiso   1.00
C812   C     0.18277   0.65633   0.73579   0.00000  Uiso   1.00
C813   C     0.15268   0.34501   0.76229   0.00000  Uiso   1.00
C814   C     0.15534   0.38927   0.76079   0.00000  Uiso   1.00
C815   C     0.17705   0.61142   0.73999   0.00000  Uiso   1.00
C816   C     0.15065   0.58481   0.97830   0.00000  Uiso   1.00
C817   C     0.18534   0.48131   0.62912   0.00000  Uiso   1.00
C818   C     0.14862   0.51840   0.87110   0.00000  Uiso   1.00
C819   C     0.20234   0.42151   0.51516   0.00000  Uiso   1.00
C820   C     0.19265   0.47209   0.58044   0.00000  Uiso   1.00
C821   C     0.13951   0.57098   0.93817   0.00000  Uiso   1.00
C822   C     0.22995   0.41168   0.58279   0.00000  Uiso   1.00
C823   C     0.22175   0.34161   0.70228   0.00000  Uiso   1.00
C824   C     0.21799   0.38233   0.99188   0.00000  Uiso   1.00
C825   C     0.12628   0.60246   0.91566   0.00000  Uiso   1.00
C826   C     0.11621   0.43649   0.90781   0.00000  Uiso   1.00
C827   C     0.16381   0.55796   0.50184   0.00000  Uiso   1.00
C828   C     0.02336   0.53670   0.69839   0.00000  Uiso   1.00
C829   C     0.16283   0.51504   0.98803   0.00000  Uiso   1.00
C830   C     0.15034   0.49994   0.94785   0.00000  Uiso   1.00
C831   C     0.17534   0.48720   0.51265   0.00000  Uiso   1.00
C832   C     0.18198   0.44618   0.99375   0.00000  Uiso   1.00
C833   C     0.16415   0.43003   0.95698   0.00000  Uiso   1.00
C834   C     0.14526   0.45618   0.93661   0.00000  Uiso   1.00
H835   H     0.31875   0.47252   0.78820   0.00000  Uiso   1.00
H836   H     0.23537   0.38160   0.95657   0.00000  Uiso   1.00
H837   H     0.14491   0.63313   0.91238   0.00000  Uiso   1.00
H838   H     0.12272   0.40815   0.88660   0.00000  Uiso   1.00
H839   H     0.00983   0.55226   0.67731   0.00000  Uiso   1.00
H840   H     0.12455   0.66335   0.78549   0.00000  Uiso   1.00
H841   H     0.16727   0.52633   0.57546   0.00000  Uiso   1.00
H842   H     0.17532   0.57198   0.53052   0.00000  Uiso   1.00
H843   H     0.15017   0.61718   0.99109   0.00000  Uiso   1.00
H844   H     0.22025   0.41171   0.61923   0.00000  Uiso   1.00
H845   H     0.24493   0.65514   0.68258   0.00000  Uiso   1.00
H846   H     0.12793   0.37378   0.95031   0.00000  Uiso   1.00
H847   H     0.17512   0.38147   0.90972   0.00000  Uiso   1.00
N848   N     0.16040   0.38608   0.94410   0.00000  Uiso   1.00
O849   O     0.16667   0.50000   0.75000   0.00000  Uiso   1.00
O850   O     0.15451   0.45970   0.65459   0.00000  Uiso   1.00
O851   O     0.12940   0.53724   0.84968   0.00000  Uiso   1.00
O852   O     0.20824   0.51092   0.64606   0.00000  Uiso   1.00
O853   O     0.17451   0.49213   0.84968   0.00000  Uiso   1.00
O854   O     0.26066   0.39413   0.56234   0.00000  Uiso   1.00
O855   O     0.22871   0.37865   0.69600   0.00000  Uiso   1.00
O856   O     0.21010   0.35032   0.51130   0.00000  Uiso   1.00
O857   O     0.09289   0.59553   0.90373   0.00000  Uiso   1.00
O858   O     0.08374   0.45114   0.90874   0.00000  Uiso   1.00
O859   O     0.06239   0.54096   0.69148   0.00000  Uiso   1.00
O860   O     0.17930   0.41352   0.78214   0.00000  Uiso   1.00
O861   O     0.14632   0.59418   0.77014   0.00000  Uiso   1.00
O862   O     0.07412   0.46625   0.73413   0.00000  Uiso   1.00
O863   O     0.26693   0.52605   0.71361   0.00000  Uiso   1.00
O864   O     0.07071   0.52211   0.78213   0.00000  Uiso   1.00
O865   O     0.25491   0.48559   0.77014   0.00000  Uiso   1.00
O866   O     0.13760   0.40277   0.73413   0.00000  Uiso   1.00
O867   O     0.20345   0.58953   0.71361   0.00000  Uiso   1.00
Zn868  Zn    0.19338   0.47327   0.78734   0.00000  Uiso   1.00
Zn869  Zn    0.13379   0.45791   0.71876   0.00000  Uiso   1.00
Zn870  Zn    0.21056   0.53109   0.70657   0.00000  Uiso   1.00
Zn871  Zn    0.12893   0.53773   0.78734   0.00000  Uiso   1.00
C872   C     0.38593   0.49235   0.76065   0.00000  Uiso   1.00
C873   C     0.51219   0.49851   0.55690   0.00000  Uiso   1.00
C874   C     0.54121   0.43499   0.55894   0.00000  Uiso   1.00
C875   C     0.61436   0.50736   0.73967   0.00000  Uiso   1.00
C876   C     0.47650   0.52906   0.92032   0.00000  Uiso   1.00
C877   C     0.66077   0.51099   0.73447   0.00000  Uiso   1.00
C878   C     0.34115   0.49088   0.76255   0.00000  Uiso   1.00
C879   C     0.51610   0.65633   0.73579   0.00000  Uiso   1.00
C880   C     0.48601   0.34501   0.76229   0.00000  Uiso   1.00
C881   C     0.48867   0.38927   0.76079   0.00000  Uiso   1.00
C882   C     0.51038   0.61142   0.73999   0.00000  Uiso   1.00
C883   C     0.48399   0.58481   0.97830   0.00000  Uiso   1.00
C884   C     0.51868   0.48131   0.62912   0.00000  Uiso   1.00
C885   C     0.48196   0.51840   0.87110   0.00000  Uiso   1.00
C886   C     0.53567   0.42151   0.51516   0.00000  Uiso   1.00
C887   C     0.52598   0.47209   0.58044   0.00000  Uiso   1.00
C888   C     0.47284   0.57098   0.93817   0.00000  Uiso   1.00
C889   C     0.56328   0.41168   0.58279   0.00000  Uiso   1.00
C890   C     0.55508   0.34161   0.70228   0.00000  Uiso   1.00
C891   C     0.55132   0.38233   0.99188   0.00000  Uiso   1.00
C892   C     0.45962   0.60246   0.91566   0.00000  Uiso   1.00
C893   C     0.44954   0.43649   0.90781   0.00000  Uiso   1.00
C894   C     0.49714   0.55796   0.50184   0.00000  Uiso   1.00
C895   C     0.35669   0.53670   0.69839   0.00000  Uiso   1.00
C896   C     0.49616   0.51504   0.98803   0.00000  Uiso   1.00
C897   C     0.48367   0.49994   0.94785   0.00000  Uiso   1.00
C898   C     0.50867   0.48720   0.51265   0.00000  Uiso   1.00
C899   C     0.51531   0.44618   0.99375   0.00000  Uiso   1.00
C900   C     0.49748   0.43003   0.95698   0.00000  Uiso   1.00
C901   C     0.47859   0.45618   0.93661   0.00000  Uiso   1.00
H902   H     0.65209   0.47252   0.78820   0.00000  Uiso   1.00
H903   H     0.56871   0.38160   0.95657   0.00000  Uiso   1.00
H904   H     0.47824   0.63313   0.91238   0.00000  Uiso   1.00
H905   H     0.45605   0.40815   0.88660   0.00000  Uiso   1.00
H906   H     0.34316   0.55226   0.67731   0.00000  Uiso   1.00
H907   H     0.45788   0.66335   0.78549   0.00000  Uiso   1.00
H908   H     0.50060   0.52633   0.57546   0.00000  Uiso   1.00
H909   H     0.50865   0.57198   0.53052   0.00000  Uiso   1.00
H910   H     0.48350   0.61718   0.99109   0.00000  Uiso   1.00
H911   H     0.55358   0.41171   0.61923   0.00000  Uiso   1.00
H912   H     0.57826   0.65514   0.68258   0.00000  Uiso   1.00
H913   H     0.46126   0.37378   0.95031   0.00000  Uiso   1.00
H914   H     0.50845   0.38147   0.90972   0.00000  Uiso   1.00
N915   N     0.49374   0.38608   0.94410   0.00000  Uiso   1.00
O916   O     0.50000   0.50000   0.75000   0.00000  Uiso   1.00
O917   O     0.48784   0.45970   0.65459   0.00000  Uiso   1.00
O918   O     0.46274   0.53724   0.84968   0.00000  Uiso   1.00
O919   O     0.54157   0.51092   0.64606   0.00000  Uiso   1.00
O920   O     0.50785   0.49213   0.84968   0.00000  Uiso   1.00
O921   O     0.59400   0.39413   0.56234   0.00000  Uiso   1.00
O922   O     0.56205   0.37865   0.69600   0.00000  Uiso   1.00
O923   O     0.54343   0.35032   0.51130   0.00000  Uiso   1.00
O924   O     0.42622   0.59553   0.90373   0.00000  Uiso   1.00
O925   O     0.41707   0.45114   0.90874   0.00000  Uiso   1.00
O926   O     0.39572   0.54096   0.69148   0.00000  Uiso   1.00
O927   O     0.51264   0.41352   0.78214   0.00000  Uiso   1.00
O928   O     0.47965   0.59418   0.77014   0.00000  Uiso   1.00
O929   O     0.40745   0.46625   0.73413   0.00000  Uiso   1.00
O930   O     0.60026   0.52605   0.71361   0.00000  Uiso   1.00
O931   O     0.40405   0.52211   0.78213   0.00000  Uiso   1.00
O932   O     0.58824   0.48559   0.77014   0.00000  Uiso   1.00
O933   O     0.47093   0.40277   0.73413   0.00000  Uiso   1.00
O934   O     0.53678   0.58953   0.71361   0.00000  Uiso   1.00
Zn935  Zn    0.52672   0.47327   0.78734   0.00000  Uiso   1.00
Zn936  Zn    0.46713   0.45791   0.71876   0.00000  Uiso   1.00
Zn937  Zn    0.54389   0.53109   0.70657   0.00000  Uiso   1.00
Zn938  Zn    0.46226   0.53773   0.78734   0.00000  Uiso   1.00
C939   C     0.71926   0.49235   0.76065   0.00000  Uiso   1.00
C940   C     0.84553   0.49851   0.55690   0.00000  Uiso   1.00
C941   C     0.87455   0.43499   0.55894   0.00000  Uiso   1.00
C942   C     0.94769   0.50736   0.73967   0.00000  Uiso   1.00
C943   C     0.80983   0.52906   0.92032   0.00000  Uiso   1.00
C944   C     0.99411   0.51099   0.73447   0.00000  Uiso   1.00
C945   C     0.67449   0.49088   0.76255   0.00000  Uiso   1.00
C946   C     0.84943   0.65633   0.73579   0.00000  Uiso   1.00
C947   C     0.81935   0.34501   0.76229   0.00000  Uiso   1.00
C948   C     0.82200   0.38927   0.76079   0.00000  Uiso   1.00
C949   C     0.84371   0.61142   0.73999   0.00000  Uiso   1.00
C950   C     0.81732   0.58481   0.97830   0.00000  Uiso   1.00
C951   C     0.85201   0.48131   0.62912   0.00000  Uiso   1.00
C952   C     0.81529   0.51840   0.87110   0.00000  Uiso   1.00
C953   C     0.86901   0.42151   0.51516   0.00000  Uiso   1.00
C954   C     0.85932   0.47209   0.58044   0.00000  Uiso   1.00
C955   C     0.80617   0.57098   0.93817   0.00000  Uiso   1.00
C956   C     0.89661   0.41168   0.58279   0.00000  Uiso   1.00
C957   C     0.88842   0.34161   0.70228   0.00000  Uiso   1.00
C958   C     0.88465   0.38233   0.99188   0.00000  Uiso   1.00
C959   C     0.79295   0.60246   0.91566   0.00000  Uiso   1.00
C960   C     0.78288   0.43649   0.90781   0.00000  Uiso   1.00
C961   C     0.83047   0.55796   0.50184   0.00000  Uiso   1.00
C962   C     0.69003   0.53670   0.69839   0.00000  Uiso   1.00
C963   C     0.82949   0.51504   0.98803   0.00000  Uiso   1.00
C964   C     0.81701   0.49994   0.94785   0.00000  Uiso   1.00
C965   C     0.84200   0.48720   0.51265   0.00000  Uiso   1.00
C966   C     0.84864   0.44618   0.99375   0.00000  Uiso   1.00
C967   C     0.83081   0.43003   0.95698   0.00000  Uiso   1.00
C968   C     0.81193   0.45618   0.93661   0.00000  Uiso   1.00
H969   H     0.98542   0.47252   0.78820   0.00000  Uiso   1.00
H970   H     0.90204   0.38160   0.95657   0.00000  Uiso   1.00
H971   H     0.81158   0.63313   0.91238   0.00000  Uiso   1.00
H972   H     0.78939   0.40815   0.88660   0.00000  Uiso   1.00
H973   H     0.67649   0.55226   0.67731   0.00000  Uiso   1.00
H974   H     0.79121   0.66335   0.78549   0.00000  Uiso   1.00
H975   H     0.83394   0.52633   0.57546   0.00000  Uiso   1.00
H976   H     0.84198   0.57198   0.53052   0.00000  Uiso   1.00
H977   H     0.81683   0.61718   0.99109   0.00000  Uiso   1.00
H978   H     0.88691   0.41171   0.61923   0.00000  Uiso   1.00
H979   H     0.91160   0.65514   0.68258   0.00000  Uiso   1.00
H980   H     0.79460   0.37378   0.95031   0.00000  Uiso   1.00
H981   H     0.84178   0.38147   0.90972   0.00000  Uiso   1.00
N982   N     0.82707   0.38608   0.94410   0.00000  Uiso   1.00
O983   O     0.83333   0.50000   0.75000   0.00000  Uiso   1.00
O984   O     0.82118   0.45970   0.65459   0.00000  Uiso   1.00
O985   O     0.79607   0.53724   0.84968   0.00000  Uiso   1.00
O986   O     0.87491   0.51092   0.64606   0.00000  Uiso   1.00
O987   O     0.84118   0.49213   0.84968   0.00000  Uiso   1.00
O988   O     0.92733   0.39413   0.56234   0.00000  Uiso   1.00
O989   O     0.89538   0.37865   0.69600   0.00000  Uiso   1.00
O990   O     0.87676   0.35032   0.51130   0.00000  Uiso   1.00
O991   O     0.75956   0.59553   0.90373   0.00000  Uiso   1.00
O992   O     0.75040   0.45114   0.90874   0.00000  Uiso   1.00
O993   O     0.72906   0.54096   0.69148   0.00000  Uiso   1.00
O994   O     0.84597   0.41352   0.78214   0.00000  Uiso   1.00
O995   O     0.81298   0.59418   0.77014   0.00000  Uiso   1.00
O996   O     0.74078   0.46625   0.73413   0.00000  Uiso   1.00
O997   O     0.93360   0.52605   0.71361   0.00000  Uiso   1.00
O998   O     0.73738   0.52211   0.78213   0.00000  Uiso   1.00
O999   O     0.92158   0.48559   0.77014   0.00000  Uiso   1.00
O1000  O     0.80426   0.40277   0.73413   0.00000  Uiso   1.00
O1001  O     0.87012   0.58953   0.71361   0.00000  Uiso   1.00
Zn1002 Zn    0.86005   0.47327   0.78734   0.00000  Uiso   1.00
Zn1003 Zn    0.80046   0.45791   0.71876   0.00000  Uiso   1.00
Zn1004 Zn    0.87723   0.53109   0.70657   0.00000  Uiso   1.00
Zn1005 Zn    0.79560   0.53773   0.78734   0.00000  Uiso   1.00
C1006  C     0.05260   0.82568   0.76065   0.00000  Uiso   1.00
C1007  C     0.17886   0.83184   0.55690   0.00000  Uiso   1.00
C1008  C     0.20788   0.76832   0.55894   0.00000  Uiso   1.00
C1009  C     0.28102   0.84070   0.73967   0.00000  Uiso   1.00
C1010  C     0.14317   0.86239   0.92032   0.00000  Uiso   1.00
C1011  C     0.32744   0.84432   0.73447   0.00000  Uiso   1.00
C1012  C     0.00782   0.82421   0.76255   0.00000  Uiso   1.00
C1013  C     0.18277   0.98967   0.73579   0.00000  Uiso   1.00
C1014  C     0.15268   0.67834   0.76229   0.00000  Uiso   1.00
C1015  C     0.15534   0.72260   0.76079   0.00000  Uiso   1.00
C1016  C     0.17705   0.94476   0.73999   0.00000  Uiso   1.00
C1017  C     0.15065   0.91815   0.97830   0.00000  Uiso   1.00
C1018  C     0.18534   0.81464   0.62912   0.00000  Uiso   1.00
C1019  C     0.14862   0.85173   0.87110   0.00000  Uiso   1.00
C1020  C     0.20234   0.75485   0.51516   0.00000  Uiso   1.00
C1021  C     0.19265   0.80542   0.58044   0.00000  Uiso   1.00
C1022  C     0.13951   0.90431   0.93817   0.00000  Uiso   1.00
C1023  C     0.22995   0.74502   0.58279   0.00000  Uiso   1.00
C1024  C     0.22175   0.67495   0.70228   0.00000  Uiso   1.00
C1025  C     0.21799   0.71566   0.99188   0.00000  Uiso   1.00
C1026  C     0.12628   0.93579   0.91566   0.00000  Uiso   1.00
C1027  C     0.11621   0.76983   0.90781   0.00000  Uiso   1.00
C1028  C     0.16381   0.89130   0.50184   0.00000  Uiso   1.00
C1029  C     0.02336   0.87004   0.69839   0.00000  Uiso   1.00
C1030  C     0.16283   0.84837   0.98803   0.00000  Uiso   1.00
C1031  C     0.15034   0.83327   0.94785   0.00000  Uiso   1.00
C1032  C     0.17534   0.82053   0.51265   0.00000  Uiso   1.00
C1033  C     0.18198   0.77951   0.99375   0.00000  Uiso   1.00
C1034  C     0.16415   0.76336   0.95698   0.00000  Uiso   1.00
C1035  C     0.14526   0.78952   0.93661   0.00000  Uiso   1.00
H1036  H     0.31875   0.80585   0.78820   0.00000  Uiso   1.00
H1037  H     0.23537   0.71493   0.95657   0.00000  Uiso   1.00
H1038  H     0.14491   0.96647   0.91238   0.00000  Uiso   1.00
H1039  H     0.12272   0.74149   0.88660   0.00000  Uiso   1.00
H1040  H     0.00983   0.88560   0.67731   0.00000  Uiso   1.00
H1041  H     0.12455   0.99668   0.78549   0.00000  Uiso   1.00
H1042  H     0.16727   0.85967   0.57546   0.00000  Uiso   1.00
H1043  H     0.17532   0.90531   0.53052   0.00000  Uiso   1.00
H1044  H     0.15017   0.95052   0.99109   0.00000  Uiso   1.00
H1045  H     0.22025   0.74504   0.61923   0.00000  Uiso   1.00
H1046  H     0.24493   0.98847   0.68258   0.00000  Uiso   1.00
H1047  H     0.12793   0.70712   0.95031   0.00000  Uiso   1.00
H1048  H     0.17512   0.71481   0.90972   0.00000  Uiso   1.00
N1049  N     0.16040   0.71942   0.94410   0.00000  Uiso   1.00
O1050  O     0.16667   0.83333   0.75000   0.00000  Uiso   1.00
O1051  O     0.15451   0.79304   0.65459   0.00000  Uiso   1.00
O1052  O     0.12940   0.87058   0.84968   0.00000  Uiso   1.00
O1053  O     0.20824   0.84425   0.64606   0.00000  Uiso   1.00
O1054  O     0.17451   0.82546   0.84968   0.00000  Uiso   1.00
O1055  O     0.26066   0.72747   0.56234   0.00000  Uiso   1.00
O1056  O     0.22871   0.71198   0.69600   0.00000  Uiso   1.00
O1057  O     0.21010   0.68366   0.51130   0.00000  Uiso   1.00
O1058  O     0.09289   0.92886   0.90373   0.00000  Uiso   1.00
O1059  O     0.08374   0.78447   0.90874   0.00000  Uiso   1.00
O1060  O     0.06239   0.87429   0.69148   0.00000  Uiso   1.00
O1061  O     0.17930   0.74686   0.78214   0.00000  Uiso   1.00
O1062  O     0.14632   0.92751   0.77014   0.00000  Uiso   1.00
O1063  O     0.07412   0.79958   0.73413   0.00000  Uiso   1.00
O1064  O     0.26693   0.85939   0.71361   0.00000  Uiso   1.00
O1065  O     0.07071   0.85544   0.78213   0.00000  Uiso   1.00
O1066  O     0.25491   0.81892   0.77014   0.00000  Uiso   1.00
O1067  O     0.13760   0.73610   0.73413   0.00000  Uiso   1.00
O1068  O     0.20345   0.92286   0.71361   0.00000  Uiso   1.00
Zn1069 Zn    0.19338   0.80661   0.78734   0.00000  Uiso   1.00
Zn1070 Zn    0.13379   0.79124   0.71876   0.00000  Uiso   1.00
Zn1071 Zn    0.21056   0.86442   0.70657   0.00000  Uiso   1.00
Zn1072 Zn    0.12893   0.87106   0.78734   0.00000  Uiso   1.00
C1073  C     0.38593   0.82568   0.76065   0.00000  Uiso   1.00
C1074  C     0.51219   0.83184   0.55690   0.00000  Uiso   1.00
C1075  C     0.54121   0.76832   0.55894   0.00000  Uiso   1.00
C1076  C     0.61436   0.84070   0.73967   0.00000  Uiso   1.00
C1077  C     0.47650   0.86239   0.92032   0.00000  Uiso   1.00
C1078  C     0.66077   0.84432   0.73447   0.00000  Uiso   1.00
C1079  C     0.34115   0.82421   0.76255   0.00000  Uiso   1.00
C1080  C     0.51610   0.98967   0.73579   0.00000  Uiso   1.00
C1081  C     0.48601   0.67834   0.76229   0.00000  Uiso   1.00
C1082  C     0.48867   0.72260   0.76079   0.00000  Uiso   1.00
C1083  C     0.51038   0.94476   0.73999   0.00000  Uiso   1.00
C1084  C     0.48399   0.91815   0.97830   0.00000  Uiso   1.00
C1085  C     0.51868   0.81464   0.62912   0.00000  Uiso   1.00
C1086  C     0.48196   0.85173   0.87110   0.00000  Uiso   1.00
C1087  C     0.53567   0.75485   0.51516   0.00000  Uiso   1.00
C1088  C     0.52598   0.80542   0.58044   0.00000  Uiso   1.00
C1089  C     0.47284   0.90431   0.93817   0.00000  Uiso   1.00
C1090  C     0.56328   0.74502   0.58279   0.00000  Uiso   1.00
C1091  C     0.55508   0.67495   0.70228   0.00000  Uiso   1.00
C1092  C     0.55132   0.71566   0.99188   0.00000  Uiso   1.00
C1093  C     0.45962   0.93579   0.91566   0.00000  Uiso   1.00
C1094  C     0.44954   0.76983   0.90781   0.00000  Uiso   1.00
C1095  C     0.49714   0.89130   0.50184   0.00000  Uiso   1.00
C1096  C     0.35669   0.87004   0.69839   0.00000  Uiso   1.00
C1097  C     0.49616   0.84837   0.98803   0.00000  Uiso   1.00
C1098  C     0.48367   0.83327   0.94785   0.00000  Uiso   1.00
C1099  C     0.50867   0.82053   0.51265   0.00000  Uiso   1.00
C1100  C     0.51531   0.77951   0.99375   0.00000  Uiso   1.00
C1101  C     0.49748   0.76336   0.95698   0.00000  Uiso   1.00
C1102  C     0.47859   0.78952   0.93661   0.00000  Uiso   1.00
H1103  H     0.65209   0.80585   0.78820   0.00000  Uiso   1.00
H1104  H     0.56871   0.71493   0.95657   0.00000  Uiso   1.00
H1105  H     0.47824   0.96647   0.91238   0.00000  Uiso   1.00
H1106  H     0.45605   0.74149   0.88660   0.00000  Uiso   1.00
H1107  H     0.34316   0.88560   0.67731   0.00000  Uiso   1.00
H1108  H     0.45788   0.99668   0.78549   0.00000  Uiso   1.00
H1109  H     0.50060   0.85967   0.57546   0.00000  Uiso   1.00
H1110  H     0.50865   0.90531   0.53052   0.00000  Uiso   1.00
H1111  H     0.48350   0.95052   0.99109   0.00000  Uiso   1.00
H1112  H     0.55358   0.74504   0.61923   0.00000  Uiso   1.00
H1113  H     0.57826   0.98847   0.68258   0.00000  Uiso   1.00
H1114  H     0.46126   0.70712   0.95031   0.00000  Uiso   1.00
H1115  H     0.50845   0.71481   0.90972   0.00000  Uiso   1.00
N1116  N     0.49374   0.71942   0.94410   0.00000  Uiso   1.00
O1117  O     0.50000   0.83333   0.75000   0.00000  Uiso   1.00
O1118  O     0.48784   0.79304   0.65459   0.00000  Uiso   1.00
O1119  O     0.46274   0.87058   0.84968   0.00000  Uiso   1.00
O1120  O     0.54157   0.84425   0.64606   0.00000  Uiso   1.00
O1121  O     0.50785   0.82546   0.84968   0.00000  Uiso   1.00
O1122  O     0.59400   0.72747   0.56234   0.00000  Uiso   1.00
O1123  O     0.56205   0.71198   0.69600   0.00000  Uiso   1.00
O1124  O     0.54343   0.68366   0.51130   0.00000  Uiso   1.00
O1125  O     0.42622   0.92886   0.90373   0.00000  Uiso   1.00
O1126  O     0.41707   0.78447   0.90874   0.00000  Uiso   1.00
O1127  O     0.39572   0.87429   0.69148   0.00000  Uiso   1.00
O1128  O     0.51264   0.74686   0.78214   0.00000  Uiso   1.00
O1129  O     0.47965   0.92751   0.77014   0.00000  Uiso   1.00
O1130  O     0.40745   0.79958   0.73413   0.00000  Uiso   1.00
O1131  O     0.60026   0.85939   0.71361   0.00000  Uiso   1.00
O1132  O     0.40405   0.85544   0.78213   0.00000  Uiso   1.00
O1133  O     0.58824   0.81892   0.77014   0.00000  Uiso   1.00
O1134  O     0.47093   0.73610   0.73413   0.00000  Uiso   1.00
O1135  O     0.53678   0.92286   0.71361   0.00000  Uiso   1.00
Zn1136 Zn    0.52672   0.80661   0.78734   0.00000  Uiso   1.00
Zn1137 Zn    0.46713   0.79124   0.71876   0.00000  Uiso   1.00
Zn1138 Zn    0.54389   0.86442   0.70657   0.00000  Uiso   1.00
Zn1139 Zn    0.46226   0.87106   0.78734   0.00000  Uiso   1.00
C1140  C     0.71926   0.82568   0.76065   0.00000  Uiso   1.00
C1141  C     0.84553   0.83184   0.55690   0.00000  Uiso   1.00
C1142  C     0.87455   0.76832   0.55894   0.00000  Uiso   1.00
C1143  C     0.94769   0.84070   0.73967   0.00000  Uiso   1.00
C1144  C     0.80983   0.86239   0.92032   0.00000  Uiso   1.00
C1145  C     0.99411   0.84432   0.73447   0.00000  Uiso   1.00
C1146  C     0.67449   0.82421   0.76255   0.00000  Uiso   1.00
C1147  C     0.84943   0.98967   0.73579   0.00000  Uiso   1.00
C1148  C     0.81935   0.67834   0.76229   0.00000  Uiso   1.00
C1149  C     0.82200   0.72260   0.76079   0.00000  Uiso   1.00
C1150  C     0.84371   0.94476   0.73999   0.00000  Uiso   1.00
C1151  C     0.81732   0.91815   0.97830   0.00000  Uiso   1.00
C1152  C     0.85201   0.81464   0.62912   0.00000  Uiso   1.00
C1153  C     0.81529   0.85173   0.87110   0.00000  Uiso   1.00
C1154  C     0.86901   0.75485   0.51516   0.00000  Uiso   1.00
C1155  C     0.85932   0.80542   0.58044   0.00000  Uiso   1.00
C1156  C     0.80617   0.90431   0.93817   0.00000  Uiso   1.00
C1157  C     0.89661   0.74502   0.58279   0.00000  Uiso   1.00
C1158  C     0.88842   0.67495   0.70228   0.00000  Uiso   1.00
C1159  C     0.88465   0.71566   0.99188   0.00000  Uiso   1.00
C1160  C     0.79295   0.93579   0.91566   0.00000  Uiso   1.00
C1161  C     0.78288   0.76983   0.90781   0.00000  Uiso   1.00
C1162  C     0.83047   0.89130   0.50184   0.00000  Uiso   1.00
C1163  C     0.69003   0.87004   0.69839   0.00000  Uiso   1.00
C1164  C     0.82949   0.84837   0.98803   0.00000  Uiso   1.00
C1165  C     0.81701   0.83327   0.94785   0.00000  Uiso   1.00
C1166  C     0.84200   0.82053   0.51265   0.00000  Uiso   1.00
C1167  C     0.84864   0.77951   0.99375   0.00000  Uiso   1.00
C1168  C     0.83081   0.76336   0.95698   0.00000  Uiso   1.00
C1169  C     0.81193   0.78952   0.93661   0.00000  Uiso   1.00
H1170  H     0.98542   0.80585   0.78820   0.00000  Uiso   1.00
H1171  H     0.90204   0.71493   0.95657   0.00000  Uiso   1.00
H1172  H     0.81158   0.96647   0.91238   0.00000  Uiso   1.00
H1173  H     0.78939   0.74149   0.88660   0.00000  Uiso   1.00
H1174  H     0.67649   0.88560   0.67731   0.00000  Uiso   1.00
H1175  H     0.79121   0.99668   0.78549   0.00000  Uiso   1.00
H1176  H     0.83394   0.85967   0.57546   0.00000  Uiso   1.00
H1177  H     0.84198   0.90531   0.53052   0.00000  Uiso   1.00
H1178  H     0.81683   0.95052   0.99109   0.00000  Uiso   1.00
H1179  H     0.88691   0.74504   0.61923   0.00000  Uiso   1.00
H1180  H     0.91160   0.98847   0.68258   0.00000  Uiso   1.00
H1181  H     0.79460   0.70712   0.95031   0.00000  Uiso   1.00
H1182  H     0.84178   0.71481   0.90972   0.00000  Uiso   1.00
N1183  N     0.82707   0.71942   0.94410   0.00000  Uiso   1.00
O1184  O     0.83333   0.83333   0.75000   0.00000  Uiso   1.00
O1185  O     0.82118   0.79304   0.65459   0.00000  Uiso   1.00
O1186  O     0.79607   0.87058   0.84968   0.00000  Uiso   1.00
O1187  O     0.87491   0.84425   0.64606   0.00000  Uiso   1.00
O1188  O     0.84118   0.82546   0.84968   0.00000  Uiso   1.00
O1189  O     0.92733   0.72747   0.56234   0.00000  Uiso   1.00
O1190  O     0.89538   0.71198   0.69600   0.00000  Uiso   1.00
O1191  O     0.87676   0.68366   0.51130   0.00000  Uiso   1.00
O1192  O     0.75956   0.92886   0.90373   0.00000  Uiso   1.00
O1193  O     0.75040   0.78447   0.90874   0.00000  Uiso   1.00
O1194  O     0.72906   0.87429   0.69148   0.00000  Uiso   1.00
O1195  O     0.84597   0.74686   0.78214   0.00000  Uiso   1.00
O1196  O     0.81298   0.92751   0.77014   0.00000  Uiso   1.00
O1197  O     0.74078   0.79958   0.73413   0.00000  Uiso   1.00
O1198  O     0.93360   0.85939   0.71361   0.00000  Uiso   1.00
O1199  O     0.73738   0.85544   0.78213   0.00000  Uiso   1.00
O1200  O     0.92158   0.81892   0.77014   0.00000  Uiso   1.00
O1201  O     0.80426   0.73610   0.73413   0.00000  Uiso   1.00
O1202  O     0.87012   0.92286   0.71361   0.00000  Uiso   1.00
Zn1203 Zn    0.86005   0.80661   0.78734   0.00000  Uiso   1.00
Zn1204 Zn    0.80046   0.79124   0.71876   0.00000  Uiso   1.00
Zn1205 Zn    0.87723   0.86442   0.70657   0.00000  Uiso   1.00
Zn1206 Zn    0.79560   0.87106   0.78734   0.00000  Uiso   1.00
loop_
_geom_bond_atom_site_label_1
_geom_bond_atom_site_label_2
_geom_bond_distance
_geom_bond_site_symmetry_2
_ccdc_geom_bond_type
C1     O58     1.268   .     A
C1     O60     1.268   .     A
C1     C7      1.439   .     S
C2     C16     1.384   .     A
C2     C27     1.404   .     A
C2     H37     1.080   .     S
C3     C15     1.422   .     A
C3     C18     1.491   .     S
C3     C16     1.407   .     A
C4     O59     1.277   .     A
C4     C6      1.466   .     S
C4     O61     1.283   .     A
C5     C14     1.488   .     S
C5     C26     1.429   .     A
C5     C17     1.424   .     A
C6     C74     1.347   .     S
C6     C91     1.499   .     S
C7     C140    1.347   1_455 S
C7     H165    1.086   1_455 S
C8     C11     1.463   .     S
C8     C210    1.344   .     S
C8     C220    1.500   .     S
C9     C10     1.437   .     S
C9     C410    1.344   1_545 S
C9     H438    1.086   1_545 S
C10    O62     1.275   .     A
C10    O56     1.276   .     A
C11    O57     1.276   .     A
C11    O63     1.265   .     A
C12    C17     1.389   .     A
C12    H39     1.084   .     S
C12    C626    1.383   .     S
C13    C16     1.461   .     S
C13    O46     1.267   .     A
C13    O48     1.275   .     A
C14    O47     1.283   .     A
C14    O49     1.298   .     A
C15    C623    1.486   1_554 S
C15    C631    1.432   1_554 S
C17    C21     1.479   .     S
C18    O50     1.221   .     D
C18    H40     1.084   .     S
C19    O51     1.221   .     D
C19    C410    1.500   1_545 S
C19    H443    1.085   1_545 S
C20    H32     1.085   .     S
C20    C618    1.486   .     S
C20    O655    1.221   .     S
C21    O53     1.221   .     D
C21    H33     1.085   .     S
C22    C30     1.492   .     S
C22    O54     1.221   .     D
C22    H34     1.084   .     S
C23    H38     1.079   .     S
C23    C615    1.383   1_554 S
C23    C628    1.413   1_554 S
C24    O55     1.221   .     D
C24    H35     1.085   .     S
C24    C140    1.499   1_455 S
C25    C26     1.419   .     A
C25    C626    1.413   .     S
C25    C630    1.418   .     S
C26    C30     1.423   .     A
C27    C628    1.418   1_554 S
C27    C631    1.421   1_554 S
C28    C29     1.422   .     A
C28    C630    1.421   .     S
C28    C618    1.432   .     S
C29    C30     1.414   .     A
C29    N44     1.437   .     S
H31    C74     1.086   .     S
H36    C210    1.086   .     S
H41    C220    1.085   .     S
H42    N44     1.046   .     S
H43    N44     1.046   .     S
O45    Zn67    1.937   .     S
O45    Zn65    1.935   .     S
O45    Zn66    1.923   .     S
O45    Zn64    1.964   .     S
O46    Zn65    1.919   .     S
O47    Zn67    1.931   .     S
O48    Zn66    1.925   .     S
O49    Zn64    1.917   .     S
O52    C623    1.221   1_554 S
O56    Zn64    1.927   .     S
O57    Zn67    1.929   .     S
O58    Zn65    1.932   .     S
O59    Zn66    1.942   .     S
O60    Zn67    1.931   .     S
O61    Zn64    1.922   .     S
O62    Zn65    1.942   .     S
O63    Zn66    1.936   .     S
C68    O125    1.268   .     A
C68    O127    1.268   .     A
C68    C74     1.439   .     S
C69    C83     1.384   .     A
C69    C94     1.404   .     A
C69    H104    1.080   .     S
C70    C82     1.422   .     A
C70    C85     1.491   .     S
C70    C83     1.407   .     A
C71    O126    1.277   .     A
C71    C73     1.466   .     S
C71    O128    1.283   .     A
C72    C81     1.488   .     S
C72    C93     1.429   .     A
C72    C84     1.424   .     A
C73    C141    1.347   .     S
C73    C158    1.499   .     S
C75    C78     1.463   .     S
C75    C277    1.344   .     S
C75    C287    1.500   .     S
C76    C77     1.437   .     S
C76    C477    1.344   1_545 S
C76    H505    1.086   1_545 S
C77    O129    1.275   .     A
C77    O123    1.276   .     A
C78    O124    1.276   .     A
C78    O130    1.265   .     A
C79    C84     1.389   .     A
C79    H106    1.084   .     S
C79    C693    1.383   .     S
C80    C83     1.461   .     S
C80    O113    1.267   .     A
C80    O115    1.275   .     A
C81    O114    1.283   .     A
C81    O116    1.298   .     A
C82    C690    1.486   1_554 S
C82    C698    1.432   1_554 S
C84    C88     1.479   .     S
C85    O117    1.221   .     D
C85    H107    1.084   .     S
C86    O118    1.221   .     D
C86    C477    1.500   1_545 S
C86    H510    1.085   1_545 S
C87    H99     1.085   .     S
C87    C685    1.486   .     S
C87    O722    1.221   .     S
C88    O120    1.221   .     D
C88    H100    1.085   .     S
C89    C97     1.492   .     S
C89    O121    1.221   .     D
C89    H101    1.084   .     S
C90    H105    1.079   .     S
C90    C682    1.383   1_554 S
C90    C695    1.413   1_554 S
C91    O122    1.221   .     D
C91    H102    1.085   .     S
C92    C93     1.419   .     A
C92    C693    1.413   .     S
C92    C697    1.418   .     S
C93    C97     1.423   .     A
C94    C695    1.418   1_554 S
C94    C698    1.421   1_554 S
C95    C96     1.422   .     A
C95    C697    1.421   .     S
C95    C685    1.432   .     S
C96    C97     1.414   .     A
C96    N111    1.437   .     S
H98    C141    1.086   .     S
H103   C277    1.086   .     S
H108   C287    1.085   .     S
H109   N111    1.046   .     S
H110   N111    1.046   .     S
O112   Zn134   1.937   .     S
O112   Zn132   1.935   .     S
O112   Zn133   1.923   .     S
O112   Zn131   1.964   .     S
O113   Zn132   1.919   .     S
O114   Zn134   1.931   .     S
O115   Zn133   1.925   .     S
O116   Zn131   1.917   .     S
O119   C690    1.221   1_554 S
O123   Zn131   1.927   .     S
O124   Zn134   1.929   .     S
O125   Zn132   1.932   .     S
O126   Zn133   1.942   .     S
O127   Zn134   1.931   .     S
O128   Zn131   1.922   .     S
O129   Zn132   1.942   .     S
O130   Zn133   1.936   .     S
C135   O192    1.268   .     A
C135   O194    1.268   .     A
C135   C141    1.439   .     S
C136   C150    1.384   .     A
C136   C161    1.404   .     A
C136   H171    1.080   .     S
C137   C149    1.422   .     A
C137   C152    1.491   .     S
C137   C150    1.407   .     A
C138   O193    1.277   .     A
C138   C140    1.466   .     S
C138   O195    1.283   .     A
C139   C148    1.488   .     S
C139   C160    1.429   .     A
C139   C151    1.424   .     A
C140   C7      1.347   1_655 S
C140   C24     1.499   1_655 S
C142   C145    1.463   .     S
C142   C344    1.344   .     S
C142   C354    1.500   .     S
C143   C144    1.437   .     S
C143   C544    1.344   1_545 S
C143   H572    1.086   1_545 S
C144   O196    1.275   .     A
C144   O190    1.276   .     A
C145   O191    1.276   .     A
C145   O197    1.265   .     A
C146   C151    1.389   .     A
C146   H173    1.084   .     S
C146   C760    1.383   .     S
C147   C150    1.461   .     S
C147   O180    1.267   .     A
C147   O182    1.275   .     A
C148   O181    1.283   .     A
C148   O183    1.298   .     A
C149   C757    1.486   1_554 S
C149   C765    1.432   1_554 S
C151   C155    1.479   .     S
C152   O184    1.221   .     D
C152   H174    1.084   .     S
C153   O185    1.221   .     D
C153   C544    1.500   1_545 S
C153   H577    1.085   1_545 S
C154   H166    1.085   .     S
C154   C752    1.486   .     S
C154   O789    1.221   .     S
C155   O187    1.221   .     D
C155   H167    1.085   .     S
C156   C164    1.492   .     S
C156   O188    1.221   .     D
C156   H168    1.084   .     S
C157   H172    1.079   .     S
C157   C749    1.383   1_554 S
C157   C762    1.413   1_554 S
C158   O189    1.221   .     D
C158   H169    1.085   .     S
C159   C160    1.419   .     A
C159   C760    1.413   .     S
C159   C764    1.418   .     S
C160   C164    1.423   .     A
C161   C762    1.418   1_554 S
C161   C765    1.421   1_554 S
C162   C163    1.422   .     A
C162   C764    1.421   .     S
C162   C752    1.432   .     S
C163   C164    1.414   .     A
C163   N178    1.437   .     S
H165   C7      1.086   1_655 S
H170   C344    1.086   .     S
H175   C354    1.085   .     S
H176   N178    1.046   .     S
H177   N178    1.046   .     S
O179   Zn201   1.937   .     S
O179   Zn199   1.935   .     S
O179   Zn200   1.923   .     S
O179   Zn198   1.964   .     S
O180   Zn199   1.919   .     S
O181   Zn201   1.931   .     S
O182   Zn200   1.925   .     S
O183   Zn198   1.917   .     S
O186   C757    1.221   1_554 S
O190   Zn198   1.927   .     S
O191   Zn201   1.929   .     S
O192   Zn199   1.932   .     S
O193   Zn200   1.942   .     S
O194   Zn201   1.931   .     S
O195   Zn198   1.922   .     S
O196   Zn199   1.942   .     S
O197   Zn200   1.936   .     S
C202   O259    1.268   .     A
C202   O261    1.268   .     A
C202   C208    1.439   .     S
C203   C217    1.384   .     A
C203   C228    1.404   .     A
C203   H238    1.080   .     S
C204   C216    1.422   .     A
C204   C219    1.491   .     S
C204   C217    1.407   .     A
C205   O260    1.277   .     A
C205   C207    1.466   .     S
C205   O262    1.283   .     A
C206   C215    1.488   .     S
C206   C227    1.429   .     A
C206   C218    1.424   .     A
C207   C275    1.347   .     S
C207   C292    1.499   .     S
C208   C341    1.347   1_455 S
C208   H366    1.086   1_455 S
C209   C212    1.463   .     S
C209   C411    1.344   .     S
C209   C421    1.500   .     S
C210   C211    1.437   .     S
C211   O263    1.275   .     A
C211   O257    1.276   .     A
C212   O258    1.276   .     A
C212   O264    1.265   .     A
C213   C218    1.389   .     A
C213   H240    1.084   .     S
C213   C827    1.383   .     S
C214   C217    1.461   .     S
C214   O247    1.267   .     A
C214   O249    1.275   .     A
C215   O248    1.283   .     A
C215   O250    1.298   .     A
C216   C824    1.486   1_554 S
C216   C832    1.432   1_554 S
C218   C222    1.479   .     S
C219   O251    1.221   .     D
C219   H241    1.084   .     S
C220   O252    1.221   .     D
C221   H233    1.085   .     S
C221   C819    1.486   .     S
C221   O856    1.221   .     S
C222   O254    1.221   .     D
C222   H234    1.085   .     S
C223   C231    1.492   .     S
C223   O255    1.221   .     D
C223   H235    1.084   .     S
C224   H239    1.079   .     S
C224   C816    1.383   1_554 S
C224   C829    1.413   1_554 S
C225   O256    1.221   .     D
C225   H236    1.085   .     S
C225   C341    1.499   1_455 S
C226   C227    1.419   .     A
C226   C827    1.413   .     S
C226   C831    1.418   .     S
C227   C231    1.423   .     A
C228   C829    1.418   1_554 S
C228   C832    1.421   1_554 S
C229   C230    1.422   .     A
C229   C831    1.421   .     S
C229   C819    1.432   .     S
C230   C231    1.414   .     A
C230   N245    1.437   .     S
H232   C275    1.086   .     S
H237   C411    1.086   .     S
H242   C421    1.085   .     S
H243   N245    1.046   .     S
H244   N245    1.046   .     S
O246   Zn268   1.937   .     S
O246   Zn266   1.935   .     S
O246   Zn267   1.923   .     S
O246   Zn265   1.964   .     S
O247   Zn266   1.919   .     S
O248   Zn268   1.931   .     S
O249   Zn267   1.925   .     S
O250   Zn265   1.917   .     S
O253   C824    1.221   1_554 S
O257   Zn265   1.927   .     S
O258   Zn268   1.929   .     S
O259   Zn266   1.932   .     S
O260   Zn267   1.942   .     S
O261   Zn268   1.931   .     S
O262   Zn265   1.922   .     S
O263   Zn266   1.942   .     S
O264   Zn267   1.936   .     S
C269   O326    1.268   .     A
C269   O328    1.268   .     A
C269   C275    1.439   .     S
C270   C284    1.384   .     A
C270   C295    1.404   .     A
C270   H305    1.080   .     S
C271   C283    1.422   .     A
C271   C286    1.491   .     S
C271   C284    1.407   .     A
C272   O327    1.277   .     A
C272   C274    1.466   .     S
C272   O329    1.283   .     A
C273   C282    1.488   .     S
C273   C294    1.429   .     A
C273   C285    1.424   .     A
C274   C342    1.347   .     S
C274   C359    1.499   .     S
C276   C279    1.463   .     S
C276   C478    1.344   .     S
C276   C488    1.500   .     S
C277   C278    1.437   .     S
C278   O330    1.275   .     A
C278   O324    1.276   .     A
C279   O325    1.276   .     A
C279   O331    1.265   .     A
C280   C285    1.389   .     A
C280   H307    1.084   .     S
C280   C894    1.383   .     S
C281   C284    1.461   .     S
C281   O314    1.267   .     A
C281   O316    1.275   .     A
C282   O315    1.283   .     A
C282   O317    1.298   .     A
C283   C891    1.486   1_554 S
C283   C899    1.432   1_554 S
C285   C289    1.479   .     S
C286   O318    1.221   .     D
C286   H308    1.084   .     S
C287   O319    1.221   .     D
C288   H300    1.085   .     S
C288   C886    1.486   .     S
C288   O923    1.221   .     S
C289   O321    1.221   .     D
C289   H301    1.085   .     S
C290   C298    1.492   .     S
C290   O322    1.221   .     D
C290   H302    1.084   .     S
C291   H306    1.079   .     S
C291   C883    1.383   1_554 S
C291   C896    1.413   1_554 S
C292   O323    1.221   .     D
C292   H303    1.085   .     S
C293   C294    1.419   .     A
C293   C894    1.413   .     S
C293   C898    1.418   .     S
C294   C298    1.423   .     A
C295   C896    1.418   1_554 S
C295   C899    1.421   1_554 S
C296   C297    1.422   .     A
C296   C898    1.421   .     S
C296   C886    1.432   .     S
C297   C298    1.414   .     A
C297   N312    1.437   .     S
H299   C342    1.086   .     S
H304   C478    1.086   .     S
H309   C488    1.085   .     S
H310   N312    1.046   .     S
H311   N312    1.046   .     S
O313   Zn335   1.937   .     S
O313   Zn333   1.935   .     S
O313   Zn334   1.923   .     S
O313   Zn332   1.964   .     S
O314   Zn333   1.919   .     S
O315   Zn335   1.931   .     S
O316   Zn334   1.925   .     S
O317   Zn332   1.917   .     S
O320   C891    1.221   1_554 S
O324   Zn332   1.927   .     S
O325   Zn335   1.929   .     S
O326   Zn333   1.932   .     S
O327   Zn334   1.942   .     S
O328   Zn335   1.931   .     S
O329   Zn332   1.922   .     S
O330   Zn333   1.942   .     S
O331   Zn334   1.936   .     S
C336   O393    1.268   .     A
C336   O395    1.268   .     A
C336   C342    1.439   .     S
C337   C351    1.384   .     A
C337   C362    1.404   .     A
C337   H372    1.080   .     S
C338   C350    1.422   .     A
C338   C353    1.491   .     S
C338   C351    1.407   .     A
C339   O394    1.277   .     A
C339   C341    1.466   .     S
C339   O396    1.283   .     A
C340   C349    1.488   .     S
C340   C361    1.429   .     A
C340   C352    1.424   .     A
C341   C208    1.347   1_655 S
C341   C225    1.499   1_655 S
C343   C346    1.463   .     S
C343   C545    1.344   .     S
C343   C555    1.500   .     S
C344   C345    1.437   .     S
C345   O397    1.275   .     A
C345   O391    1.276   .     A
C346   O392    1.276   .     A
C346   O398    1.265   .     A
C347   C352    1.389   .     A
C347   H374    1.084   .     S
C347   C961    1.383   .     S
C348   C351    1.461   .     S
C348   O381    1.267   .     A
C348   O383    1.275   .     A
C349   O382    1.283   .     A
C349   O384    1.298   .     A
C350   C958    1.486   1_554 S
C350   C966    1.432   1_554 S
C352   C356    1.479   .     S
C353   O385    1.221   .     D
C353   H375    1.084   .     S
C354   O386    1.221   .     D
C355   H367    1.085   .     S
C355   C953    1.486   .     S
C355   O990    1.221   .     S
C356   O388    1.221   .     D
C356   H368    1.085   .     S
C357   C365    1.492   .     S
C357   O389    1.221   .     D
C357   H369    1.084   .     S
C358   H373    1.079   .     S
C358   C950    1.383   1_554 S
C358   C963    1.413   1_554 S
C359   O390    1.221   .     D
C359   H370    1.085   .     S
C360   C361    1.419   .     A
C360   C961    1.413   .     S
C360   C965    1.418   .     S
C361   C365    1.423   .     A
C362   C963    1.418   1_554 S
C362   C966    1.421   1_554 S
C363   C364    1.422   .     A
C363   C965    1.421   .     S
C363   C953    1.432   .     S
C364   C365    1.414   .     A
C364   N379    1.437   .     S
H366   C208    1.086   1_655 S
H371   C545    1.086   .     S
H376   C555    1.085   .     S
H377   N379    1.046   .     S
H378   N379    1.046   .     S
O380   Zn402   1.937   .     S
O380   Zn400   1.935   .     S
O380   Zn401   1.923   .     S
O380   Zn399   1.964   .     S
O381   Zn400   1.919   .     S
O382   Zn402   1.931   .     S
O383   Zn401   1.925   .     S
O384   Zn399   1.917   .     S
O387   C958    1.221   1_554 S
O391   Zn399   1.927   .     S
O392   Zn402   1.929   .     S
O393   Zn400   1.932   .     S
O394   Zn401   1.942   .     S
O395   Zn402   1.931   .     S
O396   Zn399   1.922   .     S
O397   Zn400   1.942   .     S
O398   Zn401   1.936   .     S
C403   O460    1.268   .     A
C403   O462    1.268   .     A
C403   C409    1.439   .     S
C404   C418    1.384   .     A
C404   C429    1.404   .     A
C404   H439    1.080   .     S
C405   C417    1.422   .     A
C405   C420    1.491   .     S
C405   C418    1.407   .     A
C406   O461    1.277   .     A
C406   C408    1.466   .     S
C406   O463    1.283   .     A
C407   C416    1.488   .     S
C407   C428    1.429   .     A
C407   C419    1.424   .     A
C408   C476    1.347   .     S
C408   C493    1.499   .     S
C409   C542    1.347   1_455 S
C409   H567    1.086   1_455 S
C410   C413    1.463   .     S
C410   C9      1.344   1_565 S
C410   C19     1.500   1_565 S
C411   C412    1.437   .     S
C412   O464    1.275   .     A
C412   O458    1.276   .     A
C413   O459    1.276   .     A
C413   O465    1.265   .     A
C414   C419    1.389   .     A
C414   H441    1.084   .     S
C414   C1028   1.383   .     S
C415   C418    1.461   .     S
C415   O448    1.267   .     A
C415   O450    1.275   .     A
C416   O449    1.283   .     A
C416   O451    1.298   .     A
C417   C1025   1.486   1_554 S
C417   C1033   1.432   1_554 S
C419   C423    1.479   .     S
C420   O452    1.221   .     D
C420   H442    1.084   .     S
C421   O453    1.221   .     D
C422   H434    1.085   .     S
C422   C1020   1.486   .     S
C422   O1057   1.221   .     S
C423   O455    1.221   .     D
C423   H435    1.085   .     S
C424   C432    1.492   .     S
C424   O456    1.221   .     D
C424   H436    1.084   .     S
C425   H440    1.079   .     S
C425   C1017   1.383   1_554 S
C425   C1030   1.413   1_554 S
C426   O457    1.221   .     D
C426   H437    1.085   .     S
C426   C542    1.499   1_455 S
C427   C428    1.419   .     A
C427   C1028   1.413   .     S
C427   C1032   1.418   .     S
C428   C432    1.423   .     A
C429   C1030   1.418   1_554 S
C429   C1033   1.421   1_554 S
C430   C431    1.422   .     A
C430   C1032   1.421   .     S
C430   C1020   1.432   .     S
C431   C432    1.414   .     A
C431   N446    1.437   .     S
H433   C476    1.086   .     S
H438   C9      1.086   1_565 S
H443   C19     1.085   1_565 S
H444   N446    1.046   .     S
H445   N446    1.046   .     S
O447   Zn469   1.937   .     S
O447   Zn467   1.935   .     S
O447   Zn468   1.923   .     S
O447   Zn466   1.964   .     S
O448   Zn467   1.919   .     S
O449   Zn469   1.931   .     S
O450   Zn468   1.925   .     S
O451   Zn466   1.917   .     S
O454   C1025   1.221   1_554 S
O458   Zn466   1.927   .     S
O459   Zn469   1.929   .     S
O460   Zn467   1.932   .     S
O461   Zn468   1.942   .     S
O462   Zn469   1.931   .     S
O463   Zn466   1.922   .     S
O464   Zn467   1.942   .     S
O465   Zn468   1.936   .     S
C470   O527    1.268   .     A
C470   O529    1.268   .     A
C470   C476    1.439   .     S
C471   C485    1.384   .     A
C471   C496    1.404   .     A
C471   H506    1.080   .     S
C472   C484    1.422   .     A
C472   C487    1.491   .     S
C472   C485    1.407   .     A
C473   O528    1.277   .     A
C473   C475    1.466   .     S
C473   O530    1.283   .     A
C474   C483    1.488   .     S
C474   C495    1.429   .     A
C474   C486    1.424   .     A
C475   C543    1.347   .     S
C475   C560    1.499   .     S
C477   C480    1.463   .     S
C477   C76     1.344   1_565 S
C477   C86     1.500   1_565 S
C478   C479    1.437   .     S
C479   O531    1.275   .     A
C479   O525    1.276   .     A
C480   O526    1.276   .     A
C480   O532    1.265   .     A
C481   C486    1.389   .     A
C481   H508    1.084   .     S
C481   C1095   1.383   .     S
C482   C485    1.461   .     S
C482   O515    1.267   .     A
C482   O517    1.275   .     A
C483   O516    1.283   .     A
C483   O518    1.298   .     A
C484   C1092   1.486   1_554 S
C484   C1100   1.432   1_554 S
C486   C490    1.479   .     S
C487   O519    1.221   .     D
C487   H509    1.084   .     S
C488   O520    1.221   .     D
C489   H501    1.085   .     S
C489   C1087   1.486   .     S
C489   O1124   1.221   .     S
C490   O522    1.221   .     D
C490   H502    1.085   .     S
C491   C499    1.492   .     S
C491   O523    1.221   .     D
C491   H503    1.084   .     S
C492   H507    1.079   .     S
C492   C1084   1.383   1_554 S
C492   C1097   1.413   1_554 S
C493   O524    1.221   .     D
C493   H504    1.085   .     S
C494   C495    1.419   .     A
C494   C1095   1.413   .     S
C494   C1099   1.418   .     S
C495   C499    1.423   .     A
C496   C1097   1.418   1_554 S
C496   C1100   1.421   1_554 S
C497   C498    1.422   .     A
C497   C1099   1.421   .     S
C497   C1087   1.432   .     S
C498   C499    1.414   .     A
C498   N513    1.437   .     S
H500   C543    1.086   .     S
H505   C76     1.086   1_565 S
H510   C86     1.085   1_565 S
H511   N513    1.046   .     S
H512   N513    1.046   .     S
O514   Zn536   1.937   .     S
O514   Zn534   1.935   .     S
O514   Zn535   1.923   .     S
O514   Zn533   1.964   .     S
O515   Zn534   1.919   .     S
O516   Zn536   1.931   .     S
O517   Zn535   1.925   .     S
O518   Zn533   1.917   .     S
O521   C1092   1.221   1_554 S
O525   Zn533   1.927   .     S
O526   Zn536   1.929   .     S
O527   Zn534   1.932   .     S
O528   Zn535   1.942   .     S
O529   Zn536   1.931   .     S
O530   Zn533   1.922   .     S
O531   Zn534   1.942   .     S
O532   Zn535   1.936   .     S
C537   O594    1.268   .     A
C537   O596    1.268   .     A
C537   C543    1.439   .     S
C538   C552    1.384   .     A
C538   C563    1.404   .     A
C538   H573    1.080   .     S
C539   C551    1.422   .     A
C539   C554    1.491   .     S
C539   C552    1.407   .     A
C540   O595    1.277   .     A
C540   C542    1.466   .     S
C540   O597    1.283   .     A
C541   C550    1.488   .     S
C541   C562    1.429   .     A
C541   C553    1.424   .     A
C542   C409    1.347   1_655 S
C542   C426    1.499   1_655 S
C544   C547    1.463   .     S
C544   C143    1.344   1_565 S
C544   C153    1.500   1_565 S
C545   C546    1.437   .     S
C546   O598    1.275   .     A
C546   O592    1.276   .     A
C547   O593    1.276   .     A
C547   O599    1.265   .     A
C548   C553    1.389   .     A
C548   H575    1.084   .     S
C548   C1162   1.383   .     S
C549   C552    1.461   .     S
C549   O582    1.267   .     A
C549   O584    1.275   .     A
C550   O583    1.283   .     A
C550   O585    1.298   .     A
C551   C1159   1.486   1_554 S
C551   C1167   1.432   1_554 S
C553   C557    1.479   .     S
C554   O586    1.221   .     D
C554   H576    1.084   .     S
C555   O587    1.221   .     D
C556   H568    1.085   .     S
C556   C1154   1.486   .     S
C556   O1191   1.221   .     S
C557   O589    1.221   .     D
C557   H569    1.085   .     S
C558   C566    1.492   .     S
C558   O590    1.221   .     D
C558   H570    1.084   .     S
C559   H574    1.079   .     S
C559   C1151   1.383   1_554 S
C559   C1164   1.413   1_554 S
C560   O591    1.221   .     D
C560   H571    1.085   .     S
C561   C562    1.419   .     A
C561   C1162   1.413   .     S
C561   C1166   1.418   .     S
C562   C566    1.423   .     A
C563   C1164   1.418   1_554 S
C563   C1167   1.421   1_554 S
C564   C565    1.422   .     A
C564   C1166   1.421   .     S
C564   C1154   1.432   .     S
C565   C566    1.414   .     A
C565   N580    1.437   .     S
H567   C409    1.086   1_655 S
H572   C143    1.086   1_565 S
H577   C153    1.085   1_565 S
H578   N580    1.046   .     S
H579   N580    1.046   .     S
O581   Zn603   1.937   .     S
O581   Zn601   1.935   .     S
O581   Zn602   1.923   .     S
O581   Zn600   1.964   .     S
O582   Zn601   1.919   .     S
O583   Zn603   1.931   .     S
O584   Zn602   1.925   .     S
O585   Zn600   1.917   .     S
O588   C1159   1.221   1_554 S
O592   Zn600   1.927   .     S
O593   Zn603   1.929   .     S
O594   Zn601   1.932   .     S
O595   Zn602   1.942   .     S
O596   Zn603   1.931   .     S
O597   Zn600   1.922   .     S
O598   Zn601   1.942   .     S
O599   Zn602   1.936   .     S
C604   O661    1.268   .     A
C604   O663    1.268   .     A
C604   C610    1.439   .     S
C605   C619    1.384   .     A
C605   C630    1.404   .     A
C605   H640    1.080   .     S
C606   C618    1.422   .     A
C606   C621    1.491   .     S
C606   C619    1.407   .     A
C607   O662    1.277   .     A
C607   C609    1.466   .     S
C607   O664    1.283   .     A
C608   C617    1.488   .     S
C608   C629    1.429   .     A
C608   C620    1.424   .     A
C609   C677    1.347   .     S
C609   C694    1.499   .     S
C610   C743    1.347   1_455 S
C610   H768    1.086   1_455 S
C611   C614    1.463   .     S
C611   C813    1.344   .     S
C611   C823    1.500   .     S
C612   C613    1.437   .     S
C612   C1013   1.344   1_545 S
C612   H1041   1.086   1_545 S
C613   O665    1.275   .     A
C613   O659    1.276   .     A
C614   O660    1.276   .     A
C614   O666    1.265   .     A
C615   C620    1.389   .     A
C615   H642    1.084   .     S
C615   C23     1.383   1_556 S
C616   C619    1.461   .     S
C616   O649    1.267   .     A
C616   O651    1.275   .     A
C617   O650    1.283   .     A
C617   O652    1.298   .     A
C620   C624    1.479   .     S
C621   O653    1.221   .     D
C621   H643    1.084   .     S
C622   O654    1.221   .     D
C622   C1013   1.500   1_545 S
C622   H1046   1.085   1_545 S
C623   H635    1.085   .     S
C623   C15     1.486   1_556 S
C623   O52     1.221   1_556 S
C624   O656    1.221   .     D
C624   H636    1.085   .     S
C625   C633    1.492   .     S
C625   O657    1.221   .     D
C625   H637    1.084   .     S
C626   H641    1.079   .     S
C627   O658    1.221   .     D
C627   H638    1.085   .     S
C627   C743    1.499   1_455 S
C628   C629    1.419   .     A
C628   C23     1.413   1_556 S
C628   C27     1.418   1_556 S
C629   C633    1.423   .     A
C631   C632    1.422   .     A
C631   C27     1.421   1_556 S
C631   C15     1.432   1_556 S
C632   C633    1.414   .     A
C632   N647    1.437   .     S
H634   C677    1.086   .     S
H639   C813    1.086   .     S
H644   C823    1.085   .     S
H645   N647    1.046   .     S
H646   N647    1.046   .     S
O648   Zn670   1.937   .     S
O648   Zn668   1.935   .     S
O648   Zn669   1.923   .     S
O648   Zn667   1.964   .     S
O649   Zn668   1.919   .     S
O650   Zn670   1.931   .     S
O651   Zn669   1.925   .     S
O652   Zn667   1.917   .     S
O659   Zn667   1.927   .     S
O660   Zn670   1.929   .     S
O661   Zn668   1.932   .     S
O662   Zn669   1.942   .     S
O663   Zn670   1.931   .     S
O664   Zn667   1.922   .     S
O665   Zn668   1.942   .     S
O666   Zn669   1.936   .     S
C671   O728    1.268   .     A
C671   O730    1.268   .     A
C671   C677    1.439   .     S
C672   C686    1.384   .     A
C672   C697    1.404   .     A
C672   H707    1.080   .     S
C673   C685    1.422   .     A
C673   C688    1.491   .     S
C673   C686    1.407   .     A
C674   O729    1.277   .     A
C674   C676    1.466   .     S
C674   O731    1.283   .     A
C675   C684    1.488   .     S
C675   C696    1.429   .     A
C675   C687    1.424   .     A
C676   C744    1.347   .     S
C676   C761    1.499   .     S
C678   C681    1.463   .     S
C678   C880    1.344   .     S
C678   C890    1.500   .     S
C679   C680    1.437   .     S
C679   C1080   1.344   1_545 S
C679   H1108   1.086   1_545 S
C680   O732    1.275   .     A
C680   O726    1.276   .     A
C681   O727    1.276   .     A
C681   O733    1.265   .     A
C682   C687    1.389   .     A
C682   H709    1.084   .     S
C682   C90     1.383   1_556 S
C683   C686    1.461   .     S
C683   O716    1.267   .     A
C683   O718    1.275   .     A
C684   O717    1.283   .     A
C684   O719    1.298   .     A
C687   C691    1.479   .     S
C688   O720    1.221   .     D
C688   H710    1.084   .     S
C689   O721    1.221   .     D
C689   C1080   1.500   1_545 S
C689   H1113   1.085   1_545 S
C690   H702    1.085   .     S
C690   C82     1.486   1_556 S
C690   O119    1.221   1_556 S
C691   O723    1.221   .     D
C691   H703    1.085   .     S
C692   C700    1.492   .     S
C692   O724    1.221   .     D
C692   H704    1.084   .     S
C693   H708    1.079   .     S
C694   O725    1.221   .     D
C694   H705    1.085   .     S
C695   C696    1.419   .     A
C695   C90     1.413   1_556 S
C695   C94     1.418   1_556 S
C696   C700    1.423   .     A
C698   C699    1.422   .     A
C698   C94     1.421   1_556 S
C698   C82     1.432   1_556 S
C699   C700    1.414   .     A
C699   N714    1.437   .     S
H701   C744    1.086   .     S
H706   C880    1.086   .     S
H711   C890    1.085   .     S
H712   N714    1.046   .     S
H713   N714    1.046   .     S
O715   Zn737   1.937   .     S
O715   Zn735   1.935   .     S
O715   Zn736   1.923   .     S
O715   Zn734   1.964   .     S
O716   Zn735   1.919   .     S
O717   Zn737   1.931   .     S
O718   Zn736   1.925   .     S
O719   Zn734   1.917   .     S
O726   Zn734   1.927   .     S
O727   Zn737   1.929   .     S
O728   Zn735   1.932   .     S
O729   Zn736   1.942   .     S
O730   Zn737   1.931   .     S
O731   Zn734   1.922   .     S
O732   Zn735   1.942   .     S
O733   Zn736   1.936   .     S
C738   O795    1.268   .     A
C738   O797    1.268   .     A
C738   C744    1.439   .     S
C739   C753    1.384   .     A
C739   C764    1.404   .     A
C739   H774    1.080   .     S
C740   C752    1.422   .     A
C740   C755    1.491   .     S
C740   C753    1.407   .     A
C741   O796    1.277   .     A
C741   C743    1.466   .     S
C741   O798    1.283   .     A
C742   C751    1.488   .     S
C742   C763    1.429   .     A
C742   C754    1.424   .     A
C743   C610    1.347   1_655 S
C743   C627    1.499   1_655 S
C745   C748    1.463   .     S
C745   C947    1.344   .     S
C745   C957    1.500   .     S
C746   C747    1.437   .     S
C746   C1147   1.344   1_545 S
C746   H1175   1.086   1_545 S
C747   O799    1.275   .     A
C747   O793    1.276   .     A
C748   O794    1.276   .     A
C748   O800    1.265   .     A
C749   C754    1.389   .     A
C749   H776    1.084   .     S
C749   C157    1.383   1_556 S
C750   C753    1.461   .     S
C750   O783    1.267   .     A
C750   O785    1.275   .     A
C751   O784    1.283   .     A
C751   O786    1.298   .     A
C754   C758    1.479   .     S
C755   O787    1.221   .     D
C755   H777    1.084   .     S
C756   O788    1.221   .     D
C756   C1147   1.500   1_545 S
C756   H1180   1.085   1_545 S
C757   H769    1.085   .     S
C757   C149    1.486   1_556 S
C757   O186    1.221   1_556 S
C758   O790    1.221   .     D
C758   H770    1.085   .     S
C759   C767    1.492   .     S
C759   O791    1.221   .     D
C759   H771    1.084   .     S
C760   H775    1.079   .     S
C761   O792    1.221   .     D
C761   H772    1.085   .     S
C762   C763    1.419   .     A
C762   C157    1.413   1_556 S
C762   C161    1.418   1_556 S
C763   C767    1.423   .     A
C765   C766    1.422   .     A
C765   C161    1.421   1_556 S
C765   C149    1.432   1_556 S
C766   C767    1.414   .     A
C766   N781    1.437   .     S
H768   C610    1.086   1_655 S
H773   C947    1.086   .     S
H778   C957    1.085   .     S
H779   N781    1.046   .     S
H780   N781    1.046   .     S
O782   Zn804   1.937   .     S
O782   Zn802   1.935   .     S
O782   Zn803   1.923   .     S
O782   Zn801   1.964   .     S
O783   Zn802   1.919   .     S
O784   Zn804   1.931   .     S
O785   Zn803   1.925   .     S
O786   Zn801   1.917   .     S
O793   Zn801   1.927   .     S
O794   Zn804   1.929   .     S
O795   Zn802   1.932   .     S
O796   Zn803   1.942   .     S
O797   Zn804   1.931   .     S
O798   Zn801   1.922   .     S
O799   Zn802   1.942   .     S
O800   Zn803   1.936   .     S
C805   O862    1.268   .     A
C805   O864    1.268   .     A
C805   C811    1.439   .     S
C806   C820    1.384   .     A
C806   C831    1.404   .     A
C806   H841    1.080   .     S
C807   C819    1.422   .     A
C807   C822    1.491   .     S
C807   C820    1.407   .     A
C808   O863    1.277   .     A
C808   C810    1.466   .     S
C808   O865    1.283   .     A
C809   C818    1.488   .     S
C809   C830    1.429   .     A
C809   C821    1.424   .     A
C810   C878    1.347   .     S
C810   C895    1.499   .     S
C811   C944    1.347   1_455 S
C811   H969    1.086   1_455 S
C812   C815    1.463   .     S
C812   C1014   1.344   .     S
C812   C1024   1.500   .     S
C813   C814    1.437   .     S
C814   O866    1.275   .     A
C814   O860    1.276   .     A
C815   O861    1.276   .     A
C815   O867    1.265   .     A
C816   C821    1.389   .     A
C816   H843    1.084   .     S
C816   C224    1.383   1_556 S
C817   C820    1.461   .     S
C817   O850    1.267   .     A
C817   O852    1.275   .     A
C818   O851    1.283   .     A
C818   O853    1.298   .     A
C821   C825    1.479   .     S
C822   O854    1.221   .     D
C822   H844    1.084   .     S
C823   O855    1.221   .     D
C824   H836    1.085   .     S
C824   C216    1.486   1_556 S
C824   O253    1.221   1_556 S
C825   O857    1.221   .     D
C825   H837    1.085   .     S
C826   C834    1.492   .     S
C826   O858    1.221   .     D
C826   H838    1.084   .     S
C827   H842    1.079   .     S
C828   O859    1.221   .     D
C828   H839    1.085   .     S
C828   C944    1.499   1_455 S
C829   C830    1.419   .     A
C829   C224    1.413   1_556 S
C829   C228    1.418   1_556 S
C830   C834    1.423   .     A
C832   C833    1.422   .     A
C832   C228    1.421   1_556 S
C832   C216    1.432   1_556 S
C833   C834    1.414   .     A
C833   N848    1.437   .     S
H835   C878    1.086   .     S
H840   C1014   1.086   .     S
H845   C1024   1.085   .     S
H846   N848    1.046   .     S
H847   N848    1.046   .     S
O849   Zn871   1.937   .     S
O849   Zn869   1.935   .     S
O849   Zn870   1.923   .     S
O849   Zn868   1.964   .     S
O850   Zn869   1.919   .     S
O851   Zn871   1.931   .     S
O852   Zn870   1.925   .     S
O853   Zn868   1.917   .     S
O860   Zn868   1.927   .     S
O861   Zn871   1.929   .     S
O862   Zn869   1.932   .     S
O863   Zn870   1.942   .     S
O864   Zn871   1.931   .     S
O865   Zn868   1.922   .     S
O866   Zn869   1.942   .     S
O867   Zn870   1.936   .     S
C872   O929    1.268   .     A
C872   O931    1.268   .     A
C872   C878    1.439   .     S
C873   C887    1.384   .     A
C873   C898    1.404   .     A
C873   H908    1.080   .     S
C874   C886    1.422   .     A
C874   C889    1.491   .     S
C874   C887    1.407   .     A
C875   O930    1.277   .     A
C875   C877    1.466   .     S
C875   O932    1.283   .     A
C876   C885    1.488   .     S
C876   C897    1.429   .     A
C876   C888    1.424   .     A
C877   C945    1.347   .     S
C877   C962    1.499   .     S
C879   C882    1.463   .     S
C879   C1081   1.344   .     S
C879   C1091   1.500   .     S
C880   C881    1.437   .     S
C881   O933    1.275   .     A
C881   O927    1.276   .     A
C882   O928    1.276   .     A
C882   O934    1.265   .     A
C883   C888    1.389   .     A
C883   H910    1.084   .     S
C883   C291    1.383   1_556 S
C884   C887    1.461   .     S
C884   O917    1.267   .     A
C884   O919    1.275   .     A
C885   O918    1.283   .     A
C885   O920    1.298   .     A
C888   C892    1.479   .     S
C889   O921    1.221   .     D
C889   H911    1.084   .     S
C890   O922    1.221   .     D
C891   H903    1.085   .     S
C891   C283    1.486   1_556 S
C891   O320    1.221   1_556 S
C892   O924    1.221   .     D
C892   H904    1.085   .     S
C893   C901    1.492   .     S
C893   O925    1.221   .     D
C893   H905    1.084   .     S
C894   H909    1.079   .     S
C895   O926    1.221   .     D
C895   H906    1.085   .     S
C896   C897    1.419   .     A
C896   C291    1.413   1_556 S
C896   C295    1.418   1_556 S
C897   C901    1.423   .     A
C899   C900    1.422   .     A
C899   C295    1.421   1_556 S
C899   C283    1.432   1_556 S
C900   C901    1.414   .     A
C900   N915    1.437   .     S
H902   C945    1.086   .     S
H907   C1081   1.086   .     S
H912   C1091   1.085   .     S
H913   N915    1.046   .     S
H914   N915    1.046   .     S
O916   Zn938   1.937   .     S
O916   Zn936   1.935   .     S
O916   Zn937   1.923   .     S
O916   Zn935   1.964   .     S
O917   Zn936   1.919   .     S
O918   Zn938   1.931   .     S
O919   Zn937   1.925   .     S
O920   Zn935   1.917   .     S
O927   Zn935   1.927   .     S
O928   Zn938   1.929   .     S
O929   Zn936   1.932   .     S
O930   Zn937   1.942   .     S
O931   Zn938   1.931   .     S
O932   Zn935   1.922   .     S
O933   Zn936   1.942   .     S
O934   Zn937   1.936   .     S
C939   O996    1.268   .     A
C939   O998    1.268   .     A
C939   C945    1.439   .     S
C940   C954    1.384   .     A
C940   C965    1.404   .     A
C940   H975    1.080   .     S
C941   C953    1.422   .     A
C941   C956    1.491   .     S
C941   C954    1.407   .     A
C942   O997    1.277   .     A
C942   C944    1.466   .     S
C942   O999    1.283   .     A
C943   C952    1.488   .     S
C943   C964    1.429   .     A
C943   C955    1.424   .     A
C944   C811    1.347   1_655 S
C944   C828    1.499   1_655 S
C946   C949    1.463   .     S
C946   C1148   1.344   .     S
C946   C1158   1.500   .     S
C947   C948    1.437   .     S
C948   O1000   1.275   .     A
C948   O994    1.276   .     A
C949   O995    1.276   .     A
C949   O1001   1.265   .     A
C950   C955    1.389   .     A
C950   H977    1.084   .     S
C950   C358    1.383   1_556 S
C951   C954    1.461   .     S
C951   O984    1.267   .     A
C951   O986    1.275   .     A
C952   O985    1.283   .     A
C952   O987    1.298   .     A
C955   C959    1.479   .     S
C956   O988    1.221   .     D
C956   H978    1.084   .     S
C957   O989    1.221   .     D
C958   H970    1.085   .     S
C958   C350    1.486   1_556 S
C958   O387    1.221   1_556 S
C959   O991    1.221   .     D
C959   H971    1.085   .     S
C960   C968    1.492   .     S
C960   O992    1.221   .     D
C960   H972    1.084   .     S
C961   H976    1.079   .     S
C962   O993    1.221   .     D
C962   H973    1.085   .     S
C963   C964    1.419   .     A
C963   C358    1.413   1_556 S
C963   C362    1.418   1_556 S
C964   C968    1.423   .     A
C966   C967    1.422   .     A
C966   C362    1.421   1_556 S
C966   C350    1.432   1_556 S
C967   C968    1.414   .     A
C967   N982    1.437   .     S
H969   C811    1.086   1_655 S
H974   C1148   1.086   .     S
H979   C1158   1.085   .     S
H980   N982    1.046   .     S
H981   N982    1.046   .     S
O983   Zn1005  1.937   .     S
O983   Zn1003  1.935   .     S
O983   Zn1004  1.923   .     S
O983   Zn1002  1.964   .     S
O984   Zn1003  1.919   .     S
O985   Zn1005  1.931   .     S
O986   Zn1004  1.925   .     S
O987   Zn1002  1.917   .     S
O994   Zn1002  1.927   .     S
O995   Zn1005  1.929   .     S
O996   Zn1003  1.932   .     S
O997   Zn1004  1.942   .     S
O998   Zn1005  1.931   .     S
O999   Zn1002  1.922   .     S
O1000  Zn1003  1.942   .     S
O1001  Zn1004  1.936   .     S
C1006  O1063   1.268   .     A
C1006  O1065   1.268   .     A
C1006  C1012   1.439   .     S
C1007  C1021   1.384   .     A
C1007  C1032   1.404   .     A
C1007  H1042   1.080   .     S
C1008  C1020   1.422   .     A
C1008  C1023   1.491   .     S
C1008  C1021   1.407   .     A
C1009  O1064   1.277   .     A
C1009  C1011   1.466   .     S
C1009  O1066   1.283   .     A
C1010  C1019   1.488   .     S
C1010  C1031   1.429   .     A
C1010  C1022   1.424   .     A
C1011  C1079   1.347   .     S
C1011  C1096   1.499   .     S
C1012  C1145   1.347   1_455 S
C1012  H1170   1.086   1_455 S
C1013  C1016   1.463   .     S
C1013  C612    1.344   1_565 S
C1013  C622    1.500   1_565 S
C1014  C1015   1.437   .     S
C1015  O1067   1.275   .     A
C1015  O1061   1.276   .     A
C1016  O1062   1.276   .     A
C1016  O1068   1.265   .     A
C1017  C1022   1.389   .     A
C1017  H1044   1.084   .     S
C1017  C425    1.383   1_556 S
C1018  C1021   1.461   .     S
C1018  O1051   1.267   .     A
C1018  O1053   1.275   .     A
C1019  O1052   1.283   .     A
C1019  O1054   1.298   .     A
C1022  C1026   1.479   .     S
C1023  O1055   1.221   .     D
C1023  H1045   1.084   .     S
C1024  O1056   1.221   .     D
C1025  H1037   1.085   .     S
C1025  C417    1.486   1_556 S
C1025  O454    1.221   1_556 S
C1026  O1058   1.221   .     D
C1026  H1038   1.085   .     S
C1027  C1035   1.492   .     S
C1027  O1059   1.221   .     D
C1027  H1039   1.084   .     S
C1028  H1043   1.079   .     S
C1029  O1060   1.221   .     D
C1029  H1040   1.085   .     S
C1029  C1145   1.499   1_455 S
C1030  C1031   1.419   .     A
C1030  C425    1.413   1_556 S
C1030  C429    1.418   1_556 S
C1031  C1035   1.423   .     A
C1033  C1034   1.422   .     A
C1033  C429    1.421   1_556 S
C1033  C417    1.432   1_556 S
C1034  C1035   1.414   .     A
C1034  N1049   1.437   .     S
H1036  C1079   1.086   .     S
H1041  C612    1.086   1_565 S
H1046  C622    1.085   1_565 S
H1047  N1049   1.046   .     S
H1048  N1049   1.046   .     S
O1050  Zn1072  1.937   .     S
O1050  Zn1070  1.935   .     S
O1050  Zn1071  1.923   .     S
O1050  Zn1069  1.964   .     S
O1051  Zn1070  1.919   .     S
O1052  Zn1072  1.931   .     S
O1053  Zn1071  1.925   .     S
O1054  Zn1069  1.917   .     S
O1061  Zn1069  1.927   .     S
O1062  Zn1072  1.929   .     S
O1063  Zn1070  1.932   .     S
O1064  Zn1071  1.942   .     S
O1065  Zn1072  1.931   .     S
O1066  Zn1069  1.922   .     S
O1067  Zn1070  1.942   .     S
O1068  Zn1071  1.936   .     S
C1073  O1130   1.268   .     A
C1073  O1132   1.268   .     A
C1073  C1079   1.439   .     S
C1074  C1088   1.384   .     A
C1074  C1099   1.404   .     A
C1074  H1109   1.080   .     S
C1075  C1087   1.422   .     A
C1075  C1090   1.491   .     S
C1075  C1088   1.407   .     A
C1076  O1131   1.277   .     A
C1076  C1078   1.466   .     S
C1076  O1133   1.283   .     A
C1077  C1086   1.488   .     S
C1077  C1098   1.429   .     A
C1077  C1089   1.424   .     A
C1078  C1146   1.347   .     S
C1078  C1163   1.499   .     S
C1080  C1083   1.463   .     S
C1080  C679    1.344   1_565 S
C1080  C689    1.500   1_565 S
C1081  C1082   1.437   .     S
C1082  O1134   1.275   .     A
C1082  O1128   1.276   .     A
C1083  O1129   1.276   .     A
C1083  O1135   1.265   .     A
C1084  C1089   1.389   .     A
C1084  H1111   1.084   .     S
C1084  C492    1.383   1_556 S
C1085  C1088   1.461   .     S
C1085  O1118   1.267   .     A
C1085  O1120   1.275   .     A
C1086  O1119   1.283   .     A
C1086  O1121   1.298   .     A
C1089  C1093   1.479   .     S
C1090  O1122   1.221   .     D
C1090  H1112   1.084   .     S
C1091  O1123   1.221   .     D
C1092  H1104   1.085   .     S
C1092  C484    1.486   1_556 S
C1092  O521    1.221   1_556 S
C1093  O1125   1.221   .     D
C1093  H1105   1.085   .     S
C1094  C1102   1.492   .     S
C1094  O1126   1.221   .     D
C1094  H1106   1.084   .     S
C1095  H1110   1.079   .     S
C1096  O1127   1.221   .     D
C1096  H1107   1.085   .     S
C1097  C1098   1.419   .     A
C1097  C492    1.413   1_556 S
C1097  C496    1.418   1_556 S
C1098  C1102   1.423   .     A
C1100  C1101   1.422   .     A
C1100  C496    1.421   1_556 S
C1100  C484    1.432   1_556 S
C1101  C1102   1.414   .     A
C1101  N1116   1.437   .     S
H1103  C1146   1.086   .     S
H1108  C679    1.086   1_565 S
H1113  C689    1.085   1_565 S
H1114  N1116   1.046   .     S
H1115  N1116   1.046   .     S
O1117  Zn1139  1.937   .     S
O1117  Zn1137  1.935   .     S
O1117  Zn1138  1.923   .     S
O1117  Zn1136  1.964   .     S
O1118  Zn1137  1.919   .     S
O1119  Zn1139  1.931   .     S
O1120  Zn1138  1.925   .     S
O1121  Zn1136  1.917   .     S
O1128  Zn1136  1.927   .     S
O1129  Zn1139  1.929   .     S
O1130  Zn1137  1.932   .     S
O1131  Zn1138  1.942   .     S
O1132  Zn1139  1.931   .     S
O1133  Zn1136  1.922   .     S
O1134  Zn1137  1.942   .     S
O1135  Zn1138  1.936   .     S
C1140  O1197   1.268   .     A
C1140  O1199   1.268   .     A
C1140  C1146   1.439   .     S
C1141  C1155   1.384   .     A
C1141  C1166   1.404   .     A
C1141  H1176   1.080   .     S
C1142  C1154   1.422   .     A
C1142  C1157   1.491   .     S
C1142  C1155   1.407   .     A
C1143  O1198   1.277   .     A
C1143  C1145   1.466   .     S
C1143  O1200   1.283   .     A
C1144  C1153   1.488   .     S
C1144  C1165   1.429   .     A
C1144  C1156   1.424   .     A
C1145  C1012   1.347   1_655 S
C1145  C1029   1.499   1_655 S
C1147  C1150   1.463   .     S
C1147  C746    1.344   1_565 S
C1147  C756    1.500   1_565 S
C1148  C1149   1.437   .     S
C1149  O1201   1.275   .     A
C1149  O1195   1.276   .     A
C1150  O1196   1.276   .     A
C1150  O1202   1.265   .     A
C1151  C1156   1.389   .     A
C1151  H1178   1.084   .     S
C1151  C559    1.383   1_556 S
C1152  C1155   1.461   .     S
C1152  O1185   1.267   .     A
C1152  O1187   1.275   .     A
C1153  O1186   1.283   .     A
C1153  O1188   1.298   .     A
C1156  C1160   1.479   .     S
C1157  O1189   1.221   .     D
C1157  H1179   1.084   .     S
C1158  O1190   1.221   .     D
C1159  H1171   1.085   .     S
C1159  C551    1.486   1_556 S
C1159  O588    1.221   1_556 S
C1160  O1192   1.221   .     D
C1160  H1172   1.085   .     S
C1161  C1169   1.492   .     S
C1161  O1193   1.221   .     D
C1161  H1173   1.084   .     S
C1162  H1177   1.079   .     S
C1163  O1194   1.221   .     D
C1163  H1174   1.085   .     S
C1164  C1165   1.419   .     A
C1164  C559    1.413   1_556 S
C1164  C563    1.418   1_556 S
C1165  C1169   1.423   .     A
C1167  C1168   1.422   .     A
C1167  C563    1.421   1_556 S
C1167  C551    1.432   1_556 S
C1168  C1169   1.414   .     A
C1168  N1183   1.437   .     S
H1170  C1012   1.086   1_655 S
H1175  C746    1.086   1_565 S
H1180  C756    1.085   1_565 S
H1181  N1183   1.046   .     S
H1182  N1183   1.046   .     S
O1184  Zn1206  1.937   .     S
O1184  Zn1204  1.935   .     S
O1184  Zn1205  1.923   .     S
O1184  Zn1203  1.964   .     S
O1185  Zn1204  1.919   .     S
O1186  Zn1206  1.931   .     S
O1187  Zn1205  1.925   .     S
O1188  Zn1203  1.917   .     S
O1195  Zn1203  1.927   .     S
O1196  Zn1206  1.929   .     S
O1197  Zn1204  1.932   .     S
O1198  Zn1205  1.942   .     S
O1199  Zn1206  1.931   .     S
O1200  Zn1203  1.922   .     S
O1201  Zn1204  1.942   .     S
O1202  Zn1205  1.936   .     S
