data_str_m3_o1_o17_pcu_sym.36
_audit_creation_date              2020-01-03
_audit_creation_method            'Materials Studio'
_symmetry_space_group_name_H-M    'P1'
_symmetry_Int_Tables_number       1
_symmetry_cell_setting            triclinic
loop_
_symmetry_equiv_pos_as_xyz
  x,y,z
_cell_length_a                    32.0527
_cell_length_b                    30.4554
_cell_length_c                    29.5180
_cell_angle_alpha                 89.9495
_cell_angle_beta                  95.1680
_cell_angle_gamma                 89.2377
loop_
_atom_site_label
_atom_site_type_symbol
_atom_site_fract_x
_atom_site_fract_y
_atom_site_fract_z
_atom_site_U_iso_or_equiv
_atom_site_adp_type
_atom_site_occupancy
C1     C     0.08677   0.16717   0.25199   0.00000  Uiso   1.00
C2     C     0.04145   0.16857   0.25144   0.00000  Uiso   1.00
C3     C     0.18628   0.02336   0.28633   0.00000  Uiso   1.00
C4     C     0.14708   0.30957   0.21404   0.00000  Uiso   1.00
C5     C     0.14721   0.02395   0.21362   0.00000  Uiso   1.00
C6     C     0.18634   0.30902   0.28582   0.00000  Uiso   1.00
C7     C     0.16623   0.16656   0.16400   0.00000  Uiso   1.00
C8     C     0.16706   0.16658   0.33604   0.00000  Uiso   1.00
C9     C     0.20283   0.15348   0.40984   0.00000  Uiso   1.00
C10    C     0.12918   0.17420   0.09022   0.00000  Uiso   1.00
C11    C     0.16671   0.16614   0.38365   0.00000  Uiso   1.00
C12    C     0.24543   0.16649   0.24396   0.00000  Uiso   1.00
C13    C     0.16632   0.16585   0.11644   0.00000  Uiso   1.00
C14    C     0.13012   0.17816   0.40232   0.00000  Uiso   1.00
C15    C     0.20347   0.15600   0.09788   0.00000  Uiso   1.00
C16    C     0.12872   0.17704   0.44923   0.00000  Uiso   1.00
C17    C     0.20440   0.15537   0.05089   0.00000  Uiso   1.00
C18    C     0.16607   0.16520   0.47650   0.00000  Uiso   1.00
C19    C     0.16651   0.16496   0.02357   0.00000  Uiso   1.00
C20    C     0.20321   0.15402   0.45655   0.00000  Uiso   1.00
C21    C     0.12903   0.17467   0.04350   0.00000  Uiso   1.00
C22    C     0.09152   0.18778   0.46963   0.00000  Uiso   1.00
C23    C     0.09216   0.18566   0.01686   0.00000  Uiso   1.00
C24    C     0.24185   0.14570   0.03054   0.00000  Uiso   1.00
C25    C     0.05130   0.20295   0.44269   0.00000  Uiso   1.00
C26    C     0.02715   0.16436   0.42012   0.00000  Uiso   1.00
C27    C     0.32253   0.18077   0.38948   0.00000  Uiso   1.00
C28    C     0.28364   0.13731   0.05789   0.00000  Uiso   1.00
C29    C     0.30276   0.18043   0.07642   0.00000  Uiso   1.00
C30    C     0.00714   0.17177   0.11073   0.00000  Uiso   1.00
C31    C     0.03861   0.09061   0.27867   0.00000  Uiso   1.00
C32    C     0.28672   0.24562   0.21156   0.00000  Uiso   1.00
C33    C     0.29464   0.08596   0.22085   0.00000  Uiso   1.00
C34    C     0.24041   0.14434   0.48322   0.00000  Uiso   1.00
C35    C     0.03765   0.25144   0.24390   0.00000  Uiso   1.00
C36    C     0.20707   0.04623   0.32922   0.00000  Uiso   1.00
C37    C     0.24848   0.06942   0.32307   0.00000  Uiso   1.00
C38    C     0.28373   0.05754   0.35976   0.00000  Uiso   1.00
C39    C     0.12266   0.28553   0.17503   0.00000  Uiso   1.00
C40    C     0.14543   0.28433   0.13041   0.00000  Uiso   1.00
C41    C     0.11415   0.28330   0.08807   0.00000  Uiso   1.00
C42    C     0.12676   0.04754   0.17075   0.00000  Uiso   1.00
C43    C     0.08500   0.07148   0.17633   0.00000  Uiso   1.00
C44    C     0.04998   0.05957   0.13981   0.00000  Uiso   1.00
C45    C     0.02008   0.12866   0.25445   0.00000  Uiso   1.00
C46    C     0.20989   0.28415   0.32505   0.00000  Uiso   1.00
C47    C     0.18517   0.28274   0.36821   0.00000  Uiso   1.00
C48    C     0.21385   0.26939   0.41016   0.00000  Uiso   1.00
C49    C     0.30923   0.20655   0.22947   0.00000  Uiso   1.00
C50    C     0.31181   0.12706   0.23836   0.00000  Uiso   1.00
C51    C     0.01883   0.20822   0.24028   0.00000  Uiso   1.00
C52    C     0.28881   0.16641   0.23405   0.00000  Uiso   1.00
H53    H     0.23088   0.14475   0.39375   0.00000  Uiso   1.00
H54    H     0.04754   0.14447   0.39934   0.00000  Uiso   1.00
H55    H     0.01630   0.14267   0.44689   0.00000  Uiso   1.00
H56    H     0.03047   0.22002   0.46543   0.00000  Uiso   1.00
H57    H     0.05840   0.22788   0.41707   0.00000  Uiso   1.00
H58    H     0.33039   0.15528   0.14139   0.00000  Uiso   1.00
H59    H     0.03060   0.15069   0.09539   0.00000  Uiso   1.00
H60    H     0.02192   0.20336   0.12130   0.00000  Uiso   1.00
H61    H     0.31286   0.20006   0.04766   0.00000  Uiso   1.00
H62    H     0.27938   0.20034   0.09332   0.00000  Uiso   1.00
H63    H     0.27981   0.11352   0.08572   0.00000  Uiso   1.00
H64    H     0.10081   0.18109   0.10649   0.00000  Uiso   1.00
H65    H     0.30624   0.12148   0.03628   0.00000  Uiso   1.00
H66    H     0.27468   0.06705   0.39390   0.00000  Uiso   1.00
H67    H     0.29083   0.02177   0.35934   0.00000  Uiso   1.00
H68    H     0.31257   0.07533   0.35314   0.00000  Uiso   1.00
H69    H     0.25928   0.05996   0.29005   0.00000  Uiso   1.00
H70    H     0.24374   0.10534   0.32507   0.00000  Uiso   1.00
H71    H     0.18413   0.06545   0.34634   0.00000  Uiso   1.00
H72    H     0.21495   0.02426   0.35787   0.00000  Uiso   1.00
H73    H     0.09039   0.25766   0.09148   0.00000  Uiso   1.00
H74    H     0.09756   0.31534   0.08283   0.00000  Uiso   1.00
H75    H     0.10312   0.18765   0.37959   0.00000  Uiso   1.00
H76    H     0.13095   0.27620   0.05755   0.00000  Uiso   1.00
H77    H     0.16653   0.31267   0.12787   0.00000  Uiso   1.00
H78    H     0.16692   0.25612   0.12881   0.00000  Uiso   1.00
H79    H     0.11315   0.25272   0.18504   0.00000  Uiso   1.00
H80    H     0.09141   0.30158   0.16870   0.00000  Uiso   1.00
H81    H     0.05907   0.06818   0.10549   0.00000  Uiso   1.00
H82    H     0.04314   0.02399   0.14106   0.00000  Uiso   1.00
H83    H     0.02096   0.07806   0.14587   0.00000  Uiso   1.00
H84    H     0.07418   0.06267   0.20952   0.00000  Uiso   1.00
H85    H     0.08936   0.10736   0.17356   0.00000  Uiso   1.00
H86    H     0.23114   0.14924   0.12073   0.00000  Uiso   1.00
H87    H     0.14977   0.06611   0.15375   0.00000  Uiso   1.00
H88    H     0.11960   0.02590   0.14214   0.00000  Uiso   1.00
H89    H     0.23088   0.23844   0.40368   0.00000  Uiso   1.00
H90    H     0.23705   0.29551   0.41888   0.00000  Uiso   1.00
H91    H     0.19502   0.26441   0.43950   0.00000  Uiso   1.00
H92    H     0.16967   0.31441   0.37523   0.00000  Uiso   1.00
H93    H     0.15820   0.26064   0.36441   0.00000  Uiso   1.00
H94    H     0.21982   0.25137   0.31473   0.00000  Uiso   1.00
H95    H     0.24111   0.29903   0.33288   0.00000  Uiso   1.00
H96    H     0.06395   0.19349   0.03307   0.00000  Uiso   1.00
H97    H     0.26866   0.13666   0.46698   0.00000  Uiso   1.00
H98    H     0.30094   0.19978   0.40965   0.00000  Uiso   1.00
H99    H     0.33267   0.20186   0.36187   0.00000  Uiso   1.00
H100   H     0.30539   0.15247   0.37371   0.00000  Uiso   1.00
N101   N     0.16667   0.28573   0.25000   0.00000  Uiso   1.00
N102   N     0.16667   0.04760   0.25000   0.00000  Uiso   1.00
N103   N     0.05324   0.06033   0.29816   0.00000  Uiso   1.00
N104   N     0.26886   0.27665   0.19725   0.00000  Uiso   1.00
N105   N     0.28114   0.05326   0.20640   0.00000  Uiso   1.00
N106   N     0.05210   0.28605   0.24719   0.00000  Uiso   1.00
O107   O     0.10559   0.20487   0.24999   0.00000  Uiso   1.00
O108   O     0.22774   0.12846   0.25000   0.00000  Uiso   1.00
O109   O     0.22774   0.20487   0.25000   0.00000  Uiso   1.00
O110   O     0.10559   0.12846   0.24999   0.00000  Uiso   1.00
O111   O     0.16666   0.20489   0.18392   0.00000  Uiso   1.00
O112   O     0.16667   0.12844   0.31607   0.00000  Uiso   1.00
O113   O     0.16667   0.20489   0.31607   0.00000  Uiso   1.00
O114   O     0.16666   0.12844   0.18392   0.00000  Uiso   1.00
Zn115  Zn    0.16667   0.21771   0.25000   0.00000  Uiso   1.00
Zn116  Zn    0.16667   0.11563   0.25000   0.00000  Uiso   1.00
C117   C     0.42010   0.16717   0.25199   0.00000  Uiso   1.00
C118   C     0.37479   0.16857   0.25144   0.00000  Uiso   1.00
C119   C     0.51961   0.02336   0.28633   0.00000  Uiso   1.00
C120   C     0.48042   0.30957   0.21404   0.00000  Uiso   1.00
C121   C     0.48054   0.02395   0.21362   0.00000  Uiso   1.00
C122   C     0.51967   0.30902   0.28582   0.00000  Uiso   1.00
C123   C     0.49957   0.16656   0.16400   0.00000  Uiso   1.00
C124   C     0.50039   0.16658   0.33604   0.00000  Uiso   1.00
C125   C     0.53617   0.15348   0.40984   0.00000  Uiso   1.00
C126   C     0.46251   0.17420   0.09022   0.00000  Uiso   1.00
C127   C     0.50004   0.16614   0.38365   0.00000  Uiso   1.00
C128   C     0.57876   0.16649   0.24396   0.00000  Uiso   1.00
C129   C     0.49966   0.16585   0.11644   0.00000  Uiso   1.00
C130   C     0.46345   0.17816   0.40232   0.00000  Uiso   1.00
C131   C     0.53680   0.15600   0.09788   0.00000  Uiso   1.00
C132   C     0.46205   0.17704   0.44923   0.00000  Uiso   1.00
C133   C     0.53773   0.15537   0.05089   0.00000  Uiso   1.00
C134   C     0.49940   0.16520   0.47650   0.00000  Uiso   1.00
C135   C     0.49985   0.16496   0.02357   0.00000  Uiso   1.00
C136   C     0.53654   0.15402   0.45655   0.00000  Uiso   1.00
C137   C     0.46236   0.17467   0.04350   0.00000  Uiso   1.00
C138   C     0.42486   0.18778   0.46963   0.00000  Uiso   1.00
C139   C     0.42550   0.18566   0.01686   0.00000  Uiso   1.00
C140   C     0.57519   0.14570   0.03054   0.00000  Uiso   1.00
C141   C     0.38463   0.20295   0.44269   0.00000  Uiso   1.00
C142   C     0.36048   0.16436   0.42012   0.00000  Uiso   1.00
C143   C     0.65587   0.18077   0.38948   0.00000  Uiso   1.00
C144   C     0.61697   0.13731   0.05789   0.00000  Uiso   1.00
C145   C     0.63610   0.18043   0.07642   0.00000  Uiso   1.00
C146   C     0.34047   0.17177   0.11073   0.00000  Uiso   1.00
C147   C     0.37194   0.09061   0.27867   0.00000  Uiso   1.00
C148   C     0.62005   0.24562   0.21156   0.00000  Uiso   1.00
C149   C     0.62797   0.08596   0.22085   0.00000  Uiso   1.00
C150   C     0.57375   0.14434   0.48322   0.00000  Uiso   1.00
C151   C     0.37099   0.25144   0.24390   0.00000  Uiso   1.00
C152   C     0.54040   0.04623   0.32922   0.00000  Uiso   1.00
C153   C     0.58182   0.06942   0.32307   0.00000  Uiso   1.00
C154   C     0.61707   0.05754   0.35976   0.00000  Uiso   1.00
C155   C     0.45599   0.28553   0.17503   0.00000  Uiso   1.00
C156   C     0.47876   0.28433   0.13041   0.00000  Uiso   1.00
C157   C     0.44748   0.28330   0.08807   0.00000  Uiso   1.00
C158   C     0.46009   0.04754   0.17075   0.00000  Uiso   1.00
C159   C     0.41834   0.07148   0.17633   0.00000  Uiso   1.00
C160   C     0.38332   0.05957   0.13981   0.00000  Uiso   1.00
C161   C     0.35341   0.12866   0.25445   0.00000  Uiso   1.00
C162   C     0.54322   0.28415   0.32505   0.00000  Uiso   1.00
C163   C     0.51850   0.28274   0.36821   0.00000  Uiso   1.00
C164   C     0.54718   0.26939   0.41016   0.00000  Uiso   1.00
C165   C     0.64256   0.20655   0.22947   0.00000  Uiso   1.00
C166   C     0.64514   0.12706   0.23836   0.00000  Uiso   1.00
C167   C     0.35217   0.20822   0.24028   0.00000  Uiso   1.00
C168   C     0.62214   0.16641   0.23405   0.00000  Uiso   1.00
H169   H     0.56421   0.14475   0.39375   0.00000  Uiso   1.00
H170   H     0.38088   0.14447   0.39934   0.00000  Uiso   1.00
H171   H     0.34963   0.14267   0.44689   0.00000  Uiso   1.00
H172   H     0.36381   0.22002   0.46543   0.00000  Uiso   1.00
H173   H     0.39174   0.22788   0.41707   0.00000  Uiso   1.00
H174   H     0.66372   0.15528   0.14139   0.00000  Uiso   1.00
H175   H     0.36393   0.15069   0.09539   0.00000  Uiso   1.00
H176   H     0.35526   0.20336   0.12130   0.00000  Uiso   1.00
H177   H     0.64619   0.20006   0.04766   0.00000  Uiso   1.00
H178   H     0.61271   0.20034   0.09332   0.00000  Uiso   1.00
H179   H     0.61315   0.11352   0.08572   0.00000  Uiso   1.00
H180   H     0.43414   0.18109   0.10649   0.00000  Uiso   1.00
H181   H     0.63957   0.12148   0.03628   0.00000  Uiso   1.00
H182   H     0.60802   0.06705   0.39390   0.00000  Uiso   1.00
H183   H     0.62417   0.02177   0.35934   0.00000  Uiso   1.00
H184   H     0.64590   0.07533   0.35314   0.00000  Uiso   1.00
H185   H     0.59261   0.05996   0.29005   0.00000  Uiso   1.00
H186   H     0.57708   0.10534   0.32507   0.00000  Uiso   1.00
H187   H     0.51746   0.06545   0.34634   0.00000  Uiso   1.00
H188   H     0.54829   0.02426   0.35787   0.00000  Uiso   1.00
H189   H     0.42372   0.25766   0.09148   0.00000  Uiso   1.00
H190   H     0.43090   0.31534   0.08283   0.00000  Uiso   1.00
H191   H     0.43646   0.18765   0.37959   0.00000  Uiso   1.00
H192   H     0.46429   0.27620   0.05755   0.00000  Uiso   1.00
H193   H     0.49986   0.31267   0.12787   0.00000  Uiso   1.00
H194   H     0.50025   0.25612   0.12881   0.00000  Uiso   1.00
H195   H     0.44648   0.25272   0.18504   0.00000  Uiso   1.00
H196   H     0.42474   0.30158   0.16870   0.00000  Uiso   1.00
H197   H     0.39240   0.06818   0.10549   0.00000  Uiso   1.00
H198   H     0.37647   0.02399   0.14106   0.00000  Uiso   1.00
H199   H     0.35430   0.07806   0.14587   0.00000  Uiso   1.00
H200   H     0.40751   0.06267   0.20952   0.00000  Uiso   1.00
H201   H     0.42269   0.10736   0.17356   0.00000  Uiso   1.00
H202   H     0.56447   0.14924   0.12073   0.00000  Uiso   1.00
H203   H     0.48310   0.06611   0.15375   0.00000  Uiso   1.00
H204   H     0.45294   0.02590   0.14214   0.00000  Uiso   1.00
H205   H     0.56422   0.23844   0.40368   0.00000  Uiso   1.00
H206   H     0.57038   0.29551   0.41888   0.00000  Uiso   1.00
H207   H     0.52836   0.26441   0.43950   0.00000  Uiso   1.00
H208   H     0.50300   0.31441   0.37523   0.00000  Uiso   1.00
H209   H     0.49153   0.26064   0.36441   0.00000  Uiso   1.00
H210   H     0.55316   0.25137   0.31473   0.00000  Uiso   1.00
H211   H     0.57444   0.29903   0.33288   0.00000  Uiso   1.00
H212   H     0.39728   0.19349   0.03307   0.00000  Uiso   1.00
H213   H     0.60200   0.13666   0.46698   0.00000  Uiso   1.00
H214   H     0.63428   0.19978   0.40965   0.00000  Uiso   1.00
H215   H     0.66600   0.20186   0.36187   0.00000  Uiso   1.00
H216   H     0.63872   0.15247   0.37371   0.00000  Uiso   1.00
N217   N     0.50000   0.28573   0.25000   0.00000  Uiso   1.00
N218   N     0.50000   0.04760   0.25000   0.00000  Uiso   1.00
N219   N     0.38658   0.06033   0.29816   0.00000  Uiso   1.00
N220   N     0.60219   0.27665   0.19725   0.00000  Uiso   1.00
N221   N     0.61448   0.05326   0.20640   0.00000  Uiso   1.00
N222   N     0.38543   0.28605   0.24719   0.00000  Uiso   1.00
O223   O     0.43892   0.20487   0.24999   0.00000  Uiso   1.00
O224   O     0.56108   0.12846   0.25000   0.00000  Uiso   1.00
O225   O     0.56108   0.20487   0.25000   0.00000  Uiso   1.00
O226   O     0.43892   0.12846   0.24999   0.00000  Uiso   1.00
O227   O     0.49999   0.20489   0.18392   0.00000  Uiso   1.00
O228   O     0.50001   0.12844   0.31607   0.00000  Uiso   1.00
O229   O     0.50001   0.20489   0.31607   0.00000  Uiso   1.00
O230   O     0.49999   0.12844   0.18392   0.00000  Uiso   1.00
Zn231  Zn    0.50000   0.21771   0.25000   0.00000  Uiso   1.00
Zn232  Zn    0.50000   0.11563   0.25000   0.00000  Uiso   1.00
C233   C     0.75343   0.16717   0.25199   0.00000  Uiso   1.00
C234   C     0.70812   0.16857   0.25144   0.00000  Uiso   1.00
C235   C     0.85294   0.02336   0.28633   0.00000  Uiso   1.00
C236   C     0.81375   0.30957   0.21404   0.00000  Uiso   1.00
C237   C     0.81387   0.02395   0.21362   0.00000  Uiso   1.00
C238   C     0.85301   0.30902   0.28582   0.00000  Uiso   1.00
C239   C     0.83290   0.16656   0.16400   0.00000  Uiso   1.00
C240   C     0.83373   0.16658   0.33604   0.00000  Uiso   1.00
C241   C     0.86950   0.15348   0.40984   0.00000  Uiso   1.00
C242   C     0.79585   0.17420   0.09022   0.00000  Uiso   1.00
C243   C     0.83337   0.16614   0.38365   0.00000  Uiso   1.00
C244   C     0.91209   0.16649   0.24396   0.00000  Uiso   1.00
C245   C     0.83299   0.16585   0.11644   0.00000  Uiso   1.00
C246   C     0.79678   0.17816   0.40232   0.00000  Uiso   1.00
C247   C     0.87014   0.15600   0.09788   0.00000  Uiso   1.00
C248   C     0.79538   0.17704   0.44923   0.00000  Uiso   1.00
C249   C     0.87107   0.15537   0.05089   0.00000  Uiso   1.00
C250   C     0.83273   0.16520   0.47650   0.00000  Uiso   1.00
C251   C     0.83318   0.16496   0.02357   0.00000  Uiso   1.00
C252   C     0.86987   0.15402   0.45655   0.00000  Uiso   1.00
C253   C     0.79570   0.17467   0.04350   0.00000  Uiso   1.00
C254   C     0.75819   0.18778   0.46963   0.00000  Uiso   1.00
C255   C     0.75883   0.18566   0.01686   0.00000  Uiso   1.00
C256   C     0.90852   0.14570   0.03054   0.00000  Uiso   1.00
C257   C     0.71797   0.20295   0.44269   0.00000  Uiso   1.00
C258   C     0.69381   0.16436   0.42012   0.00000  Uiso   1.00
C259   C     0.98920   0.18077   0.38948   0.00000  Uiso   1.00
C260   C     0.95031   0.13731   0.05789   0.00000  Uiso   1.00
C261   C     0.96943   0.18043   0.07642   0.00000  Uiso   1.00
C262   C     0.67381   0.17177   0.11073   0.00000  Uiso   1.00
C263   C     0.70527   0.09061   0.27867   0.00000  Uiso   1.00
C264   C     0.95339   0.24562   0.21156   0.00000  Uiso   1.00
C265   C     0.96131   0.08596   0.22085   0.00000  Uiso   1.00
C266   C     0.90708   0.14434   0.48322   0.00000  Uiso   1.00
C267   C     0.70432   0.25144   0.24390   0.00000  Uiso   1.00
C268   C     0.87374   0.04623   0.32922   0.00000  Uiso   1.00
C269   C     0.91515   0.06942   0.32307   0.00000  Uiso   1.00
C270   C     0.95040   0.05754   0.35976   0.00000  Uiso   1.00
C271   C     0.78933   0.28553   0.17503   0.00000  Uiso   1.00
C272   C     0.81210   0.28433   0.13041   0.00000  Uiso   1.00
C273   C     0.78081   0.28330   0.08807   0.00000  Uiso   1.00
C274   C     0.79342   0.04754   0.17075   0.00000  Uiso   1.00
C275   C     0.75167   0.07148   0.17633   0.00000  Uiso   1.00
C276   C     0.71665   0.05957   0.13981   0.00000  Uiso   1.00
C277   C     0.68675   0.12866   0.25445   0.00000  Uiso   1.00
C278   C     0.87655   0.28415   0.32505   0.00000  Uiso   1.00
C279   C     0.85184   0.28274   0.36821   0.00000  Uiso   1.00
C280   C     0.88052   0.26939   0.41016   0.00000  Uiso   1.00
C281   C     0.97589   0.20655   0.22947   0.00000  Uiso   1.00
C282   C     0.97847   0.12706   0.23836   0.00000  Uiso   1.00
C283   C     0.68550   0.20822   0.24028   0.00000  Uiso   1.00
C284   C     0.95548   0.16641   0.23405   0.00000  Uiso   1.00
H285   H     0.89754   0.14475   0.39375   0.00000  Uiso   1.00
H286   H     0.71421   0.14447   0.39934   0.00000  Uiso   1.00
H287   H     0.68297   0.14267   0.44689   0.00000  Uiso   1.00
H288   H     0.69714   0.22002   0.46543   0.00000  Uiso   1.00
H289   H     0.72507   0.22788   0.41707   0.00000  Uiso   1.00
H290   H     0.99705   0.15528   0.14139   0.00000  Uiso   1.00
H291   H     0.69727   0.15069   0.09539   0.00000  Uiso   1.00
H292   H     0.68859   0.20336   0.12130   0.00000  Uiso   1.00
H293   H     0.97952   0.20006   0.04766   0.00000  Uiso   1.00
H294   H     0.94604   0.20034   0.09332   0.00000  Uiso   1.00
H295   H     0.94648   0.11352   0.08572   0.00000  Uiso   1.00
H296   H     0.76748   0.18109   0.10649   0.00000  Uiso   1.00
H297   H     0.97290   0.12148   0.03628   0.00000  Uiso   1.00
H298   H     0.94135   0.06705   0.39390   0.00000  Uiso   1.00
H299   H     0.95750   0.02177   0.35934   0.00000  Uiso   1.00
H300   H     0.97924   0.07533   0.35314   0.00000  Uiso   1.00
H301   H     0.92595   0.05996   0.29005   0.00000  Uiso   1.00
H302   H     0.91041   0.10534   0.32507   0.00000  Uiso   1.00
H303   H     0.85080   0.06545   0.34634   0.00000  Uiso   1.00
H304   H     0.88162   0.02426   0.35787   0.00000  Uiso   1.00
H305   H     0.75705   0.25766   0.09148   0.00000  Uiso   1.00
H306   H     0.76423   0.31534   0.08283   0.00000  Uiso   1.00
H307   H     0.76979   0.18765   0.37959   0.00000  Uiso   1.00
H308   H     0.79762   0.27620   0.05755   0.00000  Uiso   1.00
H309   H     0.83319   0.31267   0.12787   0.00000  Uiso   1.00
H310   H     0.83359   0.25612   0.12881   0.00000  Uiso   1.00
H311   H     0.77982   0.25272   0.18504   0.00000  Uiso   1.00
H312   H     0.75808   0.30158   0.16870   0.00000  Uiso   1.00
H313   H     0.72574   0.06818   0.10549   0.00000  Uiso   1.00
H314   H     0.70980   0.02399   0.14106   0.00000  Uiso   1.00
H315   H     0.68763   0.07806   0.14587   0.00000  Uiso   1.00
H316   H     0.74084   0.06267   0.20952   0.00000  Uiso   1.00
H317   H     0.75602   0.10736   0.17356   0.00000  Uiso   1.00
H318   H     0.89781   0.14924   0.12073   0.00000  Uiso   1.00
H319   H     0.81644   0.06611   0.15375   0.00000  Uiso   1.00
H320   H     0.78627   0.02590   0.14214   0.00000  Uiso   1.00
H321   H     0.89755   0.23844   0.40368   0.00000  Uiso   1.00
H322   H     0.90371   0.29551   0.41888   0.00000  Uiso   1.00
H323   H     0.86169   0.26441   0.43950   0.00000  Uiso   1.00
H324   H     0.83633   0.31441   0.37523   0.00000  Uiso   1.00
H325   H     0.82487   0.26064   0.36441   0.00000  Uiso   1.00
H326   H     0.88649   0.25137   0.31473   0.00000  Uiso   1.00
H327   H     0.90778   0.29903   0.33288   0.00000  Uiso   1.00
H328   H     0.73061   0.19349   0.03307   0.00000  Uiso   1.00
H329   H     0.93533   0.13666   0.46698   0.00000  Uiso   1.00
H330   H     0.96761   0.19978   0.40965   0.00000  Uiso   1.00
H331   H     0.99934   0.20186   0.36187   0.00000  Uiso   1.00
H332   H     0.97206   0.15247   0.37371   0.00000  Uiso   1.00
N333   N     0.83333   0.28573   0.25000   0.00000  Uiso   1.00
N334   N     0.83333   0.04760   0.25000   0.00000  Uiso   1.00
N335   N     0.71991   0.06033   0.29816   0.00000  Uiso   1.00
N336   N     0.93552   0.27665   0.19725   0.00000  Uiso   1.00
N337   N     0.94781   0.05326   0.20640   0.00000  Uiso   1.00
N338   N     0.71876   0.28605   0.24719   0.00000  Uiso   1.00
O339   O     0.77226   0.20487   0.24999   0.00000  Uiso   1.00
O340   O     0.89441   0.12846   0.25000   0.00000  Uiso   1.00
O341   O     0.89441   0.20487   0.25000   0.00000  Uiso   1.00
O342   O     0.77226   0.12846   0.24999   0.00000  Uiso   1.00
O343   O     0.83333   0.20489   0.18392   0.00000  Uiso   1.00
O344   O     0.83334   0.12844   0.31607   0.00000  Uiso   1.00
O345   O     0.83334   0.20489   0.31607   0.00000  Uiso   1.00
O346   O     0.83333   0.12844   0.18392   0.00000  Uiso   1.00
Zn347  Zn    0.83333   0.21771   0.25000   0.00000  Uiso   1.00
Zn348  Zn    0.83333   0.11563   0.25000   0.00000  Uiso   1.00
C349   C     0.08677   0.50051   0.25199   0.00000  Uiso   1.00
C350   C     0.04145   0.50191   0.25144   0.00000  Uiso   1.00
C351   C     0.18628   0.35669   0.28633   0.00000  Uiso   1.00
C352   C     0.14708   0.64290   0.21404   0.00000  Uiso   1.00
C353   C     0.14721   0.35728   0.21362   0.00000  Uiso   1.00
C354   C     0.18634   0.64235   0.28582   0.00000  Uiso   1.00
C355   C     0.16623   0.49989   0.16400   0.00000  Uiso   1.00
C356   C     0.16706   0.49991   0.33604   0.00000  Uiso   1.00
C357   C     0.20283   0.48681   0.40984   0.00000  Uiso   1.00
C358   C     0.12918   0.50754   0.09022   0.00000  Uiso   1.00
C359   C     0.16671   0.49947   0.38365   0.00000  Uiso   1.00
C360   C     0.24543   0.49982   0.24396   0.00000  Uiso   1.00
C361   C     0.16632   0.49918   0.11644   0.00000  Uiso   1.00
C362   C     0.13012   0.51149   0.40232   0.00000  Uiso   1.00
C363   C     0.20347   0.48933   0.09788   0.00000  Uiso   1.00
C364   C     0.12872   0.51037   0.44923   0.00000  Uiso   1.00
C365   C     0.20440   0.48870   0.05089   0.00000  Uiso   1.00
C366   C     0.16607   0.49854   0.47650   0.00000  Uiso   1.00
C367   C     0.16651   0.49830   0.02357   0.00000  Uiso   1.00
C368   C     0.20321   0.48736   0.45655   0.00000  Uiso   1.00
C369   C     0.12903   0.50800   0.04350   0.00000  Uiso   1.00
C370   C     0.09152   0.52111   0.46963   0.00000  Uiso   1.00
C371   C     0.09216   0.51899   0.01686   0.00000  Uiso   1.00
C372   C     0.24185   0.47904   0.03054   0.00000  Uiso   1.00
C373   C     0.05130   0.53629   0.44269   0.00000  Uiso   1.00
C374   C     0.02715   0.49769   0.42012   0.00000  Uiso   1.00
C375   C     0.32253   0.51410   0.38948   0.00000  Uiso   1.00
C376   C     0.28364   0.47064   0.05789   0.00000  Uiso   1.00
C377   C     0.30276   0.51376   0.07642   0.00000  Uiso   1.00
C378   C     0.00714   0.50510   0.11073   0.00000  Uiso   1.00
C379   C     0.03861   0.42394   0.27867   0.00000  Uiso   1.00
C380   C     0.28672   0.57896   0.21156   0.00000  Uiso   1.00
C381   C     0.29464   0.41930   0.22085   0.00000  Uiso   1.00
C382   C     0.24041   0.47768   0.48322   0.00000  Uiso   1.00
C383   C     0.03765   0.58478   0.24390   0.00000  Uiso   1.00
C384   C     0.20707   0.37956   0.32922   0.00000  Uiso   1.00
C385   C     0.24848   0.40275   0.32307   0.00000  Uiso   1.00
C386   C     0.28373   0.39087   0.35976   0.00000  Uiso   1.00
C387   C     0.12266   0.61886   0.17503   0.00000  Uiso   1.00
C388   C     0.14543   0.61767   0.13041   0.00000  Uiso   1.00
C389   C     0.11415   0.61663   0.08807   0.00000  Uiso   1.00
C390   C     0.12676   0.38087   0.17075   0.00000  Uiso   1.00
C391   C     0.08500   0.40482   0.17633   0.00000  Uiso   1.00
C392   C     0.04998   0.39290   0.13981   0.00000  Uiso   1.00
C393   C     0.02008   0.46199   0.25445   0.00000  Uiso   1.00
C394   C     0.20989   0.61749   0.32505   0.00000  Uiso   1.00
C395   C     0.18517   0.61607   0.36821   0.00000  Uiso   1.00
C396   C     0.21385   0.60273   0.41016   0.00000  Uiso   1.00
C397   C     0.30923   0.53989   0.22947   0.00000  Uiso   1.00
C398   C     0.31181   0.46039   0.23836   0.00000  Uiso   1.00
C399   C     0.01883   0.54156   0.24028   0.00000  Uiso   1.00
C400   C     0.28881   0.49974   0.23405   0.00000  Uiso   1.00
H401   H     0.23088   0.47808   0.39375   0.00000  Uiso   1.00
H402   H     0.04754   0.47781   0.39934   0.00000  Uiso   1.00
H403   H     0.01630   0.47600   0.44689   0.00000  Uiso   1.00
H404   H     0.03047   0.55335   0.46543   0.00000  Uiso   1.00
H405   H     0.05840   0.56121   0.41707   0.00000  Uiso   1.00
H406   H     0.33039   0.48861   0.14139   0.00000  Uiso   1.00
H407   H     0.03060   0.48402   0.09539   0.00000  Uiso   1.00
H408   H     0.02192   0.53669   0.12130   0.00000  Uiso   1.00
H409   H     0.31286   0.53339   0.04766   0.00000  Uiso   1.00
H410   H     0.27938   0.53367   0.09332   0.00000  Uiso   1.00
H411   H     0.27981   0.44686   0.08572   0.00000  Uiso   1.00
H412   H     0.10081   0.51442   0.10649   0.00000  Uiso   1.00
H413   H     0.30624   0.45481   0.03628   0.00000  Uiso   1.00
H414   H     0.27468   0.40038   0.39390   0.00000  Uiso   1.00
H415   H     0.29083   0.35511   0.35934   0.00000  Uiso   1.00
H416   H     0.31257   0.40866   0.35314   0.00000  Uiso   1.00
H417   H     0.25928   0.39329   0.29005   0.00000  Uiso   1.00
H418   H     0.24374   0.43868   0.32507   0.00000  Uiso   1.00
H419   H     0.18413   0.39879   0.34634   0.00000  Uiso   1.00
H420   H     0.21495   0.35760   0.35787   0.00000  Uiso   1.00
H421   H     0.09039   0.59099   0.09148   0.00000  Uiso   1.00
H422   H     0.09756   0.64868   0.08283   0.00000  Uiso   1.00
H423   H     0.10312   0.52098   0.37959   0.00000  Uiso   1.00
H424   H     0.13095   0.60953   0.05755   0.00000  Uiso   1.00
H425   H     0.16653   0.64601   0.12787   0.00000  Uiso   1.00
H426   H     0.16692   0.58945   0.12881   0.00000  Uiso   1.00
H427   H     0.11315   0.58605   0.18504   0.00000  Uiso   1.00
H428   H     0.09141   0.63491   0.16870   0.00000  Uiso   1.00
H429   H     0.05907   0.40151   0.10549   0.00000  Uiso   1.00
H430   H     0.04314   0.35732   0.14106   0.00000  Uiso   1.00
H431   H     0.02096   0.41139   0.14587   0.00000  Uiso   1.00
H432   H     0.07418   0.39600   0.20952   0.00000  Uiso   1.00
H433   H     0.08936   0.44069   0.17356   0.00000  Uiso   1.00
H434   H     0.23114   0.48257   0.12073   0.00000  Uiso   1.00
H435   H     0.14977   0.39944   0.15375   0.00000  Uiso   1.00
H436   H     0.11960   0.35923   0.14214   0.00000  Uiso   1.00
H437   H     0.23088   0.57178   0.40368   0.00000  Uiso   1.00
H438   H     0.23705   0.62885   0.41888   0.00000  Uiso   1.00
H439   H     0.19502   0.59774   0.43950   0.00000  Uiso   1.00
H440   H     0.16967   0.64774   0.37523   0.00000  Uiso   1.00
H441   H     0.15820   0.59397   0.36441   0.00000  Uiso   1.00
H442   H     0.21982   0.58471   0.31473   0.00000  Uiso   1.00
H443   H     0.24111   0.63237   0.33288   0.00000  Uiso   1.00
H444   H     0.06395   0.52682   0.03307   0.00000  Uiso   1.00
H445   H     0.26866   0.46999   0.46698   0.00000  Uiso   1.00
H446   H     0.30094   0.53312   0.40965   0.00000  Uiso   1.00
H447   H     0.33267   0.53520   0.36187   0.00000  Uiso   1.00
H448   H     0.30539   0.48580   0.37371   0.00000  Uiso   1.00
N449   N     0.16667   0.61907   0.25000   0.00000  Uiso   1.00
N450   N     0.16667   0.38093   0.25000   0.00000  Uiso   1.00
N451   N     0.05324   0.39366   0.29816   0.00000  Uiso   1.00
N452   N     0.26886   0.60998   0.19725   0.00000  Uiso   1.00
N453   N     0.28114   0.38659   0.20640   0.00000  Uiso   1.00
N454   N     0.05210   0.61939   0.24719   0.00000  Uiso   1.00
O455   O     0.10559   0.53821   0.24999   0.00000  Uiso   1.00
O456   O     0.22774   0.46179   0.25000   0.00000  Uiso   1.00
O457   O     0.22774   0.53821   0.25000   0.00000  Uiso   1.00
O458   O     0.10559   0.46179   0.24999   0.00000  Uiso   1.00
O459   O     0.16666   0.53823   0.18392   0.00000  Uiso   1.00
O460   O     0.16667   0.46177   0.31607   0.00000  Uiso   1.00
O461   O     0.16667   0.53823   0.31607   0.00000  Uiso   1.00
O462   O     0.16666   0.46177   0.18392   0.00000  Uiso   1.00
Zn463  Zn    0.16667   0.55104   0.25000   0.00000  Uiso   1.00
Zn464  Zn    0.16667   0.44896   0.25000   0.00000  Uiso   1.00
C465   C     0.42010   0.50051   0.25199   0.00000  Uiso   1.00
C466   C     0.37479   0.50191   0.25144   0.00000  Uiso   1.00
C467   C     0.51961   0.35669   0.28633   0.00000  Uiso   1.00
C468   C     0.48042   0.64290   0.21404   0.00000  Uiso   1.00
C469   C     0.48054   0.35728   0.21362   0.00000  Uiso   1.00
C470   C     0.51967   0.64235   0.28582   0.00000  Uiso   1.00
C471   C     0.49957   0.49989   0.16400   0.00000  Uiso   1.00
C472   C     0.50039   0.49991   0.33604   0.00000  Uiso   1.00
C473   C     0.53617   0.48681   0.40984   0.00000  Uiso   1.00
C474   C     0.46251   0.50754   0.09022   0.00000  Uiso   1.00
C475   C     0.50004   0.49947   0.38365   0.00000  Uiso   1.00
C476   C     0.57876   0.49982   0.24396   0.00000  Uiso   1.00
C477   C     0.49966   0.49918   0.11644   0.00000  Uiso   1.00
C478   C     0.46345   0.51149   0.40232   0.00000  Uiso   1.00
C479   C     0.53680   0.48933   0.09788   0.00000  Uiso   1.00
C480   C     0.46205   0.51037   0.44923   0.00000  Uiso   1.00
C481   C     0.53773   0.48870   0.05089   0.00000  Uiso   1.00
C482   C     0.49940   0.49854   0.47650   0.00000  Uiso   1.00
C483   C     0.49985   0.49830   0.02357   0.00000  Uiso   1.00
C484   C     0.53654   0.48736   0.45655   0.00000  Uiso   1.00
C485   C     0.46236   0.50800   0.04350   0.00000  Uiso   1.00
C486   C     0.42486   0.52111   0.46963   0.00000  Uiso   1.00
C487   C     0.42550   0.51899   0.01686   0.00000  Uiso   1.00
C488   C     0.57519   0.47904   0.03054   0.00000  Uiso   1.00
C489   C     0.38463   0.53629   0.44269   0.00000  Uiso   1.00
C490   C     0.36048   0.49769   0.42012   0.00000  Uiso   1.00
C491   C     0.65587   0.51410   0.38948   0.00000  Uiso   1.00
C492   C     0.61697   0.47064   0.05789   0.00000  Uiso   1.00
C493   C     0.63610   0.51376   0.07642   0.00000  Uiso   1.00
C494   C     0.34047   0.50510   0.11073   0.00000  Uiso   1.00
C495   C     0.37194   0.42394   0.27867   0.00000  Uiso   1.00
C496   C     0.62005   0.57896   0.21156   0.00000  Uiso   1.00
C497   C     0.62797   0.41930   0.22085   0.00000  Uiso   1.00
C498   C     0.57375   0.47768   0.48322   0.00000  Uiso   1.00
C499   C     0.37099   0.58478   0.24390   0.00000  Uiso   1.00
C500   C     0.54040   0.37956   0.32922   0.00000  Uiso   1.00
C501   C     0.58182   0.40275   0.32307   0.00000  Uiso   1.00
C502   C     0.61707   0.39087   0.35976   0.00000  Uiso   1.00
C503   C     0.45599   0.61886   0.17503   0.00000  Uiso   1.00
C504   C     0.47876   0.61767   0.13041   0.00000  Uiso   1.00
C505   C     0.44748   0.61663   0.08807   0.00000  Uiso   1.00
C506   C     0.46009   0.38087   0.17075   0.00000  Uiso   1.00
C507   C     0.41834   0.40482   0.17633   0.00000  Uiso   1.00
C508   C     0.38332   0.39290   0.13981   0.00000  Uiso   1.00
C509   C     0.35341   0.46199   0.25445   0.00000  Uiso   1.00
C510   C     0.54322   0.61749   0.32505   0.00000  Uiso   1.00
C511   C     0.51850   0.61607   0.36821   0.00000  Uiso   1.00
C512   C     0.54718   0.60273   0.41016   0.00000  Uiso   1.00
C513   C     0.64256   0.53989   0.22947   0.00000  Uiso   1.00
C514   C     0.64514   0.46039   0.23836   0.00000  Uiso   1.00
C515   C     0.35217   0.54156   0.24028   0.00000  Uiso   1.00
C516   C     0.62214   0.49974   0.23405   0.00000  Uiso   1.00
H517   H     0.56421   0.47808   0.39375   0.00000  Uiso   1.00
H518   H     0.38088   0.47781   0.39934   0.00000  Uiso   1.00
H519   H     0.34963   0.47600   0.44689   0.00000  Uiso   1.00
H520   H     0.36381   0.55335   0.46543   0.00000  Uiso   1.00
H521   H     0.39174   0.56121   0.41707   0.00000  Uiso   1.00
H522   H     0.66372   0.48861   0.14139   0.00000  Uiso   1.00
H523   H     0.36393   0.48402   0.09539   0.00000  Uiso   1.00
H524   H     0.35526   0.53669   0.12130   0.00000  Uiso   1.00
H525   H     0.64619   0.53339   0.04766   0.00000  Uiso   1.00
H526   H     0.61271   0.53367   0.09332   0.00000  Uiso   1.00
H527   H     0.61315   0.44686   0.08572   0.00000  Uiso   1.00
H528   H     0.43414   0.51442   0.10649   0.00000  Uiso   1.00
H529   H     0.63957   0.45481   0.03628   0.00000  Uiso   1.00
H530   H     0.60802   0.40038   0.39390   0.00000  Uiso   1.00
H531   H     0.62417   0.35511   0.35934   0.00000  Uiso   1.00
H532   H     0.64590   0.40866   0.35314   0.00000  Uiso   1.00
H533   H     0.59261   0.39329   0.29005   0.00000  Uiso   1.00
H534   H     0.57708   0.43868   0.32507   0.00000  Uiso   1.00
H535   H     0.51746   0.39879   0.34634   0.00000  Uiso   1.00
H536   H     0.54829   0.35760   0.35787   0.00000  Uiso   1.00
H537   H     0.42372   0.59099   0.09148   0.00000  Uiso   1.00
H538   H     0.43090   0.64868   0.08283   0.00000  Uiso   1.00
H539   H     0.43646   0.52098   0.37959   0.00000  Uiso   1.00
H540   H     0.46429   0.60953   0.05755   0.00000  Uiso   1.00
H541   H     0.49986   0.64601   0.12787   0.00000  Uiso   1.00
H542   H     0.50025   0.58945   0.12881   0.00000  Uiso   1.00
H543   H     0.44648   0.58605   0.18504   0.00000  Uiso   1.00
H544   H     0.42474   0.63491   0.16870   0.00000  Uiso   1.00
H545   H     0.39240   0.40151   0.10549   0.00000  Uiso   1.00
H546   H     0.37647   0.35732   0.14106   0.00000  Uiso   1.00
H547   H     0.35430   0.41139   0.14587   0.00000  Uiso   1.00
H548   H     0.40751   0.39600   0.20952   0.00000  Uiso   1.00
H549   H     0.42269   0.44069   0.17356   0.00000  Uiso   1.00
H550   H     0.56447   0.48257   0.12073   0.00000  Uiso   1.00
H551   H     0.48310   0.39944   0.15375   0.00000  Uiso   1.00
H552   H     0.45294   0.35923   0.14214   0.00000  Uiso   1.00
H553   H     0.56422   0.57178   0.40368   0.00000  Uiso   1.00
H554   H     0.57038   0.62885   0.41888   0.00000  Uiso   1.00
H555   H     0.52836   0.59774   0.43950   0.00000  Uiso   1.00
H556   H     0.50300   0.64774   0.37523   0.00000  Uiso   1.00
H557   H     0.49153   0.59397   0.36441   0.00000  Uiso   1.00
H558   H     0.55316   0.58471   0.31473   0.00000  Uiso   1.00
H559   H     0.57444   0.63237   0.33288   0.00000  Uiso   1.00
H560   H     0.39728   0.52682   0.03307   0.00000  Uiso   1.00
H561   H     0.60200   0.46999   0.46698   0.00000  Uiso   1.00
H562   H     0.63428   0.53312   0.40965   0.00000  Uiso   1.00
H563   H     0.66600   0.53520   0.36187   0.00000  Uiso   1.00
H564   H     0.63872   0.48580   0.37371   0.00000  Uiso   1.00
N565   N     0.50000   0.61907   0.25000   0.00000  Uiso   1.00
N566   N     0.50000   0.38093   0.25000   0.00000  Uiso   1.00
N567   N     0.38658   0.39366   0.29816   0.00000  Uiso   1.00
N568   N     0.60219   0.60998   0.19725   0.00000  Uiso   1.00
N569   N     0.61448   0.38659   0.20640   0.00000  Uiso   1.00
N570   N     0.38543   0.61939   0.24719   0.00000  Uiso   1.00
O571   O     0.43892   0.53821   0.24999   0.00000  Uiso   1.00
O572   O     0.56108   0.46179   0.25000   0.00000  Uiso   1.00
O573   O     0.56108   0.53821   0.25000   0.00000  Uiso   1.00
O574   O     0.43892   0.46179   0.24999   0.00000  Uiso   1.00
O575   O     0.49999   0.53823   0.18392   0.00000  Uiso   1.00
O576   O     0.50001   0.46177   0.31607   0.00000  Uiso   1.00
O577   O     0.50001   0.53823   0.31607   0.00000  Uiso   1.00
O578   O     0.49999   0.46177   0.18392   0.00000  Uiso   1.00
Zn579  Zn    0.50000   0.55104   0.25000   0.00000  Uiso   1.00
Zn580  Zn    0.50000   0.44896   0.25000   0.00000  Uiso   1.00
C581   C     0.75343   0.50051   0.25199   0.00000  Uiso   1.00
C582   C     0.70812   0.50191   0.25144   0.00000  Uiso   1.00
C583   C     0.85294   0.35669   0.28633   0.00000  Uiso   1.00
C584   C     0.81375   0.64290   0.21404   0.00000  Uiso   1.00
C585   C     0.81387   0.35728   0.21362   0.00000  Uiso   1.00
C586   C     0.85301   0.64235   0.28582   0.00000  Uiso   1.00
C587   C     0.83290   0.49989   0.16400   0.00000  Uiso   1.00
C588   C     0.83373   0.49991   0.33604   0.00000  Uiso   1.00
C589   C     0.86950   0.48681   0.40984   0.00000  Uiso   1.00
C590   C     0.79585   0.50754   0.09022   0.00000  Uiso   1.00
C591   C     0.83337   0.49947   0.38365   0.00000  Uiso   1.00
C592   C     0.91209   0.49982   0.24396   0.00000  Uiso   1.00
C593   C     0.83299   0.49918   0.11644   0.00000  Uiso   1.00
C594   C     0.79678   0.51149   0.40232   0.00000  Uiso   1.00
C595   C     0.87014   0.48933   0.09788   0.00000  Uiso   1.00
C596   C     0.79538   0.51037   0.44923   0.00000  Uiso   1.00
C597   C     0.87107   0.48870   0.05089   0.00000  Uiso   1.00
C598   C     0.83273   0.49854   0.47650   0.00000  Uiso   1.00
C599   C     0.83318   0.49830   0.02357   0.00000  Uiso   1.00
C600   C     0.86987   0.48736   0.45655   0.00000  Uiso   1.00
C601   C     0.79570   0.50800   0.04350   0.00000  Uiso   1.00
C602   C     0.75819   0.52111   0.46963   0.00000  Uiso   1.00
C603   C     0.75883   0.51899   0.01686   0.00000  Uiso   1.00
C604   C     0.90852   0.47904   0.03054   0.00000  Uiso   1.00
C605   C     0.71797   0.53629   0.44269   0.00000  Uiso   1.00
C606   C     0.69381   0.49769   0.42012   0.00000  Uiso   1.00
C607   C     0.98920   0.51410   0.38948   0.00000  Uiso   1.00
C608   C     0.95031   0.47064   0.05789   0.00000  Uiso   1.00
C609   C     0.96943   0.51376   0.07642   0.00000  Uiso   1.00
C610   C     0.67381   0.50510   0.11073   0.00000  Uiso   1.00
C611   C     0.70527   0.42394   0.27867   0.00000  Uiso   1.00
C612   C     0.95339   0.57896   0.21156   0.00000  Uiso   1.00
C613   C     0.96131   0.41930   0.22085   0.00000  Uiso   1.00
C614   C     0.90708   0.47768   0.48322   0.00000  Uiso   1.00
C615   C     0.70432   0.58478   0.24390   0.00000  Uiso   1.00
C616   C     0.87374   0.37956   0.32922   0.00000  Uiso   1.00
C617   C     0.91515   0.40275   0.32307   0.00000  Uiso   1.00
C618   C     0.95040   0.39087   0.35976   0.00000  Uiso   1.00
C619   C     0.78933   0.61886   0.17503   0.00000  Uiso   1.00
C620   C     0.81210   0.61767   0.13041   0.00000  Uiso   1.00
C621   C     0.78081   0.61663   0.08807   0.00000  Uiso   1.00
C622   C     0.79342   0.38087   0.17075   0.00000  Uiso   1.00
C623   C     0.75167   0.40482   0.17633   0.00000  Uiso   1.00
C624   C     0.71665   0.39290   0.13981   0.00000  Uiso   1.00
C625   C     0.68675   0.46199   0.25445   0.00000  Uiso   1.00
C626   C     0.87655   0.61749   0.32505   0.00000  Uiso   1.00
C627   C     0.85184   0.61607   0.36821   0.00000  Uiso   1.00
C628   C     0.88052   0.60273   0.41016   0.00000  Uiso   1.00
C629   C     0.97589   0.53989   0.22947   0.00000  Uiso   1.00
C630   C     0.97847   0.46039   0.23836   0.00000  Uiso   1.00
C631   C     0.68550   0.54156   0.24028   0.00000  Uiso   1.00
C632   C     0.95548   0.49974   0.23405   0.00000  Uiso   1.00
H633   H     0.89754   0.47808   0.39375   0.00000  Uiso   1.00
H634   H     0.71421   0.47781   0.39934   0.00000  Uiso   1.00
H635   H     0.68297   0.47600   0.44689   0.00000  Uiso   1.00
H636   H     0.69714   0.55335   0.46543   0.00000  Uiso   1.00
H637   H     0.72507   0.56121   0.41707   0.00000  Uiso   1.00
H638   H     0.99705   0.48861   0.14139   0.00000  Uiso   1.00
H639   H     0.69727   0.48402   0.09539   0.00000  Uiso   1.00
H640   H     0.68859   0.53669   0.12130   0.00000  Uiso   1.00
H641   H     0.97952   0.53339   0.04766   0.00000  Uiso   1.00
H642   H     0.94604   0.53367   0.09332   0.00000  Uiso   1.00
H643   H     0.94648   0.44686   0.08572   0.00000  Uiso   1.00
H644   H     0.76748   0.51442   0.10649   0.00000  Uiso   1.00
H645   H     0.97290   0.45481   0.03628   0.00000  Uiso   1.00
H646   H     0.94135   0.40038   0.39390   0.00000  Uiso   1.00
H647   H     0.95750   0.35511   0.35934   0.00000  Uiso   1.00
H648   H     0.97924   0.40866   0.35314   0.00000  Uiso   1.00
H649   H     0.92595   0.39329   0.29005   0.00000  Uiso   1.00
H650   H     0.91041   0.43868   0.32507   0.00000  Uiso   1.00
H651   H     0.85080   0.39879   0.34634   0.00000  Uiso   1.00
H652   H     0.88162   0.35760   0.35787   0.00000  Uiso   1.00
H653   H     0.75705   0.59099   0.09148   0.00000  Uiso   1.00
H654   H     0.76423   0.64868   0.08283   0.00000  Uiso   1.00
H655   H     0.76979   0.52098   0.37959   0.00000  Uiso   1.00
H656   H     0.79762   0.60953   0.05755   0.00000  Uiso   1.00
H657   H     0.83319   0.64601   0.12787   0.00000  Uiso   1.00
H658   H     0.83359   0.58945   0.12881   0.00000  Uiso   1.00
H659   H     0.77982   0.58605   0.18504   0.00000  Uiso   1.00
H660   H     0.75808   0.63491   0.16870   0.00000  Uiso   1.00
H661   H     0.72574   0.40151   0.10549   0.00000  Uiso   1.00
H662   H     0.70980   0.35732   0.14106   0.00000  Uiso   1.00
H663   H     0.68763   0.41139   0.14587   0.00000  Uiso   1.00
H664   H     0.74084   0.39600   0.20952   0.00000  Uiso   1.00
H665   H     0.75602   0.44069   0.17356   0.00000  Uiso   1.00
H666   H     0.89781   0.48257   0.12073   0.00000  Uiso   1.00
H667   H     0.81644   0.39944   0.15375   0.00000  Uiso   1.00
H668   H     0.78627   0.35923   0.14214   0.00000  Uiso   1.00
H669   H     0.89755   0.57178   0.40368   0.00000  Uiso   1.00
H670   H     0.90371   0.62885   0.41888   0.00000  Uiso   1.00
H671   H     0.86169   0.59774   0.43950   0.00000  Uiso   1.00
H672   H     0.83633   0.64774   0.37523   0.00000  Uiso   1.00
H673   H     0.82487   0.59397   0.36441   0.00000  Uiso   1.00
H674   H     0.88649   0.58471   0.31473   0.00000  Uiso   1.00
H675   H     0.90778   0.63237   0.33288   0.00000  Uiso   1.00
H676   H     0.73061   0.52682   0.03307   0.00000  Uiso   1.00
H677   H     0.93533   0.46999   0.46698   0.00000  Uiso   1.00
H678   H     0.96761   0.53312   0.40965   0.00000  Uiso   1.00
H679   H     0.99934   0.53520   0.36187   0.00000  Uiso   1.00
H680   H     0.97206   0.48580   0.37371   0.00000  Uiso   1.00
N681   N     0.83333   0.61907   0.25000   0.00000  Uiso   1.00
N682   N     0.83333   0.38093   0.25000   0.00000  Uiso   1.00
N683   N     0.71991   0.39366   0.29816   0.00000  Uiso   1.00
N684   N     0.93552   0.60998   0.19725   0.00000  Uiso   1.00
N685   N     0.94781   0.38659   0.20640   0.00000  Uiso   1.00
N686   N     0.71876   0.61939   0.24719   0.00000  Uiso   1.00
O687   O     0.77226   0.53821   0.24999   0.00000  Uiso   1.00
O688   O     0.89441   0.46179   0.25000   0.00000  Uiso   1.00
O689   O     0.89441   0.53821   0.25000   0.00000  Uiso   1.00
O690   O     0.77226   0.46179   0.24999   0.00000  Uiso   1.00
O691   O     0.83333   0.53823   0.18392   0.00000  Uiso   1.00
O692   O     0.83334   0.46177   0.31607   0.00000  Uiso   1.00
O693   O     0.83334   0.53823   0.31607   0.00000  Uiso   1.00
O694   O     0.83333   0.46177   0.18392   0.00000  Uiso   1.00
Zn695  Zn    0.83333   0.55104   0.25000   0.00000  Uiso   1.00
Zn696  Zn    0.83333   0.44896   0.25000   0.00000  Uiso   1.00
C697   C     0.08677   0.83384   0.25199   0.00000  Uiso   1.00
C698   C     0.04145   0.83524   0.25144   0.00000  Uiso   1.00
C699   C     0.18628   0.69002   0.28633   0.00000  Uiso   1.00
C700   C     0.14708   0.97624   0.21404   0.00000  Uiso   1.00
C701   C     0.14721   0.69061   0.21362   0.00000  Uiso   1.00
C702   C     0.18634   0.97569   0.28582   0.00000  Uiso   1.00
C703   C     0.16623   0.83323   0.16400   0.00000  Uiso   1.00
C704   C     0.16706   0.83324   0.33604   0.00000  Uiso   1.00
C705   C     0.20283   0.82015   0.40984   0.00000  Uiso   1.00
C706   C     0.12918   0.84087   0.09022   0.00000  Uiso   1.00
C707   C     0.16671   0.83281   0.38365   0.00000  Uiso   1.00
C708   C     0.24543   0.83316   0.24396   0.00000  Uiso   1.00
C709   C     0.16632   0.83252   0.11644   0.00000  Uiso   1.00
C710   C     0.13012   0.84482   0.40232   0.00000  Uiso   1.00
C711   C     0.20347   0.82267   0.09788   0.00000  Uiso   1.00
C712   C     0.12872   0.84371   0.44923   0.00000  Uiso   1.00
C713   C     0.20440   0.82203   0.05089   0.00000  Uiso   1.00
C714   C     0.16607   0.83187   0.47650   0.00000  Uiso   1.00
C715   C     0.16651   0.83163   0.02357   0.00000  Uiso   1.00
C716   C     0.20321   0.82069   0.45655   0.00000  Uiso   1.00
C717   C     0.12903   0.84133   0.04350   0.00000  Uiso   1.00
C718   C     0.09152   0.85445   0.46963   0.00000  Uiso   1.00
C719   C     0.09216   0.85232   0.01686   0.00000  Uiso   1.00
C720   C     0.24185   0.81237   0.03054   0.00000  Uiso   1.00
C721   C     0.05130   0.86962   0.44269   0.00000  Uiso   1.00
C722   C     0.02715   0.83103   0.42012   0.00000  Uiso   1.00
C723   C     0.32253   0.84743   0.38948   0.00000  Uiso   1.00
C724   C     0.28364   0.80397   0.05789   0.00000  Uiso   1.00
C725   C     0.30276   0.84710   0.07642   0.00000  Uiso   1.00
C726   C     0.00714   0.83844   0.11073   0.00000  Uiso   1.00
C727   C     0.03861   0.75727   0.27867   0.00000  Uiso   1.00
C728   C     0.28672   0.91229   0.21156   0.00000  Uiso   1.00
C729   C     0.29464   0.75263   0.22085   0.00000  Uiso   1.00
C730   C     0.24041   0.81101   0.48322   0.00000  Uiso   1.00
C731   C     0.03765   0.91811   0.24390   0.00000  Uiso   1.00
C732   C     0.20707   0.71290   0.32922   0.00000  Uiso   1.00
C733   C     0.24848   0.73608   0.32307   0.00000  Uiso   1.00
C734   C     0.28373   0.72421   0.35976   0.00000  Uiso   1.00
C735   C     0.12266   0.95219   0.17503   0.00000  Uiso   1.00
C736   C     0.14543   0.95100   0.13041   0.00000  Uiso   1.00
C737   C     0.11415   0.94997   0.08807   0.00000  Uiso   1.00
C738   C     0.12676   0.71420   0.17075   0.00000  Uiso   1.00
C739   C     0.08500   0.73815   0.17633   0.00000  Uiso   1.00
C740   C     0.04998   0.72624   0.13981   0.00000  Uiso   1.00
C741   C     0.02008   0.79532   0.25445   0.00000  Uiso   1.00
C742   C     0.20989   0.95082   0.32505   0.00000  Uiso   1.00
C743   C     0.18517   0.94941   0.36821   0.00000  Uiso   1.00
C744   C     0.21385   0.93606   0.41016   0.00000  Uiso   1.00
C745   C     0.30923   0.87322   0.22947   0.00000  Uiso   1.00
C746   C     0.31181   0.79372   0.23836   0.00000  Uiso   1.00
C747   C     0.01883   0.87489   0.24028   0.00000  Uiso   1.00
C748   C     0.28881   0.83307   0.23405   0.00000  Uiso   1.00
H749   H     0.23088   0.81141   0.39375   0.00000  Uiso   1.00
H750   H     0.04754   0.81114   0.39934   0.00000  Uiso   1.00
H751   H     0.01630   0.80934   0.44689   0.00000  Uiso   1.00
H752   H     0.03047   0.88668   0.46543   0.00000  Uiso   1.00
H753   H     0.05840   0.89455   0.41707   0.00000  Uiso   1.00
H754   H     0.33039   0.82195   0.14139   0.00000  Uiso   1.00
H755   H     0.03060   0.81735   0.09539   0.00000  Uiso   1.00
H756   H     0.02192   0.87003   0.12130   0.00000  Uiso   1.00
H757   H     0.31286   0.86673   0.04766   0.00000  Uiso   1.00
H758   H     0.27938   0.86700   0.09332   0.00000  Uiso   1.00
H759   H     0.27981   0.78019   0.08572   0.00000  Uiso   1.00
H760   H     0.10081   0.84776   0.10649   0.00000  Uiso   1.00
H761   H     0.30624   0.78815   0.03628   0.00000  Uiso   1.00
H762   H     0.27468   0.73371   0.39390   0.00000  Uiso   1.00
H763   H     0.29083   0.68844   0.35934   0.00000  Uiso   1.00
H764   H     0.31257   0.74200   0.35314   0.00000  Uiso   1.00
H765   H     0.25928   0.72662   0.29005   0.00000  Uiso   1.00
H766   H     0.24374   0.77201   0.32507   0.00000  Uiso   1.00
H767   H     0.18413   0.73212   0.34634   0.00000  Uiso   1.00
H768   H     0.21495   0.69093   0.35787   0.00000  Uiso   1.00
H769   H     0.09039   0.92433   0.09148   0.00000  Uiso   1.00
H770   H     0.09756   0.98201   0.08283   0.00000  Uiso   1.00
H771   H     0.10312   0.85431   0.37959   0.00000  Uiso   1.00
H772   H     0.13095   0.94287   0.05755   0.00000  Uiso   1.00
H773   H     0.16653   0.97934   0.12787   0.00000  Uiso   1.00
H774   H     0.16692   0.92279   0.12881   0.00000  Uiso   1.00
H775   H     0.11315   0.91939   0.18504   0.00000  Uiso   1.00
H776   H     0.09141   0.96824   0.16870   0.00000  Uiso   1.00
H777   H     0.05907   0.73484   0.10549   0.00000  Uiso   1.00
H778   H     0.04314   0.69066   0.14106   0.00000  Uiso   1.00
H779   H     0.02096   0.74472   0.14587   0.00000  Uiso   1.00
H780   H     0.07418   0.72934   0.20952   0.00000  Uiso   1.00
H781   H     0.08936   0.77402   0.17356   0.00000  Uiso   1.00
H782   H     0.23114   0.81590   0.12073   0.00000  Uiso   1.00
H783   H     0.14977   0.73278   0.15375   0.00000  Uiso   1.00
H784   H     0.11960   0.69256   0.14214   0.00000  Uiso   1.00
H785   H     0.23088   0.90511   0.40368   0.00000  Uiso   1.00
H786   H     0.23705   0.96218   0.41888   0.00000  Uiso   1.00
H787   H     0.19502   0.93108   0.43950   0.00000  Uiso   1.00
H788   H     0.16967   0.98107   0.37523   0.00000  Uiso   1.00
H789   H     0.15820   0.92731   0.36441   0.00000  Uiso   1.00
H790   H     0.21982   0.91804   0.31473   0.00000  Uiso   1.00
H791   H     0.24111   0.96570   0.33288   0.00000  Uiso   1.00
H792   H     0.06395   0.86015   0.03307   0.00000  Uiso   1.00
H793   H     0.26866   0.80333   0.46698   0.00000  Uiso   1.00
H794   H     0.30094   0.86645   0.40965   0.00000  Uiso   1.00
H795   H     0.33267   0.86853   0.36187   0.00000  Uiso   1.00
H796   H     0.30539   0.81914   0.37371   0.00000  Uiso   1.00
N797   N     0.16667   0.95240   0.25000   0.00000  Uiso   1.00
N798   N     0.16667   0.71427   0.25000   0.00000  Uiso   1.00
N799   N     0.05324   0.72699   0.29816   0.00000  Uiso   1.00
N800   N     0.26886   0.94331   0.19725   0.00000  Uiso   1.00
N801   N     0.28114   0.71993   0.20640   0.00000  Uiso   1.00
N802   N     0.05210   0.95272   0.24719   0.00000  Uiso   1.00
O803   O     0.10559   0.87154   0.24999   0.00000  Uiso   1.00
O804   O     0.22774   0.79513   0.25000   0.00000  Uiso   1.00
O805   O     0.22774   0.87154   0.25000   0.00000  Uiso   1.00
O806   O     0.10559   0.79513   0.24999   0.00000  Uiso   1.00
O807   O     0.16666   0.87156   0.18392   0.00000  Uiso   1.00
O808   O     0.16667   0.79511   0.31607   0.00000  Uiso   1.00
O809   O     0.16667   0.87156   0.31607   0.00000  Uiso   1.00
O810   O     0.16666   0.79511   0.18392   0.00000  Uiso   1.00
Zn811  Zn    0.16667   0.88437   0.25000   0.00000  Uiso   1.00
Zn812  Zn    0.16667   0.78229   0.25000   0.00000  Uiso   1.00
C813   C     0.42010   0.83384   0.25199   0.00000  Uiso   1.00
C814   C     0.37479   0.83524   0.25144   0.00000  Uiso   1.00
C815   C     0.51961   0.69002   0.28633   0.00000  Uiso   1.00
C816   C     0.48042   0.97624   0.21404   0.00000  Uiso   1.00
C817   C     0.48054   0.69061   0.21362   0.00000  Uiso   1.00
C818   C     0.51967   0.97569   0.28582   0.00000  Uiso   1.00
C819   C     0.49957   0.83323   0.16400   0.00000  Uiso   1.00
C820   C     0.50039   0.83324   0.33604   0.00000  Uiso   1.00
C821   C     0.53617   0.82015   0.40984   0.00000  Uiso   1.00
C822   C     0.46251   0.84087   0.09022   0.00000  Uiso   1.00
C823   C     0.50004   0.83281   0.38365   0.00000  Uiso   1.00
C824   C     0.57876   0.83316   0.24396   0.00000  Uiso   1.00
C825   C     0.49966   0.83252   0.11644   0.00000  Uiso   1.00
C826   C     0.46345   0.84482   0.40232   0.00000  Uiso   1.00
C827   C     0.53680   0.82267   0.09788   0.00000  Uiso   1.00
C828   C     0.46205   0.84371   0.44923   0.00000  Uiso   1.00
C829   C     0.53773   0.82203   0.05089   0.00000  Uiso   1.00
C830   C     0.49940   0.83187   0.47650   0.00000  Uiso   1.00
C831   C     0.49985   0.83163   0.02357   0.00000  Uiso   1.00
C832   C     0.53654   0.82069   0.45655   0.00000  Uiso   1.00
C833   C     0.46236   0.84133   0.04350   0.00000  Uiso   1.00
C834   C     0.42486   0.85445   0.46963   0.00000  Uiso   1.00
C835   C     0.42550   0.85232   0.01686   0.00000  Uiso   1.00
C836   C     0.57519   0.81237   0.03054   0.00000  Uiso   1.00
C837   C     0.38463   0.86962   0.44269   0.00000  Uiso   1.00
C838   C     0.36048   0.83103   0.42012   0.00000  Uiso   1.00
C839   C     0.65587   0.84743   0.38948   0.00000  Uiso   1.00
C840   C     0.61697   0.80397   0.05789   0.00000  Uiso   1.00
C841   C     0.63610   0.84710   0.07642   0.00000  Uiso   1.00
C842   C     0.34047   0.83844   0.11073   0.00000  Uiso   1.00
C843   C     0.37194   0.75727   0.27867   0.00000  Uiso   1.00
C844   C     0.62005   0.91229   0.21156   0.00000  Uiso   1.00
C845   C     0.62797   0.75263   0.22085   0.00000  Uiso   1.00
C846   C     0.57375   0.81101   0.48322   0.00000  Uiso   1.00
C847   C     0.37099   0.91811   0.24390   0.00000  Uiso   1.00
C848   C     0.54040   0.71290   0.32922   0.00000  Uiso   1.00
C849   C     0.58182   0.73608   0.32307   0.00000  Uiso   1.00
C850   C     0.61707   0.72421   0.35976   0.00000  Uiso   1.00
C851   C     0.45599   0.95219   0.17503   0.00000  Uiso   1.00
C852   C     0.47876   0.95100   0.13041   0.00000  Uiso   1.00
C853   C     0.44748   0.94997   0.08807   0.00000  Uiso   1.00
C854   C     0.46009   0.71420   0.17075   0.00000  Uiso   1.00
C855   C     0.41834   0.73815   0.17633   0.00000  Uiso   1.00
C856   C     0.38332   0.72624   0.13981   0.00000  Uiso   1.00
C857   C     0.35341   0.79532   0.25445   0.00000  Uiso   1.00
C858   C     0.54322   0.95082   0.32505   0.00000  Uiso   1.00
C859   C     0.51850   0.94941   0.36821   0.00000  Uiso   1.00
C860   C     0.54718   0.93606   0.41016   0.00000  Uiso   1.00
C861   C     0.64256   0.87322   0.22947   0.00000  Uiso   1.00
C862   C     0.64514   0.79372   0.23836   0.00000  Uiso   1.00
C863   C     0.35217   0.87489   0.24028   0.00000  Uiso   1.00
C864   C     0.62214   0.83307   0.23405   0.00000  Uiso   1.00
H865   H     0.56421   0.81141   0.39375   0.00000  Uiso   1.00
H866   H     0.38088   0.81114   0.39934   0.00000  Uiso   1.00
H867   H     0.34963   0.80934   0.44689   0.00000  Uiso   1.00
H868   H     0.36381   0.88668   0.46543   0.00000  Uiso   1.00
H869   H     0.39174   0.89455   0.41707   0.00000  Uiso   1.00
H870   H     0.66372   0.82195   0.14139   0.00000  Uiso   1.00
H871   H     0.36393   0.81735   0.09539   0.00000  Uiso   1.00
H872   H     0.35526   0.87003   0.12130   0.00000  Uiso   1.00
H873   H     0.64619   0.86673   0.04766   0.00000  Uiso   1.00
H874   H     0.61271   0.86700   0.09332   0.00000  Uiso   1.00
H875   H     0.61315   0.78019   0.08572   0.00000  Uiso   1.00
H876   H     0.43414   0.84776   0.10649   0.00000  Uiso   1.00
H877   H     0.63957   0.78815   0.03628   0.00000  Uiso   1.00
H878   H     0.60802   0.73371   0.39390   0.00000  Uiso   1.00
H879   H     0.62417   0.68844   0.35934   0.00000  Uiso   1.00
H880   H     0.64590   0.74200   0.35314   0.00000  Uiso   1.00
H881   H     0.59261   0.72662   0.29005   0.00000  Uiso   1.00
H882   H     0.57708   0.77201   0.32507   0.00000  Uiso   1.00
H883   H     0.51746   0.73212   0.34634   0.00000  Uiso   1.00
H884   H     0.54829   0.69093   0.35787   0.00000  Uiso   1.00
H885   H     0.42372   0.92433   0.09148   0.00000  Uiso   1.00
H886   H     0.43090   0.98201   0.08283   0.00000  Uiso   1.00
H887   H     0.43646   0.85431   0.37959   0.00000  Uiso   1.00
H888   H     0.46429   0.94287   0.05755   0.00000  Uiso   1.00
H889   H     0.49986   0.97934   0.12787   0.00000  Uiso   1.00
H890   H     0.50025   0.92279   0.12881   0.00000  Uiso   1.00
H891   H     0.44648   0.91939   0.18504   0.00000  Uiso   1.00
H892   H     0.42474   0.96824   0.16870   0.00000  Uiso   1.00
H893   H     0.39240   0.73484   0.10549   0.00000  Uiso   1.00
H894   H     0.37647   0.69066   0.14106   0.00000  Uiso   1.00
H895   H     0.35430   0.74472   0.14587   0.00000  Uiso   1.00
H896   H     0.40751   0.72934   0.20952   0.00000  Uiso   1.00
H897   H     0.42269   0.77402   0.17356   0.00000  Uiso   1.00
H898   H     0.56447   0.81590   0.12073   0.00000  Uiso   1.00
H899   H     0.48310   0.73278   0.15375   0.00000  Uiso   1.00
H900   H     0.45294   0.69256   0.14214   0.00000  Uiso   1.00
H901   H     0.56422   0.90511   0.40368   0.00000  Uiso   1.00
H902   H     0.57038   0.96218   0.41888   0.00000  Uiso   1.00
H903   H     0.52836   0.93108   0.43950   0.00000  Uiso   1.00
H904   H     0.50300   0.98107   0.37523   0.00000  Uiso   1.00
H905   H     0.49153   0.92731   0.36441   0.00000  Uiso   1.00
H906   H     0.55316   0.91804   0.31473   0.00000  Uiso   1.00
H907   H     0.57444   0.96570   0.33288   0.00000  Uiso   1.00
H908   H     0.39728   0.86015   0.03307   0.00000  Uiso   1.00
H909   H     0.60200   0.80333   0.46698   0.00000  Uiso   1.00
H910   H     0.63428   0.86645   0.40965   0.00000  Uiso   1.00
H911   H     0.66600   0.86853   0.36187   0.00000  Uiso   1.00
H912   H     0.63872   0.81914   0.37371   0.00000  Uiso   1.00
N913   N     0.50000   0.95240   0.25000   0.00000  Uiso   1.00
N914   N     0.50000   0.71427   0.25000   0.00000  Uiso   1.00
N915   N     0.38658   0.72699   0.29816   0.00000  Uiso   1.00
N916   N     0.60219   0.94331   0.19725   0.00000  Uiso   1.00
N917   N     0.61448   0.71993   0.20640   0.00000  Uiso   1.00
N918   N     0.38543   0.95272   0.24719   0.00000  Uiso   1.00
O919   O     0.43892   0.87154   0.24999   0.00000  Uiso   1.00
O920   O     0.56108   0.79513   0.25000   0.00000  Uiso   1.00
O921   O     0.56108   0.87154   0.25000   0.00000  Uiso   1.00
O922   O     0.43892   0.79513   0.24999   0.00000  Uiso   1.00
O923   O     0.49999   0.87156   0.18392   0.00000  Uiso   1.00
O924   O     0.50001   0.79511   0.31607   0.00000  Uiso   1.00
O925   O     0.50001   0.87156   0.31607   0.00000  Uiso   1.00
O926   O     0.49999   0.79511   0.18392   0.00000  Uiso   1.00
Zn927  Zn    0.50000   0.88437   0.25000   0.00000  Uiso   1.00
Zn928  Zn    0.50000   0.78229   0.25000   0.00000  Uiso   1.00
C929   C     0.75343   0.83384   0.25199   0.00000  Uiso   1.00
C930   C     0.70812   0.83524   0.25144   0.00000  Uiso   1.00
C931   C     0.85294   0.69002   0.28633   0.00000  Uiso   1.00
C932   C     0.81375   0.97624   0.21404   0.00000  Uiso   1.00
C933   C     0.81387   0.69061   0.21362   0.00000  Uiso   1.00
C934   C     0.85301   0.97569   0.28582   0.00000  Uiso   1.00
C935   C     0.83290   0.83323   0.16400   0.00000  Uiso   1.00
C936   C     0.83373   0.83324   0.33604   0.00000  Uiso   1.00
C937   C     0.86950   0.82015   0.40984   0.00000  Uiso   1.00
C938   C     0.79585   0.84087   0.09022   0.00000  Uiso   1.00
C939   C     0.83337   0.83281   0.38365   0.00000  Uiso   1.00
C940   C     0.91209   0.83316   0.24396   0.00000  Uiso   1.00
C941   C     0.83299   0.83252   0.11644   0.00000  Uiso   1.00
C942   C     0.79678   0.84482   0.40232   0.00000  Uiso   1.00
C943   C     0.87014   0.82267   0.09788   0.00000  Uiso   1.00
C944   C     0.79538   0.84371   0.44923   0.00000  Uiso   1.00
C945   C     0.87107   0.82203   0.05089   0.00000  Uiso   1.00
C946   C     0.83273   0.83187   0.47650   0.00000  Uiso   1.00
C947   C     0.83318   0.83163   0.02357   0.00000  Uiso   1.00
C948   C     0.86987   0.82069   0.45655   0.00000  Uiso   1.00
C949   C     0.79570   0.84133   0.04350   0.00000  Uiso   1.00
C950   C     0.75819   0.85445   0.46963   0.00000  Uiso   1.00
C951   C     0.75883   0.85232   0.01686   0.00000  Uiso   1.00
C952   C     0.90852   0.81237   0.03054   0.00000  Uiso   1.00
C953   C     0.71797   0.86962   0.44269   0.00000  Uiso   1.00
C954   C     0.69381   0.83103   0.42012   0.00000  Uiso   1.00
C955   C     0.98920   0.84743   0.38948   0.00000  Uiso   1.00
C956   C     0.95031   0.80397   0.05789   0.00000  Uiso   1.00
C957   C     0.96943   0.84710   0.07642   0.00000  Uiso   1.00
C958   C     0.67381   0.83844   0.11073   0.00000  Uiso   1.00
C959   C     0.70527   0.75727   0.27867   0.00000  Uiso   1.00
C960   C     0.95339   0.91229   0.21156   0.00000  Uiso   1.00
C961   C     0.96131   0.75263   0.22085   0.00000  Uiso   1.00
C962   C     0.90708   0.81101   0.48322   0.00000  Uiso   1.00
C963   C     0.70432   0.91811   0.24390   0.00000  Uiso   1.00
C964   C     0.87374   0.71290   0.32922   0.00000  Uiso   1.00
C965   C     0.91515   0.73608   0.32307   0.00000  Uiso   1.00
C966   C     0.95040   0.72421   0.35976   0.00000  Uiso   1.00
C967   C     0.78933   0.95219   0.17503   0.00000  Uiso   1.00
C968   C     0.81210   0.95100   0.13041   0.00000  Uiso   1.00
C969   C     0.78081   0.94997   0.08807   0.00000  Uiso   1.00
C970   C     0.79342   0.71420   0.17075   0.00000  Uiso   1.00
C971   C     0.75167   0.73815   0.17633   0.00000  Uiso   1.00
C972   C     0.71665   0.72624   0.13981   0.00000  Uiso   1.00
C973   C     0.68675   0.79532   0.25445   0.00000  Uiso   1.00
C974   C     0.87655   0.95082   0.32505   0.00000  Uiso   1.00
C975   C     0.85184   0.94941   0.36821   0.00000  Uiso   1.00
C976   C     0.88052   0.93606   0.41016   0.00000  Uiso   1.00
C977   C     0.97589   0.87322   0.22947   0.00000  Uiso   1.00
C978   C     0.97847   0.79372   0.23836   0.00000  Uiso   1.00
C979   C     0.68550   0.87489   0.24028   0.00000  Uiso   1.00
C980   C     0.95548   0.83307   0.23405   0.00000  Uiso   1.00
H981   H     0.89754   0.81141   0.39375   0.00000  Uiso   1.00
H982   H     0.71421   0.81114   0.39934   0.00000  Uiso   1.00
H983   H     0.68297   0.80934   0.44689   0.00000  Uiso   1.00
H984   H     0.69714   0.88668   0.46543   0.00000  Uiso   1.00
H985   H     0.72507   0.89455   0.41707   0.00000  Uiso   1.00
H986   H     0.99705   0.82195   0.14139   0.00000  Uiso   1.00
H987   H     0.69727   0.81735   0.09539   0.00000  Uiso   1.00
H988   H     0.68859   0.87003   0.12130   0.00000  Uiso   1.00
H989   H     0.97952   0.86673   0.04766   0.00000  Uiso   1.00
H990   H     0.94604   0.86700   0.09332   0.00000  Uiso   1.00
H991   H     0.94648   0.78019   0.08572   0.00000  Uiso   1.00
H992   H     0.76748   0.84776   0.10649   0.00000  Uiso   1.00
H993   H     0.97290   0.78815   0.03628   0.00000  Uiso   1.00
H994   H     0.94135   0.73371   0.39390   0.00000  Uiso   1.00
H995   H     0.95750   0.68844   0.35934   0.00000  Uiso   1.00
H996   H     0.97924   0.74200   0.35314   0.00000  Uiso   1.00
H997   H     0.92595   0.72662   0.29005   0.00000  Uiso   1.00
H998   H     0.91041   0.77201   0.32507   0.00000  Uiso   1.00
H999   H     0.85080   0.73212   0.34634   0.00000  Uiso   1.00
H1000  H     0.88162   0.69093   0.35787   0.00000  Uiso   1.00
H1001  H     0.75705   0.92433   0.09148   0.00000  Uiso   1.00
H1002  H     0.76423   0.98201   0.08283   0.00000  Uiso   1.00
H1003  H     0.76979   0.85431   0.37959   0.00000  Uiso   1.00
H1004  H     0.79762   0.94287   0.05755   0.00000  Uiso   1.00
H1005  H     0.83319   0.97934   0.12787   0.00000  Uiso   1.00
H1006  H     0.83359   0.92279   0.12881   0.00000  Uiso   1.00
H1007  H     0.77982   0.91939   0.18504   0.00000  Uiso   1.00
H1008  H     0.75808   0.96824   0.16870   0.00000  Uiso   1.00
H1009  H     0.72574   0.73484   0.10549   0.00000  Uiso   1.00
H1010  H     0.70980   0.69066   0.14106   0.00000  Uiso   1.00
H1011  H     0.68763   0.74472   0.14587   0.00000  Uiso   1.00
H1012  H     0.74084   0.72934   0.20952   0.00000  Uiso   1.00
H1013  H     0.75602   0.77402   0.17356   0.00000  Uiso   1.00
H1014  H     0.89781   0.81590   0.12073   0.00000  Uiso   1.00
H1015  H     0.81644   0.73278   0.15375   0.00000  Uiso   1.00
H1016  H     0.78627   0.69256   0.14214   0.00000  Uiso   1.00
H1017  H     0.89755   0.90511   0.40368   0.00000  Uiso   1.00
H1018  H     0.90371   0.96218   0.41888   0.00000  Uiso   1.00
H1019  H     0.86169   0.93108   0.43950   0.00000  Uiso   1.00
H1020  H     0.83633   0.98107   0.37523   0.00000  Uiso   1.00
H1021  H     0.82487   0.92731   0.36441   0.00000  Uiso   1.00
H1022  H     0.88649   0.91804   0.31473   0.00000  Uiso   1.00
H1023  H     0.90778   0.96570   0.33288   0.00000  Uiso   1.00
H1024  H     0.73061   0.86015   0.03307   0.00000  Uiso   1.00
H1025  H     0.93533   0.80333   0.46698   0.00000  Uiso   1.00
H1026  H     0.96761   0.86645   0.40965   0.00000  Uiso   1.00
H1027  H     0.99934   0.86853   0.36187   0.00000  Uiso   1.00
H1028  H     0.97206   0.81914   0.37371   0.00000  Uiso   1.00
N1029  N     0.83333   0.95240   0.25000   0.00000  Uiso   1.00
N1030  N     0.83333   0.71427   0.25000   0.00000  Uiso   1.00
N1031  N     0.71991   0.72699   0.29816   0.00000  Uiso   1.00
N1032  N     0.93552   0.94331   0.19725   0.00000  Uiso   1.00
N1033  N     0.94781   0.71993   0.20640   0.00000  Uiso   1.00
N1034  N     0.71876   0.95272   0.24719   0.00000  Uiso   1.00
O1035  O     0.77226   0.87154   0.24999   0.00000  Uiso   1.00
O1036  O     0.89441   0.79513   0.25000   0.00000  Uiso   1.00
O1037  O     0.89441   0.87154   0.25000   0.00000  Uiso   1.00
O1038  O     0.77226   0.79513   0.24999   0.00000  Uiso   1.00
O1039  O     0.83333   0.87156   0.18392   0.00000  Uiso   1.00
O1040  O     0.83334   0.79511   0.31607   0.00000  Uiso   1.00
O1041  O     0.83334   0.87156   0.31607   0.00000  Uiso   1.00
O1042  O     0.83333   0.79511   0.18392   0.00000  Uiso   1.00
Zn1043 Zn    0.83333   0.88437   0.25000   0.00000  Uiso   1.00
Zn1044 Zn    0.83333   0.78229   0.25000   0.00000  Uiso   1.00
C1045  C     0.08677   0.16717   0.75199   0.00000  Uiso   1.00
C1046  C     0.04145   0.16857   0.75144   0.00000  Uiso   1.00
C1047  C     0.18628   0.02336   0.78633   0.00000  Uiso   1.00
C1048  C     0.14708   0.30957   0.71404   0.00000  Uiso   1.00
C1049  C     0.14721   0.02395   0.71362   0.00000  Uiso   1.00
C1050  C     0.18634   0.30902   0.78582   0.00000  Uiso   1.00
C1051  C     0.16623   0.16656   0.66400   0.00000  Uiso   1.00
C1052  C     0.16706   0.16658   0.83604   0.00000  Uiso   1.00
C1053  C     0.20283   0.15348   0.90984   0.00000  Uiso   1.00
C1054  C     0.12918   0.17420   0.59022   0.00000  Uiso   1.00
C1055  C     0.16671   0.16614   0.88365   0.00000  Uiso   1.00
C1056  C     0.24543   0.16649   0.74396   0.00000  Uiso   1.00
C1057  C     0.16632   0.16585   0.61644   0.00000  Uiso   1.00
C1058  C     0.13012   0.17816   0.90232   0.00000  Uiso   1.00
C1059  C     0.20347   0.15600   0.59788   0.00000  Uiso   1.00
C1060  C     0.12872   0.17704   0.94923   0.00000  Uiso   1.00
C1061  C     0.20440   0.15537   0.55089   0.00000  Uiso   1.00
C1062  C     0.16607   0.16520   0.97650   0.00000  Uiso   1.00
C1063  C     0.16651   0.16496   0.52357   0.00000  Uiso   1.00
C1064  C     0.20321   0.15402   0.95655   0.00000  Uiso   1.00
C1065  C     0.12903   0.17467   0.54350   0.00000  Uiso   1.00
C1066  C     0.09152   0.18778   0.96963   0.00000  Uiso   1.00
C1067  C     0.09216   0.18566   0.51686   0.00000  Uiso   1.00
C1068  C     0.24185   0.14570   0.53054   0.00000  Uiso   1.00
C1069  C     0.05130   0.20295   0.94269   0.00000  Uiso   1.00
C1070  C     0.02715   0.16436   0.92012   0.00000  Uiso   1.00
C1071  C     0.32253   0.18077   0.88948   0.00000  Uiso   1.00
C1072  C     0.28364   0.13731   0.55789   0.00000  Uiso   1.00
C1073  C     0.30276   0.18043   0.57642   0.00000  Uiso   1.00
C1074  C     0.00714   0.17177   0.61073   0.00000  Uiso   1.00
C1075  C     0.03861   0.09061   0.77867   0.00000  Uiso   1.00
C1076  C     0.28672   0.24562   0.71156   0.00000  Uiso   1.00
C1077  C     0.29464   0.08596   0.72085   0.00000  Uiso   1.00
C1078  C     0.24041   0.14434   0.98322   0.00000  Uiso   1.00
C1079  C     0.03765   0.25144   0.74390   0.00000  Uiso   1.00
C1080  C     0.20707   0.04623   0.82922   0.00000  Uiso   1.00
C1081  C     0.24848   0.06942   0.82307   0.00000  Uiso   1.00
C1082  C     0.28373   0.05754   0.85976   0.00000  Uiso   1.00
C1083  C     0.12266   0.28553   0.67503   0.00000  Uiso   1.00
C1084  C     0.14543   0.28433   0.63041   0.00000  Uiso   1.00
C1085  C     0.11415   0.28330   0.58807   0.00000  Uiso   1.00
C1086  C     0.12676   0.04754   0.67075   0.00000  Uiso   1.00
C1087  C     0.08500   0.07148   0.67633   0.00000  Uiso   1.00
C1088  C     0.04998   0.05957   0.63981   0.00000  Uiso   1.00
C1089  C     0.02008   0.12866   0.75445   0.00000  Uiso   1.00
C1090  C     0.20989   0.28415   0.82505   0.00000  Uiso   1.00
C1091  C     0.18517   0.28274   0.86821   0.00000  Uiso   1.00
C1092  C     0.21385   0.26939   0.91016   0.00000  Uiso   1.00
C1093  C     0.30923   0.20655   0.72947   0.00000  Uiso   1.00
C1094  C     0.31181   0.12706   0.73836   0.00000  Uiso   1.00
C1095  C     0.01883   0.20822   0.74028   0.00000  Uiso   1.00
C1096  C     0.28881   0.16641   0.73405   0.00000  Uiso   1.00
H1097  H     0.23088   0.14475   0.89375   0.00000  Uiso   1.00
H1098  H     0.04754   0.14447   0.89934   0.00000  Uiso   1.00
H1099  H     0.01630   0.14267   0.94689   0.00000  Uiso   1.00
H1100  H     0.03047   0.22002   0.96543   0.00000  Uiso   1.00
H1101  H     0.05840   0.22788   0.91707   0.00000  Uiso   1.00
H1102  H     0.33039   0.15528   0.64139   0.00000  Uiso   1.00
H1103  H     0.03060   0.15069   0.59539   0.00000  Uiso   1.00
H1104  H     0.02192   0.20336   0.62130   0.00000  Uiso   1.00
H1105  H     0.31286   0.20006   0.54766   0.00000  Uiso   1.00
H1106  H     0.27938   0.20034   0.59332   0.00000  Uiso   1.00
H1107  H     0.27981   0.11352   0.58572   0.00000  Uiso   1.00
H1108  H     0.10081   0.18109   0.60649   0.00000  Uiso   1.00
H1109  H     0.30624   0.12148   0.53628   0.00000  Uiso   1.00
H1110  H     0.27468   0.06705   0.89390   0.00000  Uiso   1.00
H1111  H     0.29083   0.02177   0.85934   0.00000  Uiso   1.00
H1112  H     0.31257   0.07533   0.85314   0.00000  Uiso   1.00
H1113  H     0.25928   0.05996   0.79005   0.00000  Uiso   1.00
H1114  H     0.24374   0.10534   0.82507   0.00000  Uiso   1.00
H1115  H     0.18413   0.06545   0.84634   0.00000  Uiso   1.00
H1116  H     0.21495   0.02426   0.85787   0.00000  Uiso   1.00
H1117  H     0.09039   0.25766   0.59148   0.00000  Uiso   1.00
H1118  H     0.09756   0.31534   0.58283   0.00000  Uiso   1.00
H1119  H     0.10312   0.18765   0.87959   0.00000  Uiso   1.00
H1120  H     0.13095   0.27620   0.55755   0.00000  Uiso   1.00
H1121  H     0.16653   0.31267   0.62787   0.00000  Uiso   1.00
H1122  H     0.16692   0.25612   0.62881   0.00000  Uiso   1.00
H1123  H     0.11315   0.25272   0.68504   0.00000  Uiso   1.00
H1124  H     0.09141   0.30158   0.66870   0.00000  Uiso   1.00
H1125  H     0.05907   0.06818   0.60549   0.00000  Uiso   1.00
H1126  H     0.04314   0.02399   0.64106   0.00000  Uiso   1.00
H1127  H     0.02096   0.07806   0.64587   0.00000  Uiso   1.00
H1128  H     0.07418   0.06267   0.70952   0.00000  Uiso   1.00
H1129  H     0.08936   0.10736   0.67356   0.00000  Uiso   1.00
H1130  H     0.23114   0.14924   0.62073   0.00000  Uiso   1.00
H1131  H     0.14977   0.06611   0.65375   0.00000  Uiso   1.00
H1132  H     0.11960   0.02590   0.64214   0.00000  Uiso   1.00
H1133  H     0.23088   0.23844   0.90368   0.00000  Uiso   1.00
H1134  H     0.23705   0.29551   0.91888   0.00000  Uiso   1.00
H1135  H     0.19502   0.26441   0.93950   0.00000  Uiso   1.00
H1136  H     0.16967   0.31441   0.87523   0.00000  Uiso   1.00
H1137  H     0.15820   0.26064   0.86441   0.00000  Uiso   1.00
H1138  H     0.21982   0.25137   0.81473   0.00000  Uiso   1.00
H1139  H     0.24111   0.29903   0.83288   0.00000  Uiso   1.00
H1140  H     0.06395   0.19349   0.53307   0.00000  Uiso   1.00
H1141  H     0.26866   0.13666   0.96698   0.00000  Uiso   1.00
H1142  H     0.30094   0.19978   0.90965   0.00000  Uiso   1.00
H1143  H     0.33267   0.20186   0.86187   0.00000  Uiso   1.00
H1144  H     0.30539   0.15247   0.87371   0.00000  Uiso   1.00
N1145  N     0.16667   0.28573   0.75000   0.00000  Uiso   1.00
N1146  N     0.16667   0.04760   0.75000   0.00000  Uiso   1.00
N1147  N     0.05324   0.06033   0.79816   0.00000  Uiso   1.00
N1148  N     0.26886   0.27665   0.69725   0.00000  Uiso   1.00
N1149  N     0.28114   0.05326   0.70640   0.00000  Uiso   1.00
N1150  N     0.05210   0.28605   0.74719   0.00000  Uiso   1.00
O1151  O     0.10559   0.20487   0.74999   0.00000  Uiso   1.00
O1152  O     0.22774   0.12846   0.75000   0.00000  Uiso   1.00
O1153  O     0.22774   0.20487   0.75000   0.00000  Uiso   1.00
O1154  O     0.10559   0.12846   0.74999   0.00000  Uiso   1.00
O1155  O     0.16666   0.20489   0.68392   0.00000  Uiso   1.00
O1156  O     0.16667   0.12844   0.81607   0.00000  Uiso   1.00
O1157  O     0.16667   0.20489   0.81607   0.00000  Uiso   1.00
O1158  O     0.16666   0.12844   0.68392   0.00000  Uiso   1.00
Zn1159 Zn    0.16667   0.21771   0.75000   0.00000  Uiso   1.00
Zn1160 Zn    0.16667   0.11563   0.75000   0.00000  Uiso   1.00
C1161  C     0.42010   0.16717   0.75199   0.00000  Uiso   1.00
C1162  C     0.37479   0.16857   0.75144   0.00000  Uiso   1.00
C1163  C     0.51961   0.02336   0.78633   0.00000  Uiso   1.00
C1164  C     0.48042   0.30957   0.71404   0.00000  Uiso   1.00
C1165  C     0.48054   0.02395   0.71362   0.00000  Uiso   1.00
C1166  C     0.51967   0.30902   0.78582   0.00000  Uiso   1.00
C1167  C     0.49957   0.16656   0.66400   0.00000  Uiso   1.00
C1168  C     0.50039   0.16658   0.83604   0.00000  Uiso   1.00
C1169  C     0.53617   0.15348   0.90984   0.00000  Uiso   1.00
C1170  C     0.46251   0.17420   0.59022   0.00000  Uiso   1.00
C1171  C     0.50004   0.16614   0.88365   0.00000  Uiso   1.00
C1172  C     0.57876   0.16649   0.74396   0.00000  Uiso   1.00
C1173  C     0.49966   0.16585   0.61644   0.00000  Uiso   1.00
C1174  C     0.46345   0.17816   0.90232   0.00000  Uiso   1.00
C1175  C     0.53680   0.15600   0.59788   0.00000  Uiso   1.00
C1176  C     0.46205   0.17704   0.94923   0.00000  Uiso   1.00
C1177  C     0.53773   0.15537   0.55089   0.00000  Uiso   1.00
C1178  C     0.49940   0.16520   0.97650   0.00000  Uiso   1.00
C1179  C     0.49985   0.16496   0.52357   0.00000  Uiso   1.00
C1180  C     0.53654   0.15402   0.95655   0.00000  Uiso   1.00
C1181  C     0.46236   0.17467   0.54350   0.00000  Uiso   1.00
C1182  C     0.42486   0.18778   0.96963   0.00000  Uiso   1.00
C1183  C     0.42550   0.18566   0.51686   0.00000  Uiso   1.00
C1184  C     0.57519   0.14570   0.53054   0.00000  Uiso   1.00
C1185  C     0.38463   0.20295   0.94269   0.00000  Uiso   1.00
C1186  C     0.36048   0.16436   0.92012   0.00000  Uiso   1.00
C1187  C     0.65587   0.18077   0.88948   0.00000  Uiso   1.00
C1188  C     0.61697   0.13731   0.55789   0.00000  Uiso   1.00
C1189  C     0.63610   0.18043   0.57642   0.00000  Uiso   1.00
C1190  C     0.34047   0.17177   0.61073   0.00000  Uiso   1.00
C1191  C     0.37194   0.09061   0.77867   0.00000  Uiso   1.00
C1192  C     0.62005   0.24562   0.71156   0.00000  Uiso   1.00
C1193  C     0.62797   0.08596   0.72085   0.00000  Uiso   1.00
C1194  C     0.57375   0.14434   0.98322   0.00000  Uiso   1.00
C1195  C     0.37099   0.25144   0.74390   0.00000  Uiso   1.00
C1196  C     0.54040   0.04623   0.82922   0.00000  Uiso   1.00
C1197  C     0.58182   0.06942   0.82307   0.00000  Uiso   1.00
C1198  C     0.61707   0.05754   0.85976   0.00000  Uiso   1.00
C1199  C     0.45599   0.28553   0.67503   0.00000  Uiso   1.00
C1200  C     0.47876   0.28433   0.63041   0.00000  Uiso   1.00
C1201  C     0.44748   0.28330   0.58807   0.00000  Uiso   1.00
C1202  C     0.46009   0.04754   0.67075   0.00000  Uiso   1.00
C1203  C     0.41834   0.07148   0.67633   0.00000  Uiso   1.00
C1204  C     0.38332   0.05957   0.63981   0.00000  Uiso   1.00
C1205  C     0.35341   0.12866   0.75445   0.00000  Uiso   1.00
C1206  C     0.54322   0.28415   0.82505   0.00000  Uiso   1.00
C1207  C     0.51850   0.28274   0.86821   0.00000  Uiso   1.00
C1208  C     0.54718   0.26939   0.91016   0.00000  Uiso   1.00
C1209  C     0.64256   0.20655   0.72947   0.00000  Uiso   1.00
C1210  C     0.64514   0.12706   0.73836   0.00000  Uiso   1.00
C1211  C     0.35217   0.20822   0.74028   0.00000  Uiso   1.00
C1212  C     0.62214   0.16641   0.73405   0.00000  Uiso   1.00
H1213  H     0.56421   0.14475   0.89375   0.00000  Uiso   1.00
H1214  H     0.38088   0.14447   0.89934   0.00000  Uiso   1.00
H1215  H     0.34963   0.14267   0.94689   0.00000  Uiso   1.00
H1216  H     0.36381   0.22002   0.96543   0.00000  Uiso   1.00
H1217  H     0.39174   0.22788   0.91707   0.00000  Uiso   1.00
H1218  H     0.66372   0.15528   0.64139   0.00000  Uiso   1.00
H1219  H     0.36393   0.15069   0.59539   0.00000  Uiso   1.00
H1220  H     0.35526   0.20336   0.62130   0.00000  Uiso   1.00
H1221  H     0.64619   0.20006   0.54766   0.00000  Uiso   1.00
H1222  H     0.61271   0.20034   0.59332   0.00000  Uiso   1.00
H1223  H     0.61315   0.11352   0.58572   0.00000  Uiso   1.00
H1224  H     0.43414   0.18109   0.60649   0.00000  Uiso   1.00
H1225  H     0.63957   0.12148   0.53628   0.00000  Uiso   1.00
H1226  H     0.60802   0.06705   0.89390   0.00000  Uiso   1.00
H1227  H     0.62417   0.02177   0.85934   0.00000  Uiso   1.00
H1228  H     0.64590   0.07533   0.85314   0.00000  Uiso   1.00
H1229  H     0.59261   0.05996   0.79005   0.00000  Uiso   1.00
H1230  H     0.57708   0.10534   0.82507   0.00000  Uiso   1.00
H1231  H     0.51746   0.06545   0.84634   0.00000  Uiso   1.00
H1232  H     0.54829   0.02426   0.85787   0.00000  Uiso   1.00
H1233  H     0.42372   0.25766   0.59148   0.00000  Uiso   1.00
H1234  H     0.43090   0.31534   0.58283   0.00000  Uiso   1.00
H1235  H     0.43646   0.18765   0.87959   0.00000  Uiso   1.00
H1236  H     0.46429   0.27620   0.55755   0.00000  Uiso   1.00
H1237  H     0.49986   0.31267   0.62787   0.00000  Uiso   1.00
H1238  H     0.50025   0.25612   0.62881   0.00000  Uiso   1.00
H1239  H     0.44648   0.25272   0.68504   0.00000  Uiso   1.00
H1240  H     0.42474   0.30158   0.66870   0.00000  Uiso   1.00
H1241  H     0.39240   0.06818   0.60549   0.00000  Uiso   1.00
H1242  H     0.37647   0.02399   0.64106   0.00000  Uiso   1.00
H1243  H     0.35430   0.07806   0.64587   0.00000  Uiso   1.00
H1244  H     0.40751   0.06267   0.70952   0.00000  Uiso   1.00
H1245  H     0.42269   0.10736   0.67356   0.00000  Uiso   1.00
H1246  H     0.56447   0.14924   0.62073   0.00000  Uiso   1.00
H1247  H     0.48310   0.06611   0.65375   0.00000  Uiso   1.00
H1248  H     0.45294   0.02590   0.64214   0.00000  Uiso   1.00
H1249  H     0.56422   0.23844   0.90368   0.00000  Uiso   1.00
H1250  H     0.57038   0.29551   0.91888   0.00000  Uiso   1.00
H1251  H     0.52836   0.26441   0.93950   0.00000  Uiso   1.00
H1252  H     0.50300   0.31441   0.87523   0.00000  Uiso   1.00
H1253  H     0.49153   0.26064   0.86441   0.00000  Uiso   1.00
H1254  H     0.55316   0.25137   0.81473   0.00000  Uiso   1.00
H1255  H     0.57444   0.29903   0.83288   0.00000  Uiso   1.00
H1256  H     0.39728   0.19349   0.53307   0.00000  Uiso   1.00
H1257  H     0.60200   0.13666   0.96698   0.00000  Uiso   1.00
H1258  H     0.63428   0.19978   0.90965   0.00000  Uiso   1.00
H1259  H     0.66600   0.20186   0.86187   0.00000  Uiso   1.00
H1260  H     0.63872   0.15247   0.87371   0.00000  Uiso   1.00
N1261  N     0.50000   0.28573   0.75000   0.00000  Uiso   1.00
N1262  N     0.50000   0.04760   0.75000   0.00000  Uiso   1.00
N1263  N     0.38658   0.06033   0.79816   0.00000  Uiso   1.00
N1264  N     0.60219   0.27665   0.69725   0.00000  Uiso   1.00
N1265  N     0.61448   0.05326   0.70640   0.00000  Uiso   1.00
N1266  N     0.38543   0.28605   0.74719   0.00000  Uiso   1.00
O1267  O     0.43892   0.20487   0.74999   0.00000  Uiso   1.00
O1268  O     0.56108   0.12846   0.75000   0.00000  Uiso   1.00
O1269  O     0.56108   0.20487   0.75000   0.00000  Uiso   1.00
O1270  O     0.43892   0.12846   0.74999   0.00000  Uiso   1.00
O1271  O     0.49999   0.20489   0.68392   0.00000  Uiso   1.00
O1272  O     0.50001   0.12844   0.81607   0.00000  Uiso   1.00
O1273  O     0.50001   0.20489   0.81607   0.00000  Uiso   1.00
O1274  O     0.49999   0.12844   0.68392   0.00000  Uiso   1.00
Zn1275 Zn    0.50000   0.21771   0.75000   0.00000  Uiso   1.00
Zn1276 Zn    0.50000   0.11563   0.75000   0.00000  Uiso   1.00
C1277  C     0.75343   0.16717   0.75199   0.00000  Uiso   1.00
C1278  C     0.70812   0.16857   0.75144   0.00000  Uiso   1.00
C1279  C     0.85294   0.02336   0.78633   0.00000  Uiso   1.00
C1280  C     0.81375   0.30957   0.71404   0.00000  Uiso   1.00
C1281  C     0.81387   0.02395   0.71362   0.00000  Uiso   1.00
C1282  C     0.85301   0.30902   0.78582   0.00000  Uiso   1.00
C1283  C     0.83290   0.16656   0.66400   0.00000  Uiso   1.00
C1284  C     0.83373   0.16658   0.83604   0.00000  Uiso   1.00
C1285  C     0.86950   0.15348   0.90984   0.00000  Uiso   1.00
C1286  C     0.79585   0.17420   0.59022   0.00000  Uiso   1.00
C1287  C     0.83337   0.16614   0.88365   0.00000  Uiso   1.00
C1288  C     0.91209   0.16649   0.74396   0.00000  Uiso   1.00
C1289  C     0.83299   0.16585   0.61644   0.00000  Uiso   1.00
C1290  C     0.79678   0.17816   0.90232   0.00000  Uiso   1.00
C1291  C     0.87014   0.15600   0.59788   0.00000  Uiso   1.00
C1292  C     0.79538   0.17704   0.94923   0.00000  Uiso   1.00
C1293  C     0.87107   0.15537   0.55089   0.00000  Uiso   1.00
C1294  C     0.83273   0.16520   0.97650   0.00000  Uiso   1.00
C1295  C     0.83318   0.16496   0.52357   0.00000  Uiso   1.00
C1296  C     0.86987   0.15402   0.95655   0.00000  Uiso   1.00
C1297  C     0.79570   0.17467   0.54350   0.00000  Uiso   1.00
C1298  C     0.75819   0.18778   0.96963   0.00000  Uiso   1.00
C1299  C     0.75883   0.18566   0.51686   0.00000  Uiso   1.00
C1300  C     0.90852   0.14570   0.53054   0.00000  Uiso   1.00
C1301  C     0.71797   0.20295   0.94269   0.00000  Uiso   1.00
C1302  C     0.69381   0.16436   0.92012   0.00000  Uiso   1.00
C1303  C     0.98920   0.18077   0.88948   0.00000  Uiso   1.00
C1304  C     0.95031   0.13731   0.55789   0.00000  Uiso   1.00
C1305  C     0.96943   0.18043   0.57642   0.00000  Uiso   1.00
C1306  C     0.67381   0.17177   0.61073   0.00000  Uiso   1.00
C1307  C     0.70527   0.09061   0.77867   0.00000  Uiso   1.00
C1308  C     0.95339   0.24562   0.71156   0.00000  Uiso   1.00
C1309  C     0.96131   0.08596   0.72085   0.00000  Uiso   1.00
C1310  C     0.90708   0.14434   0.98322   0.00000  Uiso   1.00
C1311  C     0.70432   0.25144   0.74390   0.00000  Uiso   1.00
C1312  C     0.87374   0.04623   0.82922   0.00000  Uiso   1.00
C1313  C     0.91515   0.06942   0.82307   0.00000  Uiso   1.00
C1314  C     0.95040   0.05754   0.85976   0.00000  Uiso   1.00
C1315  C     0.78933   0.28553   0.67503   0.00000  Uiso   1.00
C1316  C     0.81210   0.28433   0.63041   0.00000  Uiso   1.00
C1317  C     0.78081   0.28330   0.58807   0.00000  Uiso   1.00
C1318  C     0.79342   0.04754   0.67075   0.00000  Uiso   1.00
C1319  C     0.75167   0.07148   0.67633   0.00000  Uiso   1.00
C1320  C     0.71665   0.05957   0.63981   0.00000  Uiso   1.00
C1321  C     0.68675   0.12866   0.75445   0.00000  Uiso   1.00
C1322  C     0.87655   0.28415   0.82505   0.00000  Uiso   1.00
C1323  C     0.85184   0.28274   0.86821   0.00000  Uiso   1.00
C1324  C     0.88052   0.26939   0.91016   0.00000  Uiso   1.00
C1325  C     0.97589   0.20655   0.72947   0.00000  Uiso   1.00
C1326  C     0.97847   0.12706   0.73836   0.00000  Uiso   1.00
C1327  C     0.68550   0.20822   0.74028   0.00000  Uiso   1.00
C1328  C     0.95548   0.16641   0.73405   0.00000  Uiso   1.00
H1329  H     0.89754   0.14475   0.89375   0.00000  Uiso   1.00
H1330  H     0.71421   0.14447   0.89934   0.00000  Uiso   1.00
H1331  H     0.68297   0.14267   0.94689   0.00000  Uiso   1.00
H1332  H     0.69714   0.22002   0.96543   0.00000  Uiso   1.00
H1333  H     0.72507   0.22788   0.91707   0.00000  Uiso   1.00
H1334  H     0.99705   0.15528   0.64139   0.00000  Uiso   1.00
H1335  H     0.69727   0.15069   0.59539   0.00000  Uiso   1.00
H1336  H     0.68859   0.20336   0.62130   0.00000  Uiso   1.00
H1337  H     0.97952   0.20006   0.54766   0.00000  Uiso   1.00
H1338  H     0.94604   0.20034   0.59332   0.00000  Uiso   1.00
H1339  H     0.94648   0.11352   0.58572   0.00000  Uiso   1.00
H1340  H     0.76748   0.18109   0.60649   0.00000  Uiso   1.00
H1341  H     0.97290   0.12148   0.53628   0.00000  Uiso   1.00
H1342  H     0.94135   0.06705   0.89390   0.00000  Uiso   1.00
H1343  H     0.95750   0.02177   0.85934   0.00000  Uiso   1.00
H1344  H     0.97924   0.07533   0.85314   0.00000  Uiso   1.00
H1345  H     0.92595   0.05996   0.79005   0.00000  Uiso   1.00
H1346  H     0.91041   0.10534   0.82507   0.00000  Uiso   1.00
H1347  H     0.85080   0.06545   0.84634   0.00000  Uiso   1.00
H1348  H     0.88162   0.02426   0.85787   0.00000  Uiso   1.00
H1349  H     0.75705   0.25766   0.59148   0.00000  Uiso   1.00
H1350  H     0.76423   0.31534   0.58283   0.00000  Uiso   1.00
H1351  H     0.76979   0.18765   0.87959   0.00000  Uiso   1.00
H1352  H     0.79762   0.27620   0.55755   0.00000  Uiso   1.00
H1353  H     0.83319   0.31267   0.62787   0.00000  Uiso   1.00
H1354  H     0.83359   0.25612   0.62881   0.00000  Uiso   1.00
H1355  H     0.77982   0.25272   0.68504   0.00000  Uiso   1.00
H1356  H     0.75808   0.30158   0.66870   0.00000  Uiso   1.00
H1357  H     0.72574   0.06818   0.60549   0.00000  Uiso   1.00
H1358  H     0.70980   0.02399   0.64106   0.00000  Uiso   1.00
H1359  H     0.68763   0.07806   0.64587   0.00000  Uiso   1.00
H1360  H     0.74084   0.06267   0.70952   0.00000  Uiso   1.00
H1361  H     0.75602   0.10736   0.67356   0.00000  Uiso   1.00
H1362  H     0.89781   0.14924   0.62073   0.00000  Uiso   1.00
H1363  H     0.81644   0.06611   0.65375   0.00000  Uiso   1.00
H1364  H     0.78627   0.02590   0.64214   0.00000  Uiso   1.00
H1365  H     0.89755   0.23844   0.90368   0.00000  Uiso   1.00
H1366  H     0.90371   0.29551   0.91888   0.00000  Uiso   1.00
H1367  H     0.86169   0.26441   0.93950   0.00000  Uiso   1.00
H1368  H     0.83633   0.31441   0.87523   0.00000  Uiso   1.00
H1369  H     0.82487   0.26064   0.86441   0.00000  Uiso   1.00
H1370  H     0.88649   0.25137   0.81473   0.00000  Uiso   1.00
H1371  H     0.90778   0.29903   0.83288   0.00000  Uiso   1.00
H1372  H     0.73061   0.19349   0.53307   0.00000  Uiso   1.00
H1373  H     0.93533   0.13666   0.96698   0.00000  Uiso   1.00
H1374  H     0.96761   0.19978   0.90965   0.00000  Uiso   1.00
H1375  H     0.99934   0.20186   0.86187   0.00000  Uiso   1.00
H1376  H     0.97206   0.15247   0.87371   0.00000  Uiso   1.00
N1377  N     0.83333   0.28573   0.75000   0.00000  Uiso   1.00
N1378  N     0.83333   0.04760   0.75000   0.00000  Uiso   1.00
N1379  N     0.71991   0.06033   0.79816   0.00000  Uiso   1.00
N1380  N     0.93552   0.27665   0.69725   0.00000  Uiso   1.00
N1381  N     0.94781   0.05326   0.70640   0.00000  Uiso   1.00
N1382  N     0.71876   0.28605   0.74719   0.00000  Uiso   1.00
O1383  O     0.77226   0.20487   0.74999   0.00000  Uiso   1.00
O1384  O     0.89441   0.12846   0.75000   0.00000  Uiso   1.00
O1385  O     0.89441   0.20487   0.75000   0.00000  Uiso   1.00
O1386  O     0.77226   0.12846   0.74999   0.00000  Uiso   1.00
O1387  O     0.83333   0.20489   0.68392   0.00000  Uiso   1.00
O1388  O     0.83334   0.12844   0.81607   0.00000  Uiso   1.00
O1389  O     0.83334   0.20489   0.81607   0.00000  Uiso   1.00
O1390  O     0.83333   0.12844   0.68392   0.00000  Uiso   1.00
Zn1391 Zn    0.83333   0.21771   0.75000   0.00000  Uiso   1.00
Zn1392 Zn    0.83333   0.11563   0.75000   0.00000  Uiso   1.00
C1393  C     0.08677   0.50051   0.75199   0.00000  Uiso   1.00
C1394  C     0.04145   0.50191   0.75144   0.00000  Uiso   1.00
C1395  C     0.18628   0.35669   0.78633   0.00000  Uiso   1.00
C1396  C     0.14708   0.64290   0.71404   0.00000  Uiso   1.00
C1397  C     0.14721   0.35728   0.71362   0.00000  Uiso   1.00
C1398  C     0.18634   0.64235   0.78582   0.00000  Uiso   1.00
C1399  C     0.16623   0.49989   0.66400   0.00000  Uiso   1.00
C1400  C     0.16706   0.49991   0.83604   0.00000  Uiso   1.00
C1401  C     0.20283   0.48681   0.90984   0.00000  Uiso   1.00
C1402  C     0.12918   0.50754   0.59022   0.00000  Uiso   1.00
C1403  C     0.16671   0.49947   0.88365   0.00000  Uiso   1.00
C1404  C     0.24543   0.49982   0.74396   0.00000  Uiso   1.00
C1405  C     0.16632   0.49918   0.61644   0.00000  Uiso   1.00
C1406  C     0.13012   0.51149   0.90232   0.00000  Uiso   1.00
C1407  C     0.20347   0.48933   0.59788   0.00000  Uiso   1.00
C1408  C     0.12872   0.51037   0.94923   0.00000  Uiso   1.00
C1409  C     0.20440   0.48870   0.55089   0.00000  Uiso   1.00
C1410  C     0.16607   0.49854   0.97650   0.00000  Uiso   1.00
C1411  C     0.16651   0.49830   0.52357   0.00000  Uiso   1.00
C1412  C     0.20321   0.48736   0.95655   0.00000  Uiso   1.00
C1413  C     0.12903   0.50800   0.54350   0.00000  Uiso   1.00
C1414  C     0.09152   0.52111   0.96963   0.00000  Uiso   1.00
C1415  C     0.09216   0.51899   0.51686   0.00000  Uiso   1.00
C1416  C     0.24185   0.47904   0.53054   0.00000  Uiso   1.00
C1417  C     0.05130   0.53629   0.94269   0.00000  Uiso   1.00
C1418  C     0.02715   0.49769   0.92012   0.00000  Uiso   1.00
C1419  C     0.32253   0.51410   0.88948   0.00000  Uiso   1.00
C1420  C     0.28364   0.47064   0.55789   0.00000  Uiso   1.00
C1421  C     0.30276   0.51376   0.57642   0.00000  Uiso   1.00
C1422  C     0.00714   0.50510   0.61073   0.00000  Uiso   1.00
C1423  C     0.03861   0.42394   0.77867   0.00000  Uiso   1.00
C1424  C     0.28672   0.57896   0.71156   0.00000  Uiso   1.00
C1425  C     0.29464   0.41930   0.72085   0.00000  Uiso   1.00
C1426  C     0.24041   0.47768   0.98322   0.00000  Uiso   1.00
C1427  C     0.03765   0.58478   0.74390   0.00000  Uiso   1.00
C1428  C     0.20707   0.37956   0.82922   0.00000  Uiso   1.00
C1429  C     0.24848   0.40275   0.82307   0.00000  Uiso   1.00
C1430  C     0.28373   0.39087   0.85976   0.00000  Uiso   1.00
C1431  C     0.12266   0.61886   0.67503   0.00000  Uiso   1.00
C1432  C     0.14543   0.61767   0.63041   0.00000  Uiso   1.00
C1433  C     0.11415   0.61663   0.58807   0.00000  Uiso   1.00
C1434  C     0.12676   0.38087   0.67075   0.00000  Uiso   1.00
C1435  C     0.08500   0.40482   0.67633   0.00000  Uiso   1.00
C1436  C     0.04998   0.39290   0.63981   0.00000  Uiso   1.00
C1437  C     0.02008   0.46199   0.75445   0.00000  Uiso   1.00
C1438  C     0.20989   0.61749   0.82505   0.00000  Uiso   1.00
C1439  C     0.18517   0.61607   0.86821   0.00000  Uiso   1.00
C1440  C     0.21385   0.60273   0.91016   0.00000  Uiso   1.00
C1441  C     0.30923   0.53989   0.72947   0.00000  Uiso   1.00
C1442  C     0.31181   0.46039   0.73836   0.00000  Uiso   1.00
C1443  C     0.01883   0.54156   0.74028   0.00000  Uiso   1.00
C1444  C     0.28881   0.49974   0.73405   0.00000  Uiso   1.00
H1445  H     0.23088   0.47808   0.89375   0.00000  Uiso   1.00
H1446  H     0.04754   0.47781   0.89934   0.00000  Uiso   1.00
H1447  H     0.01630   0.47600   0.94689   0.00000  Uiso   1.00
H1448  H     0.03047   0.55335   0.96543   0.00000  Uiso   1.00
H1449  H     0.05840   0.56121   0.91707   0.00000  Uiso   1.00
H1450  H     0.33039   0.48861   0.64139   0.00000  Uiso   1.00
H1451  H     0.03060   0.48402   0.59539   0.00000  Uiso   1.00
H1452  H     0.02192   0.53669   0.62130   0.00000  Uiso   1.00
H1453  H     0.31286   0.53339   0.54766   0.00000  Uiso   1.00
H1454  H     0.27938   0.53367   0.59332   0.00000  Uiso   1.00
H1455  H     0.27981   0.44686   0.58572   0.00000  Uiso   1.00
H1456  H     0.10081   0.51442   0.60649   0.00000  Uiso   1.00
H1457  H     0.30624   0.45481   0.53628   0.00000  Uiso   1.00
H1458  H     0.27468   0.40038   0.89390   0.00000  Uiso   1.00
H1459  H     0.29083   0.35511   0.85934   0.00000  Uiso   1.00
H1460  H     0.31257   0.40866   0.85314   0.00000  Uiso   1.00
H1461  H     0.25928   0.39329   0.79005   0.00000  Uiso   1.00
H1462  H     0.24374   0.43868   0.82507   0.00000  Uiso   1.00
H1463  H     0.18413   0.39879   0.84634   0.00000  Uiso   1.00
H1464  H     0.21495   0.35760   0.85787   0.00000  Uiso   1.00
H1465  H     0.09039   0.59099   0.59148   0.00000  Uiso   1.00
H1466  H     0.09756   0.64868   0.58283   0.00000  Uiso   1.00
H1467  H     0.10312   0.52098   0.87959   0.00000  Uiso   1.00
H1468  H     0.13095   0.60953   0.55755   0.00000  Uiso   1.00
H1469  H     0.16653   0.64601   0.62787   0.00000  Uiso   1.00
H1470  H     0.16692   0.58945   0.62881   0.00000  Uiso   1.00
H1471  H     0.11315   0.58605   0.68504   0.00000  Uiso   1.00
H1472  H     0.09141   0.63491   0.66870   0.00000  Uiso   1.00
H1473  H     0.05907   0.40151   0.60549   0.00000  Uiso   1.00
H1474  H     0.04314   0.35732   0.64106   0.00000  Uiso   1.00
H1475  H     0.02096   0.41139   0.64587   0.00000  Uiso   1.00
H1476  H     0.07418   0.39600   0.70952   0.00000  Uiso   1.00
H1477  H     0.08936   0.44069   0.67356   0.00000  Uiso   1.00
H1478  H     0.23114   0.48257   0.62073   0.00000  Uiso   1.00
H1479  H     0.14977   0.39944   0.65375   0.00000  Uiso   1.00
H1480  H     0.11960   0.35923   0.64214   0.00000  Uiso   1.00
H1481  H     0.23088   0.57178   0.90368   0.00000  Uiso   1.00
H1482  H     0.23705   0.62885   0.91888   0.00000  Uiso   1.00
H1483  H     0.19502   0.59774   0.93950   0.00000  Uiso   1.00
H1484  H     0.16967   0.64774   0.87523   0.00000  Uiso   1.00
H1485  H     0.15820   0.59397   0.86441   0.00000  Uiso   1.00
H1486  H     0.21982   0.58471   0.81473   0.00000  Uiso   1.00
H1487  H     0.24111   0.63237   0.83288   0.00000  Uiso   1.00
H1488  H     0.06395   0.52682   0.53307   0.00000  Uiso   1.00
H1489  H     0.26866   0.46999   0.96698   0.00000  Uiso   1.00
H1490  H     0.30094   0.53312   0.90965   0.00000  Uiso   1.00
H1491  H     0.33267   0.53520   0.86187   0.00000  Uiso   1.00
H1492  H     0.30539   0.48580   0.87371   0.00000  Uiso   1.00
N1493  N     0.16667   0.61907   0.75000   0.00000  Uiso   1.00
N1494  N     0.16667   0.38093   0.75000   0.00000  Uiso   1.00
N1495  N     0.05324   0.39366   0.79816   0.00000  Uiso   1.00
N1496  N     0.26886   0.60998   0.69725   0.00000  Uiso   1.00
N1497  N     0.28114   0.38659   0.70640   0.00000  Uiso   1.00
N1498  N     0.05210   0.61939   0.74719   0.00000  Uiso   1.00
O1499  O     0.10559   0.53821   0.74999   0.00000  Uiso   1.00
O1500  O     0.22774   0.46179   0.75000   0.00000  Uiso   1.00
O1501  O     0.22774   0.53821   0.75000   0.00000  Uiso   1.00
O1502  O     0.10559   0.46179   0.74999   0.00000  Uiso   1.00
O1503  O     0.16666   0.53823   0.68392   0.00000  Uiso   1.00
O1504  O     0.16667   0.46177   0.81607   0.00000  Uiso   1.00
O1505  O     0.16667   0.53823   0.81607   0.00000  Uiso   1.00
O1506  O     0.16666   0.46177   0.68392   0.00000  Uiso   1.00
Zn1507 Zn    0.16667   0.55104   0.75000   0.00000  Uiso   1.00
Zn1508 Zn    0.16667   0.44896   0.75000   0.00000  Uiso   1.00
C1509  C     0.42010   0.50051   0.75199   0.00000  Uiso   1.00
C1510  C     0.37479   0.50191   0.75144   0.00000  Uiso   1.00
C1511  C     0.51961   0.35669   0.78633   0.00000  Uiso   1.00
C1512  C     0.48042   0.64290   0.71404   0.00000  Uiso   1.00
C1513  C     0.48054   0.35728   0.71362   0.00000  Uiso   1.00
C1514  C     0.51967   0.64235   0.78582   0.00000  Uiso   1.00
C1515  C     0.49957   0.49989   0.66400   0.00000  Uiso   1.00
C1516  C     0.50039   0.49991   0.83604   0.00000  Uiso   1.00
C1517  C     0.53617   0.48681   0.90984   0.00000  Uiso   1.00
C1518  C     0.46251   0.50754   0.59022   0.00000  Uiso   1.00
C1519  C     0.50004   0.49947   0.88365   0.00000  Uiso   1.00
C1520  C     0.57876   0.49982   0.74396   0.00000  Uiso   1.00
C1521  C     0.49966   0.49918   0.61644   0.00000  Uiso   1.00
C1522  C     0.46345   0.51149   0.90232   0.00000  Uiso   1.00
C1523  C     0.53680   0.48933   0.59788   0.00000  Uiso   1.00
C1524  C     0.46205   0.51037   0.94923   0.00000  Uiso   1.00
C1525  C     0.53773   0.48870   0.55089   0.00000  Uiso   1.00
C1526  C     0.49940   0.49854   0.97650   0.00000  Uiso   1.00
C1527  C     0.49985   0.49830   0.52357   0.00000  Uiso   1.00
C1528  C     0.53654   0.48736   0.95655   0.00000  Uiso   1.00
C1529  C     0.46236   0.50800   0.54350   0.00000  Uiso   1.00
C1530  C     0.42486   0.52111   0.96963   0.00000  Uiso   1.00
C1531  C     0.42550   0.51899   0.51686   0.00000  Uiso   1.00
C1532  C     0.57519   0.47904   0.53054   0.00000  Uiso   1.00
C1533  C     0.38463   0.53629   0.94269   0.00000  Uiso   1.00
C1534  C     0.36048   0.49769   0.92012   0.00000  Uiso   1.00
C1535  C     0.65587   0.51410   0.88948   0.00000  Uiso   1.00
C1536  C     0.61697   0.47064   0.55789   0.00000  Uiso   1.00
C1537  C     0.63610   0.51376   0.57642   0.00000  Uiso   1.00
C1538  C     0.34047   0.50510   0.61073   0.00000  Uiso   1.00
C1539  C     0.37194   0.42394   0.77867   0.00000  Uiso   1.00
C1540  C     0.62005   0.57896   0.71156   0.00000  Uiso   1.00
C1541  C     0.62797   0.41930   0.72085   0.00000  Uiso   1.00
C1542  C     0.57375   0.47768   0.98322   0.00000  Uiso   1.00
C1543  C     0.37099   0.58478   0.74390   0.00000  Uiso   1.00
C1544  C     0.54040   0.37956   0.82922   0.00000  Uiso   1.00
C1545  C     0.58182   0.40275   0.82307   0.00000  Uiso   1.00
C1546  C     0.61707   0.39087   0.85976   0.00000  Uiso   1.00
C1547  C     0.45599   0.61886   0.67503   0.00000  Uiso   1.00
C1548  C     0.47876   0.61767   0.63041   0.00000  Uiso   1.00
C1549  C     0.44748   0.61663   0.58807   0.00000  Uiso   1.00
C1550  C     0.46009   0.38087   0.67075   0.00000  Uiso   1.00
C1551  C     0.41834   0.40482   0.67633   0.00000  Uiso   1.00
C1552  C     0.38332   0.39290   0.63981   0.00000  Uiso   1.00
C1553  C     0.35341   0.46199   0.75445   0.00000  Uiso   1.00
C1554  C     0.54322   0.61749   0.82505   0.00000  Uiso   1.00
C1555  C     0.51850   0.61607   0.86821   0.00000  Uiso   1.00
C1556  C     0.54718   0.60273   0.91016   0.00000  Uiso   1.00
C1557  C     0.64256   0.53989   0.72947   0.00000  Uiso   1.00
C1558  C     0.64514   0.46039   0.73836   0.00000  Uiso   1.00
C1559  C     0.35217   0.54156   0.74028   0.00000  Uiso   1.00
C1560  C     0.62214   0.49974   0.73405   0.00000  Uiso   1.00
H1561  H     0.56421   0.47808   0.89375   0.00000  Uiso   1.00
H1562  H     0.38088   0.47781   0.89934   0.00000  Uiso   1.00
H1563  H     0.34963   0.47600   0.94689   0.00000  Uiso   1.00
H1564  H     0.36381   0.55335   0.96543   0.00000  Uiso   1.00
H1565  H     0.39174   0.56121   0.91707   0.00000  Uiso   1.00
H1566  H     0.66372   0.48861   0.64139   0.00000  Uiso   1.00
H1567  H     0.36393   0.48402   0.59539   0.00000  Uiso   1.00
H1568  H     0.35526   0.53669   0.62130   0.00000  Uiso   1.00
H1569  H     0.64619   0.53339   0.54766   0.00000  Uiso   1.00
H1570  H     0.61271   0.53367   0.59332   0.00000  Uiso   1.00
H1571  H     0.61315   0.44686   0.58572   0.00000  Uiso   1.00
H1572  H     0.43414   0.51442   0.60649   0.00000  Uiso   1.00
H1573  H     0.63957   0.45481   0.53628   0.00000  Uiso   1.00
H1574  H     0.60802   0.40038   0.89390   0.00000  Uiso   1.00
H1575  H     0.62417   0.35511   0.85934   0.00000  Uiso   1.00
H1576  H     0.64590   0.40866   0.85314   0.00000  Uiso   1.00
H1577  H     0.59261   0.39329   0.79005   0.00000  Uiso   1.00
H1578  H     0.57708   0.43868   0.82507   0.00000  Uiso   1.00
H1579  H     0.51746   0.39879   0.84634   0.00000  Uiso   1.00
H1580  H     0.54829   0.35760   0.85787   0.00000  Uiso   1.00
H1581  H     0.42372   0.59099   0.59148   0.00000  Uiso   1.00
H1582  H     0.43090   0.64868   0.58283   0.00000  Uiso   1.00
H1583  H     0.43646   0.52098   0.87959   0.00000  Uiso   1.00
H1584  H     0.46429   0.60953   0.55755   0.00000  Uiso   1.00
H1585  H     0.49986   0.64601   0.62787   0.00000  Uiso   1.00
H1586  H     0.50025   0.58945   0.62881   0.00000  Uiso   1.00
H1587  H     0.44648   0.58605   0.68504   0.00000  Uiso   1.00
H1588  H     0.42474   0.63491   0.66870   0.00000  Uiso   1.00
H1589  H     0.39240   0.40151   0.60549   0.00000  Uiso   1.00
H1590  H     0.37647   0.35732   0.64106   0.00000  Uiso   1.00
H1591  H     0.35430   0.41139   0.64587   0.00000  Uiso   1.00
H1592  H     0.40751   0.39600   0.70952   0.00000  Uiso   1.00
H1593  H     0.42269   0.44069   0.67356   0.00000  Uiso   1.00
H1594  H     0.56447   0.48257   0.62073   0.00000  Uiso   1.00
H1595  H     0.48310   0.39944   0.65375   0.00000  Uiso   1.00
H1596  H     0.45294   0.35923   0.64214   0.00000  Uiso   1.00
H1597  H     0.56422   0.57178   0.90368   0.00000  Uiso   1.00
H1598  H     0.57038   0.62885   0.91888   0.00000  Uiso   1.00
H1599  H     0.52836   0.59774   0.93950   0.00000  Uiso   1.00
H1600  H     0.50300   0.64774   0.87523   0.00000  Uiso   1.00
H1601  H     0.49153   0.59397   0.86441   0.00000  Uiso   1.00
H1602  H     0.55316   0.58471   0.81473   0.00000  Uiso   1.00
H1603  H     0.57444   0.63237   0.83288   0.00000  Uiso   1.00
H1604  H     0.39728   0.52682   0.53307   0.00000  Uiso   1.00
H1605  H     0.60200   0.46999   0.96698   0.00000  Uiso   1.00
H1606  H     0.63428   0.53312   0.90965   0.00000  Uiso   1.00
H1607  H     0.66600   0.53520   0.86187   0.00000  Uiso   1.00
H1608  H     0.63872   0.48580   0.87371   0.00000  Uiso   1.00
N1609  N     0.50000   0.61907   0.75000   0.00000  Uiso   1.00
N1610  N     0.50000   0.38093   0.75000   0.00000  Uiso   1.00
N1611  N     0.38658   0.39366   0.79816   0.00000  Uiso   1.00
N1612  N     0.60219   0.60998   0.69725   0.00000  Uiso   1.00
N1613  N     0.61448   0.38659   0.70640   0.00000  Uiso   1.00
N1614  N     0.38543   0.61939   0.74719   0.00000  Uiso   1.00
O1615  O     0.43892   0.53821   0.74999   0.00000  Uiso   1.00
O1616  O     0.56108   0.46179   0.75000   0.00000  Uiso   1.00
O1617  O     0.56108   0.53821   0.75000   0.00000  Uiso   1.00
O1618  O     0.43892   0.46179   0.74999   0.00000  Uiso   1.00
O1619  O     0.49999   0.53823   0.68392   0.00000  Uiso   1.00
O1620  O     0.50001   0.46177   0.81607   0.00000  Uiso   1.00
O1621  O     0.50001   0.53823   0.81607   0.00000  Uiso   1.00
O1622  O     0.49999   0.46177   0.68392   0.00000  Uiso   1.00
Zn1623 Zn    0.50000   0.55104   0.75000   0.00000  Uiso   1.00
Zn1624 Zn    0.50000   0.44896   0.75000   0.00000  Uiso   1.00
C1625  C     0.75343   0.50051   0.75199   0.00000  Uiso   1.00
C1626  C     0.70812   0.50191   0.75144   0.00000  Uiso   1.00
C1627  C     0.85294   0.35669   0.78633   0.00000  Uiso   1.00
C1628  C     0.81375   0.64290   0.71404   0.00000  Uiso   1.00
C1629  C     0.81387   0.35728   0.71362   0.00000  Uiso   1.00
C1630  C     0.85301   0.64235   0.78582   0.00000  Uiso   1.00
C1631  C     0.83290   0.49989   0.66400   0.00000  Uiso   1.00
C1632  C     0.83373   0.49991   0.83604   0.00000  Uiso   1.00
C1633  C     0.86950   0.48681   0.90984   0.00000  Uiso   1.00
C1634  C     0.79585   0.50754   0.59022   0.00000  Uiso   1.00
C1635  C     0.83337   0.49947   0.88365   0.00000  Uiso   1.00
C1636  C     0.91209   0.49982   0.74396   0.00000  Uiso   1.00
C1637  C     0.83299   0.49918   0.61644   0.00000  Uiso   1.00
C1638  C     0.79678   0.51149   0.90232   0.00000  Uiso   1.00
C1639  C     0.87014   0.48933   0.59788   0.00000  Uiso   1.00
C1640  C     0.79538   0.51037   0.94923   0.00000  Uiso   1.00
C1641  C     0.87107   0.48870   0.55089   0.00000  Uiso   1.00
C1642  C     0.83273   0.49854   0.97650   0.00000  Uiso   1.00
C1643  C     0.83318   0.49830   0.52357   0.00000  Uiso   1.00
C1644  C     0.86987   0.48736   0.95655   0.00000  Uiso   1.00
C1645  C     0.79570   0.50800   0.54350   0.00000  Uiso   1.00
C1646  C     0.75819   0.52111   0.96963   0.00000  Uiso   1.00
C1647  C     0.75883   0.51899   0.51686   0.00000  Uiso   1.00
C1648  C     0.90852   0.47904   0.53054   0.00000  Uiso   1.00
C1649  C     0.71797   0.53629   0.94269   0.00000  Uiso   1.00
C1650  C     0.69381   0.49769   0.92012   0.00000  Uiso   1.00
C1651  C     0.98920   0.51410   0.88948   0.00000  Uiso   1.00
C1652  C     0.95031   0.47064   0.55789   0.00000  Uiso   1.00
C1653  C     0.96943   0.51376   0.57642   0.00000  Uiso   1.00
C1654  C     0.67381   0.50510   0.61073   0.00000  Uiso   1.00
C1655  C     0.70527   0.42394   0.77867   0.00000  Uiso   1.00
C1656  C     0.95339   0.57896   0.71156   0.00000  Uiso   1.00
C1657  C     0.96131   0.41930   0.72085   0.00000  Uiso   1.00
C1658  C     0.90708   0.47768   0.98322   0.00000  Uiso   1.00
C1659  C     0.70432   0.58478   0.74390   0.00000  Uiso   1.00
C1660  C     0.87374   0.37956   0.82922   0.00000  Uiso   1.00
C1661  C     0.91515   0.40275   0.82307   0.00000  Uiso   1.00
C1662  C     0.95040   0.39087   0.85976   0.00000  Uiso   1.00
C1663  C     0.78933   0.61886   0.67503   0.00000  Uiso   1.00
C1664  C     0.81210   0.61767   0.63041   0.00000  Uiso   1.00
C1665  C     0.78081   0.61663   0.58807   0.00000  Uiso   1.00
C1666  C     0.79342   0.38087   0.67075   0.00000  Uiso   1.00
C1667  C     0.75167   0.40482   0.67633   0.00000  Uiso   1.00
C1668  C     0.71665   0.39290   0.63981   0.00000  Uiso   1.00
C1669  C     0.68675   0.46199   0.75445   0.00000  Uiso   1.00
C1670  C     0.87655   0.61749   0.82505   0.00000  Uiso   1.00
C1671  C     0.85184   0.61607   0.86821   0.00000  Uiso   1.00
C1672  C     0.88052   0.60273   0.91016   0.00000  Uiso   1.00
C1673  C     0.97589   0.53989   0.72947   0.00000  Uiso   1.00
C1674  C     0.97847   0.46039   0.73836   0.00000  Uiso   1.00
C1675  C     0.68550   0.54156   0.74028   0.00000  Uiso   1.00
C1676  C     0.95548   0.49974   0.73405   0.00000  Uiso   1.00
H1677  H     0.89754   0.47808   0.89375   0.00000  Uiso   1.00
H1678  H     0.71421   0.47781   0.89934   0.00000  Uiso   1.00
H1679  H     0.68297   0.47600   0.94689   0.00000  Uiso   1.00
H1680  H     0.69714   0.55335   0.96543   0.00000  Uiso   1.00
H1681  H     0.72507   0.56121   0.91707   0.00000  Uiso   1.00
H1682  H     0.99705   0.48861   0.64139   0.00000  Uiso   1.00
H1683  H     0.69727   0.48402   0.59539   0.00000  Uiso   1.00
H1684  H     0.68859   0.53669   0.62130   0.00000  Uiso   1.00
H1685  H     0.97952   0.53339   0.54766   0.00000  Uiso   1.00
H1686  H     0.94604   0.53367   0.59332   0.00000  Uiso   1.00
H1687  H     0.94648   0.44686   0.58572   0.00000  Uiso   1.00
H1688  H     0.76748   0.51442   0.60649   0.00000  Uiso   1.00
H1689  H     0.97290   0.45481   0.53628   0.00000  Uiso   1.00
H1690  H     0.94135   0.40038   0.89390   0.00000  Uiso   1.00
H1691  H     0.95750   0.35511   0.85934   0.00000  Uiso   1.00
H1692  H     0.97924   0.40866   0.85314   0.00000  Uiso   1.00
H1693  H     0.92595   0.39329   0.79005   0.00000  Uiso   1.00
H1694  H     0.91041   0.43868   0.82507   0.00000  Uiso   1.00
H1695  H     0.85080   0.39879   0.84634   0.00000  Uiso   1.00
H1696  H     0.88162   0.35760   0.85787   0.00000  Uiso   1.00
H1697  H     0.75705   0.59099   0.59148   0.00000  Uiso   1.00
H1698  H     0.76423   0.64868   0.58283   0.00000  Uiso   1.00
H1699  H     0.76979   0.52098   0.87959   0.00000  Uiso   1.00
H1700  H     0.79762   0.60953   0.55755   0.00000  Uiso   1.00
H1701  H     0.83319   0.64601   0.62787   0.00000  Uiso   1.00
H1702  H     0.83359   0.58945   0.62881   0.00000  Uiso   1.00
H1703  H     0.77982   0.58605   0.68504   0.00000  Uiso   1.00
H1704  H     0.75808   0.63491   0.66870   0.00000  Uiso   1.00
H1705  H     0.72574   0.40151   0.60549   0.00000  Uiso   1.00
H1706  H     0.70980   0.35732   0.64106   0.00000  Uiso   1.00
H1707  H     0.68763   0.41139   0.64587   0.00000  Uiso   1.00
H1708  H     0.74084   0.39600   0.70952   0.00000  Uiso   1.00
H1709  H     0.75602   0.44069   0.67356   0.00000  Uiso   1.00
H1710  H     0.89781   0.48257   0.62073   0.00000  Uiso   1.00
H1711  H     0.81644   0.39944   0.65375   0.00000  Uiso   1.00
H1712  H     0.78627   0.35923   0.64214   0.00000  Uiso   1.00
H1713  H     0.89755   0.57178   0.90368   0.00000  Uiso   1.00
H1714  H     0.90371   0.62885   0.91888   0.00000  Uiso   1.00
H1715  H     0.86169   0.59774   0.93950   0.00000  Uiso   1.00
H1716  H     0.83633   0.64774   0.87523   0.00000  Uiso   1.00
H1717  H     0.82487   0.59397   0.86441   0.00000  Uiso   1.00
H1718  H     0.88649   0.58471   0.81473   0.00000  Uiso   1.00
H1719  H     0.90778   0.63237   0.83288   0.00000  Uiso   1.00
H1720  H     0.73061   0.52682   0.53307   0.00000  Uiso   1.00
H1721  H     0.93533   0.46999   0.96698   0.00000  Uiso   1.00
H1722  H     0.96761   0.53312   0.90965   0.00000  Uiso   1.00
H1723  H     0.99934   0.53520   0.86187   0.00000  Uiso   1.00
H1724  H     0.97206   0.48580   0.87371   0.00000  Uiso   1.00
N1725  N     0.83333   0.61907   0.75000   0.00000  Uiso   1.00
N1726  N     0.83333   0.38093   0.75000   0.00000  Uiso   1.00
N1727  N     0.71991   0.39366   0.79816   0.00000  Uiso   1.00
N1728  N     0.93552   0.60998   0.69725   0.00000  Uiso   1.00
N1729  N     0.94781   0.38659   0.70640   0.00000  Uiso   1.00
N1730  N     0.71876   0.61939   0.74719   0.00000  Uiso   1.00
O1731  O     0.77226   0.53821   0.74999   0.00000  Uiso   1.00
O1732  O     0.89441   0.46179   0.75000   0.00000  Uiso   1.00
O1733  O     0.89441   0.53821   0.75000   0.00000  Uiso   1.00
O1734  O     0.77226   0.46179   0.74999   0.00000  Uiso   1.00
O1735  O     0.83333   0.53823   0.68392   0.00000  Uiso   1.00
O1736  O     0.83334   0.46177   0.81607   0.00000  Uiso   1.00
O1737  O     0.83334   0.53823   0.81607   0.00000  Uiso   1.00
O1738  O     0.83333   0.46177   0.68392   0.00000  Uiso   1.00
Zn1739 Zn    0.83333   0.55104   0.75000   0.00000  Uiso   1.00
Zn1740 Zn    0.83333   0.44896   0.75000   0.00000  Uiso   1.00
C1741  C     0.08677   0.83384   0.75199   0.00000  Uiso   1.00
C1742  C     0.04145   0.83524   0.75144   0.00000  Uiso   1.00
C1743  C     0.18628   0.69002   0.78633   0.00000  Uiso   1.00
C1744  C     0.14708   0.97624   0.71404   0.00000  Uiso   1.00
C1745  C     0.14721   0.69061   0.71362   0.00000  Uiso   1.00
C1746  C     0.18634   0.97569   0.78582   0.00000  Uiso   1.00
C1747  C     0.16623   0.83323   0.66400   0.00000  Uiso   1.00
C1748  C     0.16706   0.83324   0.83604   0.00000  Uiso   1.00
C1749  C     0.20283   0.82015   0.90984   0.00000  Uiso   1.00
C1750  C     0.12918   0.84087   0.59022   0.00000  Uiso   1.00
C1751  C     0.16671   0.83281   0.88365   0.00000  Uiso   1.00
C1752  C     0.24543   0.83316   0.74396   0.00000  Uiso   1.00
C1753  C     0.16632   0.83252   0.61644   0.00000  Uiso   1.00
C1754  C     0.13012   0.84482   0.90232   0.00000  Uiso   1.00
C1755  C     0.20347   0.82267   0.59788   0.00000  Uiso   1.00
C1756  C     0.12872   0.84371   0.94923   0.00000  Uiso   1.00
C1757  C     0.20440   0.82203   0.55089   0.00000  Uiso   1.00
C1758  C     0.16607   0.83187   0.97650   0.00000  Uiso   1.00
C1759  C     0.16651   0.83163   0.52357   0.00000  Uiso   1.00
C1760  C     0.20321   0.82069   0.95655   0.00000  Uiso   1.00
C1761  C     0.12903   0.84133   0.54350   0.00000  Uiso   1.00
C1762  C     0.09152   0.85445   0.96963   0.00000  Uiso   1.00
C1763  C     0.09216   0.85232   0.51686   0.00000  Uiso   1.00
C1764  C     0.24185   0.81237   0.53054   0.00000  Uiso   1.00
C1765  C     0.05130   0.86962   0.94269   0.00000  Uiso   1.00
C1766  C     0.02715   0.83103   0.92012   0.00000  Uiso   1.00
C1767  C     0.32253   0.84743   0.88948   0.00000  Uiso   1.00
C1768  C     0.28364   0.80397   0.55789   0.00000  Uiso   1.00
C1769  C     0.30276   0.84710   0.57642   0.00000  Uiso   1.00
C1770  C     0.00714   0.83844   0.61073   0.00000  Uiso   1.00
C1771  C     0.03861   0.75727   0.77867   0.00000  Uiso   1.00
C1772  C     0.28672   0.91229   0.71156   0.00000  Uiso   1.00
C1773  C     0.29464   0.75263   0.72085   0.00000  Uiso   1.00
C1774  C     0.24041   0.81101   0.98322   0.00000  Uiso   1.00
C1775  C     0.03765   0.91811   0.74390   0.00000  Uiso   1.00
C1776  C     0.20707   0.71290   0.82922   0.00000  Uiso   1.00
C1777  C     0.24848   0.73608   0.82307   0.00000  Uiso   1.00
C1778  C     0.28373   0.72421   0.85976   0.00000  Uiso   1.00
C1779  C     0.12266   0.95219   0.67503   0.00000  Uiso   1.00
C1780  C     0.14543   0.95100   0.63041   0.00000  Uiso   1.00
C1781  C     0.11415   0.94997   0.58807   0.00000  Uiso   1.00
C1782  C     0.12676   0.71420   0.67075   0.00000  Uiso   1.00
C1783  C     0.08500   0.73815   0.67633   0.00000  Uiso   1.00
C1784  C     0.04998   0.72624   0.63981   0.00000  Uiso   1.00
C1785  C     0.02008   0.79532   0.75445   0.00000  Uiso   1.00
C1786  C     0.20989   0.95082   0.82505   0.00000  Uiso   1.00
C1787  C     0.18517   0.94941   0.86821   0.00000  Uiso   1.00
C1788  C     0.21385   0.93606   0.91016   0.00000  Uiso   1.00
C1789  C     0.30923   0.87322   0.72947   0.00000  Uiso   1.00
C1790  C     0.31181   0.79372   0.73836   0.00000  Uiso   1.00
C1791  C     0.01883   0.87489   0.74028   0.00000  Uiso   1.00
C1792  C     0.28881   0.83307   0.73405   0.00000  Uiso   1.00
H1793  H     0.23088   0.81141   0.89375   0.00000  Uiso   1.00
H1794  H     0.04754   0.81114   0.89934   0.00000  Uiso   1.00
H1795  H     0.01630   0.80934   0.94689   0.00000  Uiso   1.00
H1796  H     0.03047   0.88668   0.96543   0.00000  Uiso   1.00
H1797  H     0.05840   0.89455   0.91707   0.00000  Uiso   1.00
H1798  H     0.33039   0.82195   0.64139   0.00000  Uiso   1.00
H1799  H     0.03060   0.81735   0.59539   0.00000  Uiso   1.00
H1800  H     0.02192   0.87003   0.62130   0.00000  Uiso   1.00
H1801  H     0.31286   0.86673   0.54766   0.00000  Uiso   1.00
H1802  H     0.27938   0.86700   0.59332   0.00000  Uiso   1.00
H1803  H     0.27981   0.78019   0.58572   0.00000  Uiso   1.00
H1804  H     0.10081   0.84776   0.60649   0.00000  Uiso   1.00
H1805  H     0.30624   0.78815   0.53628   0.00000  Uiso   1.00
H1806  H     0.27468   0.73371   0.89390   0.00000  Uiso   1.00
H1807  H     0.29083   0.68844   0.85934   0.00000  Uiso   1.00
H1808  H     0.31257   0.74200   0.85314   0.00000  Uiso   1.00
H1809  H     0.25928   0.72662   0.79005   0.00000  Uiso   1.00
H1810  H     0.24374   0.77201   0.82507   0.00000  Uiso   1.00
H1811  H     0.18413   0.73212   0.84634   0.00000  Uiso   1.00
H1812  H     0.21495   0.69093   0.85787   0.00000  Uiso   1.00
H1813  H     0.09039   0.92433   0.59148   0.00000  Uiso   1.00
H1814  H     0.09756   0.98201   0.58283   0.00000  Uiso   1.00
H1815  H     0.10312   0.85431   0.87959   0.00000  Uiso   1.00
H1816  H     0.13095   0.94287   0.55755   0.00000  Uiso   1.00
H1817  H     0.16653   0.97934   0.62787   0.00000  Uiso   1.00
H1818  H     0.16692   0.92279   0.62881   0.00000  Uiso   1.00
H1819  H     0.11315   0.91939   0.68504   0.00000  Uiso   1.00
H1820  H     0.09141   0.96824   0.66870   0.00000  Uiso   1.00
H1821  H     0.05907   0.73484   0.60549   0.00000  Uiso   1.00
H1822  H     0.04314   0.69066   0.64106   0.00000  Uiso   1.00
H1823  H     0.02096   0.74472   0.64587   0.00000  Uiso   1.00
H1824  H     0.07418   0.72934   0.70952   0.00000  Uiso   1.00
H1825  H     0.08936   0.77402   0.67356   0.00000  Uiso   1.00
H1826  H     0.23114   0.81590   0.62073   0.00000  Uiso   1.00
H1827  H     0.14977   0.73278   0.65375   0.00000  Uiso   1.00
H1828  H     0.11960   0.69256   0.64214   0.00000  Uiso   1.00
H1829  H     0.23088   0.90511   0.90368   0.00000  Uiso   1.00
H1830  H     0.23705   0.96218   0.91888   0.00000  Uiso   1.00
H1831  H     0.19502   0.93108   0.93950   0.00000  Uiso   1.00
H1832  H     0.16967   0.98107   0.87523   0.00000  Uiso   1.00
H1833  H     0.15820   0.92731   0.86441   0.00000  Uiso   1.00
H1834  H     0.21982   0.91804   0.81473   0.00000  Uiso   1.00
H1835  H     0.24111   0.96570   0.83288   0.00000  Uiso   1.00
H1836  H     0.06395   0.86015   0.53307   0.00000  Uiso   1.00
H1837  H     0.26866   0.80333   0.96698   0.00000  Uiso   1.00
H1838  H     0.30094   0.86645   0.90965   0.00000  Uiso   1.00
H1839  H     0.33267   0.86853   0.86187   0.00000  Uiso   1.00
H1840  H     0.30539   0.81914   0.87371   0.00000  Uiso   1.00
N1841  N     0.16667   0.95240   0.75000   0.00000  Uiso   1.00
N1842  N     0.16667   0.71427   0.75000   0.00000  Uiso   1.00
N1843  N     0.05324   0.72699   0.79816   0.00000  Uiso   1.00
N1844  N     0.26886   0.94331   0.69725   0.00000  Uiso   1.00
N1845  N     0.28114   0.71993   0.70640   0.00000  Uiso   1.00
N1846  N     0.05210   0.95272   0.74719   0.00000  Uiso   1.00
O1847  O     0.10559   0.87154   0.74999   0.00000  Uiso   1.00
O1848  O     0.22774   0.79513   0.75000   0.00000  Uiso   1.00
O1849  O     0.22774   0.87154   0.75000   0.00000  Uiso   1.00
O1850  O     0.10559   0.79513   0.74999   0.00000  Uiso   1.00
O1851  O     0.16666   0.87156   0.68392   0.00000  Uiso   1.00
O1852  O     0.16667   0.79511   0.81607   0.00000  Uiso   1.00
O1853  O     0.16667   0.87156   0.81607   0.00000  Uiso   1.00
O1854  O     0.16666   0.79511   0.68392   0.00000  Uiso   1.00
Zn1855 Zn    0.16667   0.88437   0.75000   0.00000  Uiso   1.00
Zn1856 Zn    0.16667   0.78229   0.75000   0.00000  Uiso   1.00
C1857  C     0.42010   0.83384   0.75199   0.00000  Uiso   1.00
C1858  C     0.37479   0.83524   0.75144   0.00000  Uiso   1.00
C1859  C     0.51961   0.69002   0.78633   0.00000  Uiso   1.00
C1860  C     0.48042   0.97624   0.71404   0.00000  Uiso   1.00
C1861  C     0.48054   0.69061   0.71362   0.00000  Uiso   1.00
C1862  C     0.51967   0.97569   0.78582   0.00000  Uiso   1.00
C1863  C     0.49957   0.83323   0.66400   0.00000  Uiso   1.00
C1864  C     0.50039   0.83324   0.83604   0.00000  Uiso   1.00
C1865  C     0.53617   0.82015   0.90984   0.00000  Uiso   1.00
C1866  C     0.46251   0.84087   0.59022   0.00000  Uiso   1.00
C1867  C     0.50004   0.83281   0.88365   0.00000  Uiso   1.00
C1868  C     0.57876   0.83316   0.74396   0.00000  Uiso   1.00
C1869  C     0.49966   0.83252   0.61644   0.00000  Uiso   1.00
C1870  C     0.46345   0.84482   0.90232   0.00000  Uiso   1.00
C1871  C     0.53680   0.82267   0.59788   0.00000  Uiso   1.00
C1872  C     0.46205   0.84371   0.94923   0.00000  Uiso   1.00
C1873  C     0.53773   0.82203   0.55089   0.00000  Uiso   1.00
C1874  C     0.49940   0.83187   0.97650   0.00000  Uiso   1.00
C1875  C     0.49985   0.83163   0.52357   0.00000  Uiso   1.00
C1876  C     0.53654   0.82069   0.95655   0.00000  Uiso   1.00
C1877  C     0.46236   0.84133   0.54350   0.00000  Uiso   1.00
C1878  C     0.42486   0.85445   0.96963   0.00000  Uiso   1.00
C1879  C     0.42550   0.85232   0.51686   0.00000  Uiso   1.00
C1880  C     0.57519   0.81237   0.53054   0.00000  Uiso   1.00
C1881  C     0.38463   0.86962   0.94269   0.00000  Uiso   1.00
C1882  C     0.36048   0.83103   0.92012   0.00000  Uiso   1.00
C1883  C     0.65587   0.84743   0.88948   0.00000  Uiso   1.00
C1884  C     0.61697   0.80397   0.55789   0.00000  Uiso   1.00
C1885  C     0.63610   0.84710   0.57642   0.00000  Uiso   1.00
C1886  C     0.34047   0.83844   0.61073   0.00000  Uiso   1.00
C1887  C     0.37194   0.75727   0.77867   0.00000  Uiso   1.00
C1888  C     0.62005   0.91229   0.71156   0.00000  Uiso   1.00
C1889  C     0.62797   0.75263   0.72085   0.00000  Uiso   1.00
C1890  C     0.57375   0.81101   0.98322   0.00000  Uiso   1.00
C1891  C     0.37099   0.91811   0.74390   0.00000  Uiso   1.00
C1892  C     0.54040   0.71290   0.82922   0.00000  Uiso   1.00
C1893  C     0.58182   0.73608   0.82307   0.00000  Uiso   1.00
C1894  C     0.61707   0.72421   0.85976   0.00000  Uiso   1.00
C1895  C     0.45599   0.95219   0.67503   0.00000  Uiso   1.00
C1896  C     0.47876   0.95100   0.63041   0.00000  Uiso   1.00
C1897  C     0.44748   0.94997   0.58807   0.00000  Uiso   1.00
C1898  C     0.46009   0.71420   0.67075   0.00000  Uiso   1.00
C1899  C     0.41834   0.73815   0.67633   0.00000  Uiso   1.00
C1900  C     0.38332   0.72624   0.63981   0.00000  Uiso   1.00
C1901  C     0.35341   0.79532   0.75445   0.00000  Uiso   1.00
C1902  C     0.54322   0.95082   0.82505   0.00000  Uiso   1.00
C1903  C     0.51850   0.94941   0.86821   0.00000  Uiso   1.00
C1904  C     0.54718   0.93606   0.91016   0.00000  Uiso   1.00
C1905  C     0.64256   0.87322   0.72947   0.00000  Uiso   1.00
C1906  C     0.64514   0.79372   0.73836   0.00000  Uiso   1.00
C1907  C     0.35217   0.87489   0.74028   0.00000  Uiso   1.00
C1908  C     0.62214   0.83307   0.73405   0.00000  Uiso   1.00
H1909  H     0.56421   0.81141   0.89375   0.00000  Uiso   1.00
H1910  H     0.38088   0.81114   0.89934   0.00000  Uiso   1.00
H1911  H     0.34963   0.80934   0.94689   0.00000  Uiso   1.00
H1912  H     0.36381   0.88668   0.96543   0.00000  Uiso   1.00
H1913  H     0.39174   0.89455   0.91707   0.00000  Uiso   1.00
H1914  H     0.66372   0.82195   0.64139   0.00000  Uiso   1.00
H1915  H     0.36393   0.81735   0.59539   0.00000  Uiso   1.00
H1916  H     0.35526   0.87003   0.62130   0.00000  Uiso   1.00
H1917  H     0.64619   0.86673   0.54766   0.00000  Uiso   1.00
H1918  H     0.61271   0.86700   0.59332   0.00000  Uiso   1.00
H1919  H     0.61315   0.78019   0.58572   0.00000  Uiso   1.00
H1920  H     0.43414   0.84776   0.60649   0.00000  Uiso   1.00
H1921  H     0.63957   0.78815   0.53628   0.00000  Uiso   1.00
H1922  H     0.60802   0.73371   0.89390   0.00000  Uiso   1.00
H1923  H     0.62417   0.68844   0.85934   0.00000  Uiso   1.00
H1924  H     0.64590   0.74200   0.85314   0.00000  Uiso   1.00
H1925  H     0.59261   0.72662   0.79005   0.00000  Uiso   1.00
H1926  H     0.57708   0.77201   0.82507   0.00000  Uiso   1.00
H1927  H     0.51746   0.73212   0.84634   0.00000  Uiso   1.00
H1928  H     0.54829   0.69093   0.85787   0.00000  Uiso   1.00
H1929  H     0.42372   0.92433   0.59148   0.00000  Uiso   1.00
H1930  H     0.43090   0.98201   0.58283   0.00000  Uiso   1.00
H1931  H     0.43646   0.85431   0.87959   0.00000  Uiso   1.00
H1932  H     0.46429   0.94287   0.55755   0.00000  Uiso   1.00
H1933  H     0.49986   0.97934   0.62787   0.00000  Uiso   1.00
H1934  H     0.50025   0.92279   0.62881   0.00000  Uiso   1.00
H1935  H     0.44648   0.91939   0.68504   0.00000  Uiso   1.00
H1936  H     0.42474   0.96824   0.66870   0.00000  Uiso   1.00
H1937  H     0.39240   0.73484   0.60549   0.00000  Uiso   1.00
H1938  H     0.37647   0.69066   0.64106   0.00000  Uiso   1.00
H1939  H     0.35430   0.74472   0.64587   0.00000  Uiso   1.00
H1940  H     0.40751   0.72934   0.70952   0.00000  Uiso   1.00
H1941  H     0.42269   0.77402   0.67356   0.00000  Uiso   1.00
H1942  H     0.56447   0.81590   0.62073   0.00000  Uiso   1.00
H1943  H     0.48310   0.73278   0.65375   0.00000  Uiso   1.00
H1944  H     0.45294   0.69256   0.64214   0.00000  Uiso   1.00
H1945  H     0.56422   0.90511   0.90368   0.00000  Uiso   1.00
H1946  H     0.57038   0.96218   0.91888   0.00000  Uiso   1.00
H1947  H     0.52836   0.93108   0.93950   0.00000  Uiso   1.00
H1948  H     0.50300   0.98107   0.87523   0.00000  Uiso   1.00
H1949  H     0.49153   0.92731   0.86441   0.00000  Uiso   1.00
H1950  H     0.55316   0.91804   0.81473   0.00000  Uiso   1.00
H1951  H     0.57444   0.96570   0.83288   0.00000  Uiso   1.00
H1952  H     0.39728   0.86015   0.53307   0.00000  Uiso   1.00
H1953  H     0.60200   0.80333   0.96698   0.00000  Uiso   1.00
H1954  H     0.63428   0.86645   0.90965   0.00000  Uiso   1.00
H1955  H     0.66600   0.86853   0.86187   0.00000  Uiso   1.00
H1956  H     0.63872   0.81914   0.87371   0.00000  Uiso   1.00
N1957  N     0.50000   0.95240   0.75000   0.00000  Uiso   1.00
N1958  N     0.50000   0.71427   0.75000   0.00000  Uiso   1.00
N1959  N     0.38658   0.72699   0.79816   0.00000  Uiso   1.00
N1960  N     0.60219   0.94331   0.69725   0.00000  Uiso   1.00
N1961  N     0.61448   0.71993   0.70640   0.00000  Uiso   1.00
N1962  N     0.38543   0.95272   0.74719   0.00000  Uiso   1.00
O1963  O     0.43892   0.87154   0.74999   0.00000  Uiso   1.00
O1964  O     0.56108   0.79513   0.75000   0.00000  Uiso   1.00
O1965  O     0.56108   0.87154   0.75000   0.00000  Uiso   1.00
O1966  O     0.43892   0.79513   0.74999   0.00000  Uiso   1.00
O1967  O     0.49999   0.87156   0.68392   0.00000  Uiso   1.00
O1968  O     0.50001   0.79511   0.81607   0.00000  Uiso   1.00
O1969  O     0.50001   0.87156   0.81607   0.00000  Uiso   1.00
O1970  O     0.49999   0.79511   0.68392   0.00000  Uiso   1.00
Zn1971 Zn    0.50000   0.88437   0.75000   0.00000  Uiso   1.00
Zn1972 Zn    0.50000   0.78229   0.75000   0.00000  Uiso   1.00
C1973  C     0.75343   0.83384   0.75199   0.00000  Uiso   1.00
C1974  C     0.70812   0.83524   0.75144   0.00000  Uiso   1.00
C1975  C     0.85294   0.69002   0.78633   0.00000  Uiso   1.00
C1976  C     0.81375   0.97624   0.71404   0.00000  Uiso   1.00
C1977  C     0.81387   0.69061   0.71362   0.00000  Uiso   1.00
C1978  C     0.85301   0.97569   0.78582   0.00000  Uiso   1.00
C1979  C     0.83290   0.83323   0.66400   0.00000  Uiso   1.00
C1980  C     0.83373   0.83324   0.83604   0.00000  Uiso   1.00
C1981  C     0.86950   0.82015   0.90984   0.00000  Uiso   1.00
C1982  C     0.79585   0.84087   0.59022   0.00000  Uiso   1.00
C1983  C     0.83337   0.83281   0.88365   0.00000  Uiso   1.00
C1984  C     0.91209   0.83316   0.74396   0.00000  Uiso   1.00
C1985  C     0.83299   0.83252   0.61644   0.00000  Uiso   1.00
C1986  C     0.79678   0.84482   0.90232   0.00000  Uiso   1.00
C1987  C     0.87014   0.82267   0.59788   0.00000  Uiso   1.00
C1988  C     0.79538   0.84371   0.94923   0.00000  Uiso   1.00
C1989  C     0.87107   0.82203   0.55089   0.00000  Uiso   1.00
C1990  C     0.83273   0.83187   0.97650   0.00000  Uiso   1.00
C1991  C     0.83318   0.83163   0.52357   0.00000  Uiso   1.00
C1992  C     0.86987   0.82069   0.95655   0.00000  Uiso   1.00
C1993  C     0.79570   0.84133   0.54350   0.00000  Uiso   1.00
C1994  C     0.75819   0.85445   0.96963   0.00000  Uiso   1.00
C1995  C     0.75883   0.85232   0.51686   0.00000  Uiso   1.00
C1996  C     0.90852   0.81237   0.53054   0.00000  Uiso   1.00
C1997  C     0.71797   0.86962   0.94269   0.00000  Uiso   1.00
C1998  C     0.69381   0.83103   0.92012   0.00000  Uiso   1.00
C1999  C     0.98920   0.84743   0.88948   0.00000  Uiso   1.00
C2000  C     0.95031   0.80397   0.55789   0.00000  Uiso   1.00
C2001  C     0.96943   0.84710   0.57642   0.00000  Uiso   1.00
C2002  C     0.67381   0.83844   0.61073   0.00000  Uiso   1.00
C2003  C     0.70527   0.75727   0.77867   0.00000  Uiso   1.00
C2004  C     0.95339   0.91229   0.71156   0.00000  Uiso   1.00
C2005  C     0.96131   0.75263   0.72085   0.00000  Uiso   1.00
C2006  C     0.90708   0.81101   0.98322   0.00000  Uiso   1.00
C2007  C     0.70432   0.91811   0.74390   0.00000  Uiso   1.00
C2008  C     0.87374   0.71290   0.82922   0.00000  Uiso   1.00
C2009  C     0.91515   0.73608   0.82307   0.00000  Uiso   1.00
C2010  C     0.95040   0.72421   0.85976   0.00000  Uiso   1.00
C2011  C     0.78933   0.95219   0.67503   0.00000  Uiso   1.00
C2012  C     0.81210   0.95100   0.63041   0.00000  Uiso   1.00
C2013  C     0.78081   0.94997   0.58807   0.00000  Uiso   1.00
C2014  C     0.79342   0.71420   0.67075   0.00000  Uiso   1.00
C2015  C     0.75167   0.73815   0.67633   0.00000  Uiso   1.00
C2016  C     0.71665   0.72624   0.63981   0.00000  Uiso   1.00
C2017  C     0.68675   0.79532   0.75445   0.00000  Uiso   1.00
C2018  C     0.87655   0.95082   0.82505   0.00000  Uiso   1.00
C2019  C     0.85184   0.94941   0.86821   0.00000  Uiso   1.00
C2020  C     0.88052   0.93606   0.91016   0.00000  Uiso   1.00
C2021  C     0.97589   0.87322   0.72947   0.00000  Uiso   1.00
C2022  C     0.97847   0.79372   0.73836   0.00000  Uiso   1.00
C2023  C     0.68550   0.87489   0.74028   0.00000  Uiso   1.00
C2024  C     0.95548   0.83307   0.73405   0.00000  Uiso   1.00
H2025  H     0.89754   0.81141   0.89375   0.00000  Uiso   1.00
H2026  H     0.71421   0.81114   0.89934   0.00000  Uiso   1.00
H2027  H     0.68297   0.80934   0.94689   0.00000  Uiso   1.00
H2028  H     0.69714   0.88668   0.96543   0.00000  Uiso   1.00
H2029  H     0.72507   0.89455   0.91707   0.00000  Uiso   1.00
H2030  H     0.99705   0.82195   0.64139   0.00000  Uiso   1.00
H2031  H     0.69727   0.81735   0.59539   0.00000  Uiso   1.00
H2032  H     0.68859   0.87003   0.62130   0.00000  Uiso   1.00
H2033  H     0.97952   0.86673   0.54766   0.00000  Uiso   1.00
H2034  H     0.94604   0.86700   0.59332   0.00000  Uiso   1.00
H2035  H     0.94648   0.78019   0.58572   0.00000  Uiso   1.00
H2036  H     0.76748   0.84776   0.60649   0.00000  Uiso   1.00
H2037  H     0.97290   0.78815   0.53628   0.00000  Uiso   1.00
H2038  H     0.94135   0.73371   0.89390   0.00000  Uiso   1.00
H2039  H     0.95750   0.68844   0.85934   0.00000  Uiso   1.00
H2040  H     0.97924   0.74200   0.85314   0.00000  Uiso   1.00
H2041  H     0.92595   0.72662   0.79005   0.00000  Uiso   1.00
H2042  H     0.91041   0.77201   0.82507   0.00000  Uiso   1.00
H2043  H     0.85080   0.73212   0.84634   0.00000  Uiso   1.00
H2044  H     0.88162   0.69093   0.85787   0.00000  Uiso   1.00
H2045  H     0.75705   0.92433   0.59148   0.00000  Uiso   1.00
H2046  H     0.76423   0.98201   0.58283   0.00000  Uiso   1.00
H2047  H     0.76979   0.85431   0.87959   0.00000  Uiso   1.00
H2048  H     0.79762   0.94287   0.55755   0.00000  Uiso   1.00
H2049  H     0.83319   0.97934   0.62787   0.00000  Uiso   1.00
H2050  H     0.83359   0.92279   0.62881   0.00000  Uiso   1.00
H2051  H     0.77982   0.91939   0.68504   0.00000  Uiso   1.00
H2052  H     0.75808   0.96824   0.66870   0.00000  Uiso   1.00
H2053  H     0.72574   0.73484   0.60549   0.00000  Uiso   1.00
H2054  H     0.70980   0.69066   0.64106   0.00000  Uiso   1.00
H2055  H     0.68763   0.74472   0.64587   0.00000  Uiso   1.00
H2056  H     0.74084   0.72934   0.70952   0.00000  Uiso   1.00
H2057  H     0.75602   0.77402   0.67356   0.00000  Uiso   1.00
H2058  H     0.89781   0.81590   0.62073   0.00000  Uiso   1.00
H2059  H     0.81644   0.73278   0.65375   0.00000  Uiso   1.00
H2060  H     0.78627   0.69256   0.64214   0.00000  Uiso   1.00
H2061  H     0.89755   0.90511   0.90368   0.00000  Uiso   1.00
H2062  H     0.90371   0.96218   0.91888   0.00000  Uiso   1.00
H2063  H     0.86169   0.93108   0.93950   0.00000  Uiso   1.00
H2064  H     0.83633   0.98107   0.87523   0.00000  Uiso   1.00
H2065  H     0.82487   0.92731   0.86441   0.00000  Uiso   1.00
H2066  H     0.88649   0.91804   0.81473   0.00000  Uiso   1.00
H2067  H     0.90778   0.96570   0.83288   0.00000  Uiso   1.00
H2068  H     0.73061   0.86015   0.53307   0.00000  Uiso   1.00
H2069  H     0.93533   0.80333   0.96698   0.00000  Uiso   1.00
H2070  H     0.96761   0.86645   0.90965   0.00000  Uiso   1.00
H2071  H     0.99934   0.86853   0.86187   0.00000  Uiso   1.00
H2072  H     0.97206   0.81914   0.87371   0.00000  Uiso   1.00
N2073  N     0.83333   0.95240   0.75000   0.00000  Uiso   1.00
N2074  N     0.83333   0.71427   0.75000   0.00000  Uiso   1.00
N2075  N     0.71991   0.72699   0.79816   0.00000  Uiso   1.00
N2076  N     0.93552   0.94331   0.69725   0.00000  Uiso   1.00
N2077  N     0.94781   0.71993   0.70640   0.00000  Uiso   1.00
N2078  N     0.71876   0.95272   0.74719   0.00000  Uiso   1.00
O2079  O     0.77226   0.87154   0.74999   0.00000  Uiso   1.00
O2080  O     0.89441   0.79513   0.75000   0.00000  Uiso   1.00
O2081  O     0.89441   0.87154   0.75000   0.00000  Uiso   1.00
O2082  O     0.77226   0.79513   0.74999   0.00000  Uiso   1.00
O2083  O     0.83333   0.87156   0.68392   0.00000  Uiso   1.00
O2084  O     0.83334   0.79511   0.81607   0.00000  Uiso   1.00
O2085  O     0.83334   0.87156   0.81607   0.00000  Uiso   1.00
O2086  O     0.83333   0.79511   0.68392   0.00000  Uiso   1.00
Zn2087 Zn    0.83333   0.88437   0.75000   0.00000  Uiso   1.00
Zn2088 Zn    0.83333   0.78229   0.75000   0.00000  Uiso   1.00
loop_
_geom_bond_atom_site_label_1
_geom_bond_atom_site_label_2
_geom_bond_distance
_geom_bond_site_symmetry_2
_ccdc_geom_bond_type
C1     C2      1.451   .     S
C1     O110    1.321   .     A
C1     O107    1.308   .     A
C2     C45     1.410   .     A
C2     C51     1.423   .     A
C3     N102    1.398   .     A
C3     C36     1.547   .     S
C3     C702    1.452   1_545 S
C4     C39     1.526   .     S
C4     N101    1.384   .     A
C4     C353    1.453   .     S
C5     C42     1.544   .     S
C5     N102    1.398   .     A
C5     C700    1.453   1_545 S
C6     N101    1.383   .     A
C6     C46     1.520   .     S
C6     C351    1.452   .     S
C7     O114    1.300   .     A
C7     O111    1.307   .     A
C7     C13     1.404   .     S
C8     O112    1.303   .     A
C8     O113    1.306   .     A
C8     C11     1.406   .     S
C9     C20     1.378   .     A
C9     C11     1.383   .     A
C9     H53     1.084   .     S
C10    C21     1.379   .     A
C10    H64     1.084   .     S
C10    C13     1.381   .     A
C11    C14     1.385   .     A
C12    O109    1.312   .     A
C12    C52     1.447   .     S
C12    O108    1.315   .     A
C13    C15     1.384   .     A
C14    C16     1.390   .     A
C14    H75     1.082   .     S
C15    H86     1.082   .     S
C15    C17     1.390   .     A
C16    C22     1.418   .     A
C16    C18     1.423   .     A
C17    C24     1.418   .     A
C17    C19     1.423   .     A
C18    C20     1.413   .     A
C18    C1063   1.388   .     S
C19    C21     1.413   .     A
C19    C1062   1.388   1_554 S
C20    C34     1.396   .     A
C21    C23     1.396   .     A
C22    C25     1.519   .     S
C22    C1067   1.394   .     S
C23    H96     1.084   .     S
C23    C1066   1.394   1_554 S
C24    C28     1.519   .     S
C24    C1078   1.394   1_554 S
C25    H56     1.113   .     S
C25    H57     1.111   .     S
C25    C26     1.535   .     S
C26    H55     1.112   .     S
C26    H54     1.110   .     S
C26    C259    1.527   1_455 S
C27    H98     1.110   .     S
C27    H99     1.111   .     S
C27    H100    1.108   .     S
C27    C142    1.527   .     S
C28    C29     1.537   .     S
C28    H65     1.113   .     S
C28    H63     1.111   .     S
C29    H62     1.111   .     S
C29    H61     1.112   .     S
C29    C146    1.525   .     S
C30    H60     1.111   .     S
C30    H59     1.110   .     S
C30    C261    1.525   1_455 S
C30    H290    1.110   1_455 S
C31    N103    1.158   .     T
C31    C45     1.453   .     S
C32    N104    1.158   .     T
C32    C49     1.457   .     S
C33    N105    1.158   .     T
C33    C50     1.451   .     S
C34    H97     1.085   .     S
C34    C1068   1.394   .     S
C35    C51     1.455   .     S
C35    N106    1.157   .     T
C36    C37     1.537   .     S
C36    H71     1.093   .     S
C36    H72     1.087   .     S
C37    H69     1.101   .     S
C37    H70     1.105   .     S
C37    C38     1.532   .     S
C38    H66     1.111   .     S
C38    H68     1.110   .     S
C38    H67     1.110   .     S
C39    C40     1.562   .     S
C39    H80     1.109   .     S
C39    H79     1.096   .     S
C40    C41     1.531   .     S
C40    H78     1.098   .     S
C40    H77     1.110   .     S
C41    H74     1.109   .     S
C41    H76     1.111   .     S
C41    H73     1.109   .     S
C42    H88     1.082   .     S
C42    C43     1.538   .     S
C42    H87     1.092   .     S
C43    H84     1.103   .     S
C43    H85     1.107   .     S
C43    C44     1.532   .     S
C44    H83     1.109   .     S
C44    H82     1.110   .     S
C44    H81     1.111   .     S
C45    C282    1.376   1_455 S
C46    C47     1.561   .     S
C46    H95     1.110   .     S
C46    H94     1.096   .     S
C47    H92     1.107   .     S
C47    C48     1.526   .     S
C47    H93     1.100   .     S
C48    H91     1.111   .     S
C48    H90     1.111   .     S
C48    H89     1.108   .     S
C49    C52     1.406   .     A
C49    C167    1.386   .     S
C50    C52     1.398   .     A
C50    C161    1.376   .     S
C51    C281    1.386   1_455 S
H58    C146    1.110   .     S
N101   Zn115   2.072   .     S
N102   Zn116   2.072   .     S
O107   Zn115   2.001   .     S
O108   Zn116   2.001   .     S
O109   Zn115   1.991   .     S
O110   Zn116   1.991   .     S
O111   Zn115   1.989   .     S
O112   Zn116   1.989   .     S
O113   Zn115   1.989   .     S
O114   Zn116   1.989   .     S
C117   C118    1.451   .     S
C117   O226    1.321   .     A
C117   O223    1.308   .     A
C118   C161    1.410   .     A
C118   C167    1.423   .     A
C119   N218    1.398   .     A
C119   C152    1.547   .     S
C119   C818    1.452   1_545 S
C120   C155    1.526   .     S
C120   N217    1.384   .     A
C120   C469    1.453   .     S
C121   C158    1.544   .     S
C121   N218    1.398   .     A
C121   C816    1.453   1_545 S
C122   N217    1.383   .     A
C122   C162    1.520   .     S
C122   C467    1.452   .     S
C123   O230    1.300   .     A
C123   O227    1.307   .     A
C123   C129    1.404   .     S
C124   O228    1.303   .     A
C124   O229    1.306   .     A
C124   C127    1.406   .     S
C125   C136    1.378   .     A
C125   C127    1.383   .     A
C125   H169    1.084   .     S
C126   C137    1.379   .     A
C126   H180    1.084   .     S
C126   C129    1.381   .     A
C127   C130    1.385   .     A
C128   O225    1.312   .     A
C128   C168    1.447   .     S
C128   O224    1.315   .     A
C129   C131    1.384   .     A
C130   C132    1.390   .     A
C130   H191    1.082   .     S
C131   H202    1.082   .     S
C131   C133    1.390   .     A
C132   C138    1.418   .     A
C132   C134    1.423   .     A
C133   C140    1.418   .     A
C133   C135    1.423   .     A
C134   C136    1.413   .     A
C134   C1179   1.388   .     S
C135   C137    1.413   .     A
C135   C1178   1.388   1_554 S
C136   C150    1.396   .     A
C137   C139    1.396   .     A
C138   C141    1.519   .     S
C138   C1183   1.394   .     S
C139   H212    1.084   .     S
C139   C1182   1.394   1_554 S
C140   C144    1.519   .     S
C140   C1194   1.394   1_554 S
C141   H172    1.113   .     S
C141   H173    1.111   .     S
C141   C142    1.535   .     S
C142   H171    1.112   .     S
C142   H170    1.110   .     S
C143   H214    1.110   .     S
C143   H215    1.111   .     S
C143   H216    1.108   .     S
C143   C258    1.527   .     S
C144   C145    1.537   .     S
C144   H181    1.113   .     S
C144   H179    1.111   .     S
C145   H178    1.111   .     S
C145   H177    1.112   .     S
C145   C262    1.525   .     S
C146   H176    1.111   .     S
C146   H175    1.110   .     S
C147   N219    1.158   .     T
C147   C161    1.453   .     S
C148   N220    1.158   .     T
C148   C165    1.457   .     S
C149   N221    1.158   .     T
C149   C166    1.451   .     S
C150   H213    1.085   .     S
C150   C1184   1.394   .     S
C151   C167    1.455   .     S
C151   N222    1.157   .     T
C152   C153    1.537   .     S
C152   H187    1.093   .     S
C152   H188    1.087   .     S
C153   H185    1.101   .     S
C153   H186    1.105   .     S
C153   C154    1.532   .     S
C154   H182    1.111   .     S
C154   H184    1.110   .     S
C154   H183    1.110   .     S
C155   C156    1.562   .     S
C155   H196    1.109   .     S
C155   H195    1.096   .     S
C156   C157    1.531   .     S
C156   H194    1.098   .     S
C156   H193    1.110   .     S
C157   H190    1.109   .     S
C157   H192    1.111   .     S
C157   H189    1.109   .     S
C158   H204    1.082   .     S
C158   C159    1.538   .     S
C158   H203    1.092   .     S
C159   H200    1.103   .     S
C159   H201    1.107   .     S
C159   C160    1.532   .     S
C160   H199    1.109   .     S
C160   H198    1.110   .     S
C160   H197    1.111   .     S
C162   C163    1.561   .     S
C162   H211    1.110   .     S
C162   H210    1.096   .     S
C163   H208    1.107   .     S
C163   C164    1.526   .     S
C163   H209    1.100   .     S
C164   H207    1.111   .     S
C164   H206    1.111   .     S
C164   H205    1.108   .     S
C165   C168    1.406   .     A
C165   C283    1.386   .     S
C166   C168    1.398   .     A
C166   C277    1.376   .     S
H174   C262    1.110   .     S
N217   Zn231   2.072   .     S
N218   Zn232   2.072   .     S
O223   Zn231   2.001   .     S
O224   Zn232   2.001   .     S
O225   Zn231   1.991   .     S
O226   Zn232   1.991   .     S
O227   Zn231   1.989   .     S
O228   Zn232   1.989   .     S
O229   Zn231   1.989   .     S
O230   Zn232   1.989   .     S
C233   C234    1.451   .     S
C233   O342    1.321   .     A
C233   O339    1.308   .     A
C234   C277    1.410   .     A
C234   C283    1.423   .     A
C235   N334    1.398   .     A
C235   C268    1.547   .     S
C235   C934    1.452   1_545 S
C236   C271    1.526   .     S
C236   N333    1.384   .     A
C236   C585    1.453   .     S
C237   C274    1.544   .     S
C237   N334    1.398   .     A
C237   C932    1.453   1_545 S
C238   N333    1.383   .     A
C238   C278    1.520   .     S
C238   C583    1.452   .     S
C239   O346    1.300   .     A
C239   O343    1.307   .     A
C239   C245    1.404   .     S
C240   O344    1.303   .     A
C240   O345    1.306   .     A
C240   C243    1.406   .     S
C241   C252    1.378   .     A
C241   C243    1.383   .     A
C241   H285    1.084   .     S
C242   C253    1.379   .     A
C242   H296    1.084   .     S
C242   C245    1.381   .     A
C243   C246    1.385   .     A
C244   O341    1.312   .     A
C244   C284    1.447   .     S
C244   O340    1.315   .     A
C245   C247    1.384   .     A
C246   C248    1.390   .     A
C246   H307    1.082   .     S
C247   H318    1.082   .     S
C247   C249    1.390   .     A
C248   C254    1.418   .     A
C248   C250    1.423   .     A
C249   C256    1.418   .     A
C249   C251    1.423   .     A
C250   C252    1.413   .     A
C250   C1295   1.388   .     S
C251   C253    1.413   .     A
C251   C1294   1.388   1_554 S
C252   C266    1.396   .     A
C253   C255    1.396   .     A
C254   C257    1.519   .     S
C254   C1299   1.394   .     S
C255   H328    1.084   .     S
C255   C1298   1.394   1_554 S
C256   C260    1.519   .     S
C256   C1310   1.394   1_554 S
C257   H288    1.113   .     S
C257   H289    1.111   .     S
C257   C258    1.535   .     S
C258   H287    1.112   .     S
C258   H286    1.110   .     S
C259   H330    1.110   .     S
C259   H331    1.111   .     S
C259   H332    1.108   .     S
C259   C26     1.527   1_655 S
C260   C261    1.537   .     S
C260   H297    1.113   .     S
C260   H295    1.111   .     S
C261   H294    1.111   .     S
C261   H293    1.112   .     S
C261   C30     1.525   1_655 S
C262   H292    1.111   .     S
C262   H291    1.110   .     S
C263   N335    1.158   .     T
C263   C277    1.453   .     S
C264   N336    1.158   .     T
C264   C281    1.457   .     S
C265   N337    1.158   .     T
C265   C282    1.451   .     S
C266   H329    1.085   .     S
C266   C1300   1.394   .     S
C267   C283    1.455   .     S
C267   N338    1.157   .     T
C268   C269    1.537   .     S
C268   H303    1.093   .     S
C268   H304    1.087   .     S
C269   H301    1.101   .     S
C269   H302    1.105   .     S
C269   C270    1.532   .     S
C270   H298    1.111   .     S
C270   H300    1.110   .     S
C270   H299    1.110   .     S
C271   C272    1.562   .     S
C271   H312    1.109   .     S
C271   H311    1.096   .     S
C272   C273    1.531   .     S
C272   H310    1.098   .     S
C272   H309    1.110   .     S
C273   H306    1.109   .     S
C273   H308    1.111   .     S
C273   H305    1.109   .     S
C274   H320    1.082   .     S
C274   C275    1.538   .     S
C274   H319    1.092   .     S
C275   H316    1.103   .     S
C275   H317    1.107   .     S
C275   C276    1.532   .     S
C276   H315    1.109   .     S
C276   H314    1.110   .     S
C276   H313    1.111   .     S
C278   C279    1.561   .     S
C278   H327    1.110   .     S
C278   H326    1.096   .     S
C279   H324    1.107   .     S
C279   C280    1.526   .     S
C279   H325    1.100   .     S
C280   H323    1.111   .     S
C280   H322    1.111   .     S
C280   H321    1.108   .     S
C281   C284    1.406   .     A
C281   C51     1.386   1_655 S
C282   C284    1.398   .     A
C282   C45     1.376   1_655 S
H290   C30     1.110   1_655 S
N333   Zn347   2.072   .     S
N334   Zn348   2.072   .     S
O339   Zn347   2.001   .     S
O340   Zn348   2.001   .     S
O341   Zn347   1.991   .     S
O342   Zn348   1.991   .     S
O343   Zn347   1.989   .     S
O344   Zn348   1.989   .     S
O345   Zn347   1.989   .     S
O346   Zn348   1.989   .     S
C349   C350    1.451   .     S
C349   O458    1.321   .     A
C349   O455    1.308   .     A
C350   C393    1.410   .     A
C350   C399    1.423   .     A
C351   N450    1.398   .     A
C351   C384    1.547   .     S
C352   C387    1.526   .     S
C352   N449    1.384   .     A
C352   C701    1.453   .     S
C353   C390    1.544   .     S
C353   N450    1.398   .     A
C354   N449    1.383   .     A
C354   C394    1.520   .     S
C354   C699    1.452   .     S
C355   O462    1.300   .     A
C355   O459    1.307   .     A
C355   C361    1.404   .     S
C356   O460    1.303   .     A
C356   O461    1.306   .     A
C356   C359    1.406   .     S
C357   C368    1.378   .     A
C357   C359    1.383   .     A
C357   H401    1.084   .     S
C358   C369    1.379   .     A
C358   H412    1.084   .     S
C358   C361    1.381   .     A
C359   C362    1.385   .     A
C360   O457    1.312   .     A
C360   C400    1.447   .     S
C360   O456    1.315   .     A
C361   C363    1.384   .     A
C362   C364    1.390   .     A
C362   H423    1.082   .     S
C363   H434    1.082   .     S
C363   C365    1.390   .     A
C364   C370    1.418   .     A
C364   C366    1.423   .     A
C365   C372    1.418   .     A
C365   C367    1.423   .     A
C366   C368    1.413   .     A
C366   C1411   1.388   .     S
C367   C369    1.413   .     A
C367   C1410   1.388   1_554 S
C368   C382    1.396   .     A
C369   C371    1.396   .     A
C370   C373    1.519   .     S
C370   C1415   1.394   .     S
C371   H444    1.084   .     S
C371   C1414   1.394   1_554 S
C372   C376    1.519   .     S
C372   C1426   1.394   1_554 S
C373   H404    1.113   .     S
C373   H405    1.111   .     S
C373   C374    1.535   .     S
C374   H403    1.112   .     S
C374   H402    1.110   .     S
C374   C607    1.527   1_455 S
C375   H446    1.110   .     S
C375   H447    1.111   .     S
C375   H448    1.108   .     S
C375   C490    1.527   .     S
C376   C377    1.537   .     S
C376   H413    1.113   .     S
C376   H411    1.111   .     S
C377   H410    1.111   .     S
C377   H409    1.112   .     S
C377   C494    1.525   .     S
C378   H408    1.111   .     S
C378   H407    1.110   .     S
C378   C609    1.525   1_455 S
C378   H638    1.110   1_455 S
C379   N451    1.158   .     T
C379   C393    1.453   .     S
C380   N452    1.158   .     T
C380   C397    1.457   .     S
C381   N453    1.158   .     T
C381   C398    1.451   .     S
C382   H445    1.085   .     S
C382   C1416   1.394   .     S
C383   C399    1.455   .     S
C383   N454    1.157   .     T
C384   C385    1.537   .     S
C384   H419    1.093   .     S
C384   H420    1.087   .     S
C385   H417    1.101   .     S
C385   H418    1.105   .     S
C385   C386    1.532   .     S
C386   H414    1.111   .     S
C386   H416    1.110   .     S
C386   H415    1.110   .     S
C387   C388    1.562   .     S
C387   H428    1.109   .     S
C387   H427    1.096   .     S
C388   C389    1.531   .     S
C388   H426    1.098   .     S
C388   H425    1.110   .     S
C389   H422    1.109   .     S
C389   H424    1.111   .     S
C389   H421    1.109   .     S
C390   H436    1.082   .     S
C390   C391    1.538   .     S
C390   H435    1.092   .     S
C391   H432    1.103   .     S
C391   H433    1.107   .     S
C391   C392    1.532   .     S
C392   H431    1.109   .     S
C392   H430    1.110   .     S
C392   H429    1.111   .     S
C393   C630    1.376   1_455 S
C394   C395    1.561   .     S
C394   H443    1.110   .     S
C394   H442    1.096   .     S
C395   H440    1.107   .     S
C395   C396    1.526   .     S
C395   H441    1.100   .     S
C396   H439    1.111   .     S
C396   H438    1.111   .     S
C396   H437    1.108   .     S
C397   C400    1.406   .     A
C397   C515    1.386   .     S
C398   C400    1.398   .     A
C398   C509    1.376   .     S
C399   C629    1.386   1_455 S
H406   C494    1.110   .     S
N449   Zn463   2.072   .     S
N450   Zn464   2.072   .     S
O455   Zn463   2.001   .     S
O456   Zn464   2.001   .     S
O457   Zn463   1.991   .     S
O458   Zn464   1.991   .     S
O459   Zn463   1.989   .     S
O460   Zn464   1.989   .     S
O461   Zn463   1.989   .     S
O462   Zn464   1.989   .     S
C465   C466    1.451   .     S
C465   O574    1.321   .     A
C465   O571    1.308   .     A
C466   C509    1.410   .     A
C466   C515    1.423   .     A
C467   N566    1.398   .     A
C467   C500    1.547   .     S
C468   C503    1.526   .     S
C468   N565    1.384   .     A
C468   C817    1.453   .     S
C469   C506    1.544   .     S
C469   N566    1.398   .     A
C470   N565    1.383   .     A
C470   C510    1.520   .     S
C470   C815    1.452   .     S
C471   O578    1.300   .     A
C471   O575    1.307   .     A
C471   C477    1.404   .     S
C472   O576    1.303   .     A
C472   O577    1.306   .     A
C472   C475    1.406   .     S
C473   C484    1.378   .     A
C473   C475    1.383   .     A
C473   H517    1.084   .     S
C474   C485    1.379   .     A
C474   H528    1.084   .     S
C474   C477    1.381   .     A
C475   C478    1.385   .     A
C476   O573    1.312   .     A
C476   C516    1.447   .     S
C476   O572    1.315   .     A
C477   C479    1.384   .     A
C478   C480    1.390   .     A
C478   H539    1.082   .     S
C479   H550    1.082   .     S
C479   C481    1.390   .     A
C480   C486    1.418   .     A
C480   C482    1.423   .     A
C481   C488    1.418   .     A
C481   C483    1.423   .     A
C482   C484    1.413   .     A
C482   C1527   1.388   .     S
C483   C485    1.413   .     A
C483   C1526   1.388   1_554 S
C484   C498    1.396   .     A
C485   C487    1.396   .     A
C486   C489    1.519   .     S
C486   C1531   1.394   .     S
C487   H560    1.084   .     S
C487   C1530   1.394   1_554 S
C488   C492    1.519   .     S
C488   C1542   1.394   1_554 S
C489   H520    1.113   .     S
C489   H521    1.111   .     S
C489   C490    1.535   .     S
C490   H519    1.112   .     S
C490   H518    1.110   .     S
C491   H562    1.110   .     S
C491   H563    1.111   .     S
C491   H564    1.108   .     S
C491   C606    1.527   .     S
C492   C493    1.537   .     S
C492   H529    1.113   .     S
C492   H527    1.111   .     S
C493   H526    1.111   .     S
C493   H525    1.112   .     S
C493   C610    1.525   .     S
C494   H524    1.111   .     S
C494   H523    1.110   .     S
C495   N567    1.158   .     T
C495   C509    1.453   .     S
C496   N568    1.158   .     T
C496   C513    1.457   .     S
C497   N569    1.158   .     T
C497   C514    1.451   .     S
C498   H561    1.085   .     S
C498   C1532   1.394   .     S
C499   C515    1.455   .     S
C499   N570    1.157   .     T
C500   C501    1.537   .     S
C500   H535    1.093   .     S
C500   H536    1.087   .     S
C501   H533    1.101   .     S
C501   H534    1.105   .     S
C501   C502    1.532   .     S
C502   H530    1.111   .     S
C502   H532    1.110   .     S
C502   H531    1.110   .     S
C503   C504    1.562   .     S
C503   H544    1.109   .     S
C503   H543    1.096   .     S
C504   C505    1.531   .     S
C504   H542    1.098   .     S
C504   H541    1.110   .     S
C505   H538    1.109   .     S
C505   H540    1.111   .     S
C505   H537    1.109   .     S
C506   H552    1.082   .     S
C506   C507    1.538   .     S
C506   H551    1.092   .     S
C507   H548    1.103   .     S
C507   H549    1.107   .     S
C507   C508    1.532   .     S
C508   H547    1.109   .     S
C508   H546    1.110   .     S
C508   H545    1.111   .     S
C510   C511    1.561   .     S
C510   H559    1.110   .     S
C510   H558    1.096   .     S
C511   H556    1.107   .     S
C511   C512    1.526   .     S
C511   H557    1.100   .     S
C512   H555    1.111   .     S
C512   H554    1.111   .     S
C512   H553    1.108   .     S
C513   C516    1.406   .     A
C513   C631    1.386   .     S
C514   C516    1.398   .     A
C514   C625    1.376   .     S
H522   C610    1.110   .     S
N565   Zn579   2.072   .     S
N566   Zn580   2.072   .     S
O571   Zn579   2.001   .     S
O572   Zn580   2.001   .     S
O573   Zn579   1.991   .     S
O574   Zn580   1.991   .     S
O575   Zn579   1.989   .     S
O576   Zn580   1.989   .     S
O577   Zn579   1.989   .     S
O578   Zn580   1.989   .     S
C581   C582    1.451   .     S
C581   O690    1.321   .     A
C581   O687    1.308   .     A
C582   C625    1.410   .     A
C582   C631    1.423   .     A
C583   N682    1.398   .     A
C583   C616    1.547   .     S
C584   C619    1.526   .     S
C584   N681    1.384   .     A
C584   C933    1.453   .     S
C585   C622    1.544   .     S
C585   N682    1.398   .     A
C586   N681    1.383   .     A
C586   C626    1.520   .     S
C586   C931    1.452   .     S
C587   O694    1.300   .     A
C587   O691    1.307   .     A
C587   C593    1.404   .     S
C588   O692    1.303   .     A
C588   O693    1.306   .     A
C588   C591    1.406   .     S
C589   C600    1.378   .     A
C589   C591    1.383   .     A
C589   H633    1.084   .     S
C590   C601    1.379   .     A
C590   H644    1.084   .     S
C590   C593    1.381   .     A
C591   C594    1.385   .     A
C592   O689    1.312   .     A
C592   C632    1.447   .     S
C592   O688    1.315   .     A
C593   C595    1.384   .     A
C594   C596    1.390   .     A
C594   H655    1.082   .     S
C595   H666    1.082   .     S
C595   C597    1.390   .     A
C596   C602    1.418   .     A
C596   C598    1.423   .     A
C597   C604    1.418   .     A
C597   C599    1.423   .     A
C598   C600    1.413   .     A
C598   C1643   1.388   .     S
C599   C601    1.413   .     A
C599   C1642   1.388   1_554 S
C600   C614    1.396   .     A
C601   C603    1.396   .     A
C602   C605    1.519   .     S
C602   C1647   1.394   .     S
C603   H676    1.084   .     S
C603   C1646   1.394   1_554 S
C604   C608    1.519   .     S
C604   C1658   1.394   1_554 S
C605   H636    1.113   .     S
C605   H637    1.111   .     S
C605   C606    1.535   .     S
C606   H635    1.112   .     S
C606   H634    1.110   .     S
C607   H678    1.110   .     S
C607   H679    1.111   .     S
C607   H680    1.108   .     S
C607   C374    1.527   1_655 S
C608   C609    1.537   .     S
C608   H645    1.113   .     S
C608   H643    1.111   .     S
C609   H642    1.111   .     S
C609   H641    1.112   .     S
C609   C378    1.525   1_655 S
C610   H640    1.111   .     S
C610   H639    1.110   .     S
C611   N683    1.158   .     T
C611   C625    1.453   .     S
C612   N684    1.158   .     T
C612   C629    1.457   .     S
C613   N685    1.158   .     T
C613   C630    1.451   .     S
C614   H677    1.085   .     S
C614   C1648   1.394   .     S
C615   C631    1.455   .     S
C615   N686    1.157   .     T
C616   C617    1.537   .     S
C616   H651    1.093   .     S
C616   H652    1.087   .     S
C617   H649    1.101   .     S
C617   H650    1.105   .     S
C617   C618    1.532   .     S
C618   H646    1.111   .     S
C618   H648    1.110   .     S
C618   H647    1.110   .     S
C619   C620    1.562   .     S
C619   H660    1.109   .     S
C619   H659    1.096   .     S
C620   C621    1.531   .     S
C620   H658    1.098   .     S
C620   H657    1.110   .     S
C621   H654    1.109   .     S
C621   H656    1.111   .     S
C621   H653    1.109   .     S
C622   H668    1.082   .     S
C622   C623    1.538   .     S
C622   H667    1.092   .     S
C623   H664    1.103   .     S
C623   H665    1.107   .     S
C623   C624    1.532   .     S
C624   H663    1.109   .     S
C624   H662    1.110   .     S
C624   H661    1.111   .     S
C626   C627    1.561   .     S
C626   H675    1.110   .     S
C626   H674    1.096   .     S
C627   H672    1.107   .     S
C627   C628    1.526   .     S
C627   H673    1.100   .     S
C628   H671    1.111   .     S
C628   H670    1.111   .     S
C628   H669    1.108   .     S
C629   C632    1.406   .     A
C629   C399    1.386   1_655 S
C630   C632    1.398   .     A
C630   C393    1.376   1_655 S
H638   C378    1.110   1_655 S
N681   Zn695   2.072   .     S
N682   Zn696   2.072   .     S
O687   Zn695   2.001   .     S
O688   Zn696   2.001   .     S
O689   Zn695   1.991   .     S
O690   Zn696   1.991   .     S
O691   Zn695   1.989   .     S
O692   Zn696   1.989   .     S
O693   Zn695   1.989   .     S
O694   Zn696   1.989   .     S
C697   C698    1.451   .     S
C697   O806    1.321   .     A
C697   O803    1.308   .     A
C698   C741    1.410   .     A
C698   C747    1.423   .     A
C699   N798    1.398   .     A
C699   C732    1.547   .     S
C700   C735    1.526   .     S
C700   N797    1.384   .     A
C700   C5      1.453   1_565 S
C701   C738    1.544   .     S
C701   N798    1.398   .     A
C702   N797    1.383   .     A
C702   C742    1.520   .     S
C702   C3      1.452   1_565 S
C703   O810    1.300   .     A
C703   O807    1.307   .     A
C703   C709    1.404   .     S
C704   O808    1.303   .     A
C704   O809    1.306   .     A
C704   C707    1.406   .     S
C705   C716    1.378   .     A
C705   C707    1.383   .     A
C705   H749    1.084   .     S
C706   C717    1.379   .     A
C706   H760    1.084   .     S
C706   C709    1.381   .     A
C707   C710    1.385   .     A
C708   O805    1.312   .     A
C708   C748    1.447   .     S
C708   O804    1.315   .     A
C709   C711    1.384   .     A
C710   C712    1.390   .     A
C710   H771    1.082   .     S
C711   H782    1.082   .     S
C711   C713    1.390   .     A
C712   C718    1.418   .     A
C712   C714    1.423   .     A
C713   C720    1.418   .     A
C713   C715    1.423   .     A
C714   C716    1.413   .     A
C714   C1759   1.388   .     S
C715   C717    1.413   .     A
C715   C1758   1.388   1_554 S
C716   C730    1.396   .     A
C717   C719    1.396   .     A
C718   C721    1.519   .     S
C718   C1763   1.394   .     S
C719   H792    1.084   .     S
C719   C1762   1.394   1_554 S
C720   C724    1.519   .     S
C720   C1774   1.394   1_554 S
C721   H752    1.113   .     S
C721   H753    1.111   .     S
C721   C722    1.535   .     S
C722   H751    1.112   .     S
C722   H750    1.110   .     S
C722   C955    1.527   1_455 S
C723   H794    1.110   .     S
C723   H795    1.111   .     S
C723   H796    1.108   .     S
C723   C838    1.527   .     S
C724   C725    1.537   .     S
C724   H761    1.113   .     S
C724   H759    1.111   .     S
C725   H758    1.111   .     S
C725   H757    1.112   .     S
C725   C842    1.525   .     S
C726   H756    1.111   .     S
C726   H755    1.110   .     S
C726   C957    1.525   1_455 S
C726   H986    1.110   1_455 S
C727   N799    1.158   .     T
C727   C741    1.453   .     S
C728   N800    1.158   .     T
C728   C745    1.457   .     S
C729   N801    1.158   .     T
C729   C746    1.451   .     S
C730   H793    1.085   .     S
C730   C1764   1.394   .     S
C731   C747    1.455   .     S
C731   N802    1.157   .     T
C732   C733    1.537   .     S
C732   H767    1.093   .     S
C732   H768    1.087   .     S
C733   H765    1.101   .     S
C733   H766    1.105   .     S
C733   C734    1.532   .     S
C734   H762    1.111   .     S
C734   H764    1.110   .     S
C734   H763    1.110   .     S
C735   C736    1.562   .     S
C735   H776    1.109   .     S
C735   H775    1.096   .     S
C736   C737    1.531   .     S
C736   H774    1.098   .     S
C736   H773    1.110   .     S
C737   H770    1.109   .     S
C737   H772    1.111   .     S
C737   H769    1.109   .     S
C738   H784    1.082   .     S
C738   C739    1.538   .     S
C738   H783    1.092   .     S
C739   H780    1.103   .     S
C739   H781    1.107   .     S
C739   C740    1.532   .     S
C740   H779    1.109   .     S
C740   H778    1.110   .     S
C740   H777    1.111   .     S
C741   C978    1.376   1_455 S
C742   C743    1.561   .     S
C742   H791    1.110   .     S
C742   H790    1.096   .     S
C743   H788    1.107   .     S
C743   C744    1.526   .     S
C743   H789    1.100   .     S
C744   H787    1.111   .     S
C744   H786    1.111   .     S
C744   H785    1.108   .     S
C745   C748    1.406   .     A
C745   C863    1.386   .     S
C746   C748    1.398   .     A
C746   C857    1.376   .     S
C747   C977    1.386   1_455 S
H754   C842    1.110   .     S
N797   Zn811   2.072   .     S
N798   Zn812   2.072   .     S
O803   Zn811   2.001   .     S
O804   Zn812   2.001   .     S
O805   Zn811   1.991   .     S
O806   Zn812   1.991   .     S
O807   Zn811   1.989   .     S
O808   Zn812   1.989   .     S
O809   Zn811   1.989   .     S
O810   Zn812   1.989   .     S
C813   C814    1.451   .     S
C813   O922    1.321   .     A
C813   O919    1.308   .     A
C814   C857    1.410   .     A
C814   C863    1.423   .     A
C815   N914    1.398   .     A
C815   C848    1.547   .     S
C816   C851    1.526   .     S
C816   N913    1.384   .     A
C816   C121    1.453   1_565 S
C817   C854    1.544   .     S
C817   N914    1.398   .     A
C818   N913    1.383   .     A
C818   C858    1.520   .     S
C818   C119    1.452   1_565 S
C819   O926    1.300   .     A
C819   O923    1.307   .     A
C819   C825    1.404   .     S
C820   O924    1.303   .     A
C820   O925    1.306   .     A
C820   C823    1.406   .     S
C821   C832    1.378   .     A
C821   C823    1.383   .     A
C821   H865    1.084   .     S
C822   C833    1.379   .     A
C822   H876    1.084   .     S
C822   C825    1.381   .     A
C823   C826    1.385   .     A
C824   O921    1.312   .     A
C824   C864    1.447   .     S
C824   O920    1.315   .     A
C825   C827    1.384   .     A
C826   C828    1.390   .     A
C826   H887    1.082   .     S
C827   H898    1.082   .     S
C827   C829    1.390   .     A
C828   C834    1.418   .     A
C828   C830    1.423   .     A
C829   C836    1.418   .     A
C829   C831    1.423   .     A
C830   C832    1.413   .     A
C830   C1875   1.388   .     S
C831   C833    1.413   .     A
C831   C1874   1.388   1_554 S
C832   C846    1.396   .     A
C833   C835    1.396   .     A
C834   C837    1.519   .     S
C834   C1879   1.394   .     S
C835   H908    1.084   .     S
C835   C1878   1.394   1_554 S
C836   C840    1.519   .     S
C836   C1890   1.394   1_554 S
C837   H868    1.113   .     S
C837   H869    1.111   .     S
C837   C838    1.535   .     S
C838   H867    1.112   .     S
C838   H866    1.110   .     S
C839   H910    1.110   .     S
C839   H911    1.111   .     S
C839   H912    1.108   .     S
C839   C954    1.527   .     S
C840   C841    1.537   .     S
C840   H877    1.113   .     S
C840   H875    1.111   .     S
C841   H874    1.111   .     S
C841   H873    1.112   .     S
C841   C958    1.525   .     S
C842   H872    1.111   .     S
C842   H871    1.110   .     S
C843   N915    1.158   .     T
C843   C857    1.453   .     S
C844   N916    1.158   .     T
C844   C861    1.457   .     S
C845   N917    1.158   .     T
C845   C862    1.451   .     S
C846   H909    1.085   .     S
C846   C1880   1.394   .     S
C847   C863    1.455   .     S
C847   N918    1.157   .     T
C848   C849    1.537   .     S
C848   H883    1.093   .     S
C848   H884    1.087   .     S
C849   H881    1.101   .     S
C849   H882    1.105   .     S
C849   C850    1.532   .     S
C850   H878    1.111   .     S
C850   H880    1.110   .     S
C850   H879    1.110   .     S
C851   C852    1.562   .     S
C851   H892    1.109   .     S
C851   H891    1.096   .     S
C852   C853    1.531   .     S
C852   H890    1.098   .     S
C852   H889    1.110   .     S
C853   H886    1.109   .     S
C853   H888    1.111   .     S
C853   H885    1.109   .     S
C854   H900    1.082   .     S
C854   C855    1.538   .     S
C854   H899    1.092   .     S
C855   H896    1.103   .     S
C855   H897    1.107   .     S
C855   C856    1.532   .     S
C856   H895    1.109   .     S
C856   H894    1.110   .     S
C856   H893    1.111   .     S
C858   C859    1.561   .     S
C858   H907    1.110   .     S
C858   H906    1.096   .     S
C859   H904    1.107   .     S
C859   C860    1.526   .     S
C859   H905    1.100   .     S
C860   H903    1.111   .     S
C860   H902    1.111   .     S
C860   H901    1.108   .     S
C861   C864    1.406   .     A
C861   C979    1.386   .     S
C862   C864    1.398   .     A
C862   C973    1.376   .     S
H870   C958    1.110   .     S
N913   Zn927   2.072   .     S
N914   Zn928   2.072   .     S
O919   Zn927   2.001   .     S
O920   Zn928   2.001   .     S
O921   Zn927   1.991   .     S
O922   Zn928   1.991   .     S
O923   Zn927   1.989   .     S
O924   Zn928   1.989   .     S
O925   Zn927   1.989   .     S
O926   Zn928   1.989   .     S
C929   C930    1.451   .     S
C929   O1038   1.321   .     A
C929   O1035   1.308   .     A
C930   C973    1.410   .     A
C930   C979    1.423   .     A
C931   N1030   1.398   .     A
C931   C964    1.547   .     S
C932   C967    1.526   .     S
C932   N1029   1.384   .     A
C932   C237    1.453   1_565 S
C933   C970    1.544   .     S
C933   N1030   1.398   .     A
C934   N1029   1.383   .     A
C934   C974    1.520   .     S
C934   C235    1.452   1_565 S
C935   O1042   1.300   .     A
C935   O1039   1.307   .     A
C935   C941    1.404   .     S
C936   O1040   1.303   .     A
C936   O1041   1.306   .     A
C936   C939    1.406   .     S
C937   C948    1.378   .     A
C937   C939    1.383   .     A
C937   H981    1.084   .     S
C938   C949    1.379   .     A
C938   H992    1.084   .     S
C938   C941    1.381   .     A
C939   C942    1.385   .     A
C940   O1037   1.312   .     A
C940   C980    1.447   .     S
C940   O1036   1.315   .     A
C941   C943    1.384   .     A
C942   C944    1.390   .     A
C942   H1003   1.082   .     S
C943   H1014   1.082   .     S
C943   C945    1.390   .     A
C944   C950    1.418   .     A
C944   C946    1.423   .     A
C945   C952    1.418   .     A
C945   C947    1.423   .     A
C946   C948    1.413   .     A
C946   C1991   1.388   .     S
C947   C949    1.413   .     A
C947   C1990   1.388   1_554 S
C948   C962    1.396   .     A
C949   C951    1.396   .     A
C950   C953    1.519   .     S
C950   C1995   1.394   .     S
C951   H1024   1.084   .     S
C951   C1994   1.394   1_554 S
C952   C956    1.519   .     S
C952   C2006   1.394   1_554 S
C953   H984    1.113   .     S
C953   H985    1.111   .     S
C953   C954    1.535   .     S
C954   H983    1.112   .     S
C954   H982    1.110   .     S
C955   H1026   1.110   .     S
C955   H1027   1.111   .     S
C955   H1028   1.108   .     S
C955   C722    1.527   1_655 S
C956   C957    1.537   .     S
C956   H993    1.113   .     S
C956   H991    1.111   .     S
C957   H990    1.111   .     S
C957   H989    1.112   .     S
C957   C726    1.525   1_655 S
C958   H988    1.111   .     S
C958   H987    1.110   .     S
C959   N1031   1.158   .     T
C959   C973    1.453   .     S
C960   N1032   1.158   .     T
C960   C977    1.457   .     S
C961   N1033   1.158   .     T
C961   C978    1.451   .     S
C962   H1025   1.085   .     S
C962   C1996   1.394   .     S
C963   C979    1.455   .     S
C963   N1034   1.157   .     T
C964   C965    1.537   .     S
C964   H999    1.093   .     S
C964   H1000   1.087   .     S
C965   H997    1.101   .     S
C965   H998    1.105   .     S
C965   C966    1.532   .     S
C966   H994    1.111   .     S
C966   H996    1.110   .     S
C966   H995    1.110   .     S
C967   C968    1.562   .     S
C967   H1008   1.109   .     S
C967   H1007   1.096   .     S
C968   C969    1.531   .     S
C968   H1006   1.098   .     S
C968   H1005   1.110   .     S
C969   H1002   1.109   .     S
C969   H1004   1.111   .     S
C969   H1001   1.109   .     S
C970   H1016   1.082   .     S
C970   C971    1.538   .     S
C970   H1015   1.092   .     S
C971   H1012   1.103   .     S
C971   H1013   1.107   .     S
C971   C972    1.532   .     S
C972   H1011   1.109   .     S
C972   H1010   1.110   .     S
C972   H1009   1.111   .     S
C974   C975    1.561   .     S
C974   H1023   1.110   .     S
C974   H1022   1.096   .     S
C975   H1020   1.107   .     S
C975   C976    1.526   .     S
C975   H1021   1.100   .     S
C976   H1019   1.111   .     S
C976   H1018   1.111   .     S
C976   H1017   1.108   .     S
C977   C980    1.406   .     A
C977   C747    1.386   1_655 S
C978   C980    1.398   .     A
C978   C741    1.376   1_655 S
H986   C726    1.110   1_655 S
N1029  Zn1043  2.072   .     S
N1030  Zn1044  2.072   .     S
O1035  Zn1043  2.001   .     S
O1036  Zn1044  2.001   .     S
O1037  Zn1043  1.991   .     S
O1038  Zn1044  1.991   .     S
O1039  Zn1043  1.989   .     S
O1040  Zn1044  1.989   .     S
O1041  Zn1043  1.989   .     S
O1042  Zn1044  1.989   .     S
C1045  C1046   1.451   .     S
C1045  O1154   1.321   .     A
C1045  O1151   1.308   .     A
C1046  C1089   1.410   .     A
C1046  C1095   1.423   .     A
C1047  N1146   1.398   .     A
C1047  C1080   1.547   .     S
C1047  C1746   1.452   1_545 S
C1048  C1083   1.526   .     S
C1048  N1145   1.384   .     A
C1048  C1397   1.453   .     S
C1049  C1086   1.544   .     S
C1049  N1146   1.398   .     A
C1049  C1744   1.453   1_545 S
C1050  N1145   1.383   .     A
C1050  C1090   1.520   .     S
C1050  C1395   1.452   .     S
C1051  O1158   1.300   .     A
C1051  O1155   1.307   .     A
C1051  C1057   1.404   .     S
C1052  O1156   1.303   .     A
C1052  O1157   1.306   .     A
C1052  C1055   1.406   .     S
C1053  C1064   1.378   .     A
C1053  C1055   1.383   .     A
C1053  H1097   1.084   .     S
C1054  C1065   1.379   .     A
C1054  H1108   1.084   .     S
C1054  C1057   1.381   .     A
C1055  C1058   1.385   .     A
C1056  O1153   1.312   .     A
C1056  C1096   1.447   .     S
C1056  O1152   1.315   .     A
C1057  C1059   1.384   .     A
C1058  C1060   1.390   .     A
C1058  H1119   1.082   .     S
C1059  H1130   1.082   .     S
C1059  C1061   1.390   .     A
C1060  C1066   1.418   .     A
C1060  C1062   1.423   .     A
C1061  C1068   1.418   .     A
C1061  C1063   1.423   .     A
C1062  C1064   1.413   .     A
C1062  C19     1.388   1_556 S
C1063  C1065   1.413   .     A
C1064  C1078   1.396   .     A
C1065  C1067   1.396   .     A
C1066  C1069   1.519   .     S
C1066  C23     1.394   1_556 S
C1067  H1140   1.084   .     S
C1068  C1072   1.519   .     S
C1069  H1100   1.113   .     S
C1069  H1101   1.111   .     S
C1069  C1070   1.535   .     S
C1070  H1099   1.112   .     S
C1070  H1098   1.110   .     S
C1070  C1303   1.527   1_455 S
C1071  H1142   1.110   .     S
C1071  H1143   1.111   .     S
C1071  H1144   1.108   .     S
C1071  C1186   1.527   .     S
C1072  C1073   1.537   .     S
C1072  H1109   1.113   .     S
C1072  H1107   1.111   .     S
C1073  H1106   1.111   .     S
C1073  H1105   1.112   .     S
C1073  C1190   1.525   .     S
C1074  H1104   1.111   .     S
C1074  H1103   1.110   .     S
C1074  C1305   1.525   1_455 S
C1074  H1334   1.110   1_455 S
C1075  N1147   1.158   .     T
C1075  C1089   1.453   .     S
C1076  N1148   1.158   .     T
C1076  C1093   1.457   .     S
C1077  N1149   1.158   .     T
C1077  C1094   1.451   .     S
C1078  H1141   1.085   .     S
C1078  C24     1.394   1_556 S
C1079  C1095   1.455   .     S
C1079  N1150   1.157   .     T
C1080  C1081   1.537   .     S
C1080  H1115   1.093   .     S
C1080  H1116   1.087   .     S
C1081  H1113   1.101   .     S
C1081  H1114   1.105   .     S
C1081  C1082   1.532   .     S
C1082  H1110   1.111   .     S
C1082  H1112   1.110   .     S
C1082  H1111   1.110   .     S
C1083  C1084   1.562   .     S
C1083  H1124   1.109   .     S
C1083  H1123   1.096   .     S
C1084  C1085   1.531   .     S
C1084  H1122   1.098   .     S
C1084  H1121   1.110   .     S
C1085  H1118   1.109   .     S
C1085  H1120   1.111   .     S
C1085  H1117   1.109   .     S
C1086  H1132   1.082   .     S
C1086  C1087   1.538   .     S
C1086  H1131   1.092   .     S
C1087  H1128   1.103   .     S
C1087  H1129   1.107   .     S
C1087  C1088   1.532   .     S
C1088  H1127   1.109   .     S
C1088  H1126   1.110   .     S
C1088  H1125   1.111   .     S
C1089  C1326   1.376   1_455 S
C1090  C1091   1.561   .     S
C1090  H1139   1.110   .     S
C1090  H1138   1.096   .     S
C1091  H1136   1.107   .     S
C1091  C1092   1.526   .     S
C1091  H1137   1.100   .     S
C1092  H1135   1.111   .     S
C1092  H1134   1.111   .     S
C1092  H1133   1.108   .     S
C1093  C1096   1.406   .     A
C1093  C1211   1.386   .     S
C1094  C1096   1.398   .     A
C1094  C1205   1.376   .     S
C1095  C1325   1.386   1_455 S
H1102  C1190   1.110   .     S
N1145  Zn1159  2.072   .     S
N1146  Zn1160  2.072   .     S
O1151  Zn1159  2.001   .     S
O1152  Zn1160  2.001   .     S
O1153  Zn1159  1.991   .     S
O1154  Zn1160  1.991   .     S
O1155  Zn1159  1.989   .     S
O1156  Zn1160  1.989   .     S
O1157  Zn1159  1.989   .     S
O1158  Zn1160  1.989   .     S
C1161  C1162   1.451   .     S
C1161  O1270   1.321   .     A
C1161  O1267   1.308   .     A
C1162  C1205   1.410   .     A
C1162  C1211   1.423   .     A
C1163  N1262   1.398   .     A
C1163  C1196   1.547   .     S
C1163  C1862   1.452   1_545 S
C1164  C1199   1.526   .     S
C1164  N1261   1.384   .     A
C1164  C1513   1.453   .     S
C1165  C1202   1.544   .     S
C1165  N1262   1.398   .     A
C1165  C1860   1.453   1_545 S
C1166  N1261   1.383   .     A
C1166  C1206   1.520   .     S
C1166  C1511   1.452   .     S
C1167  O1274   1.300   .     A
C1167  O1271   1.307   .     A
C1167  C1173   1.404   .     S
C1168  O1272   1.303   .     A
C1168  O1273   1.306   .     A
C1168  C1171   1.406   .     S
C1169  C1180   1.378   .     A
C1169  C1171   1.383   .     A
C1169  H1213   1.084   .     S
C1170  C1181   1.379   .     A
C1170  H1224   1.084   .     S
C1170  C1173   1.381   .     A
C1171  C1174   1.385   .     A
C1172  O1269   1.312   .     A
C1172  C1212   1.447   .     S
C1172  O1268   1.315   .     A
C1173  C1175   1.384   .     A
C1174  C1176   1.390   .     A
C1174  H1235   1.082   .     S
C1175  H1246   1.082   .     S
C1175  C1177   1.390   .     A
C1176  C1182   1.418   .     A
C1176  C1178   1.423   .     A
C1177  C1184   1.418   .     A
C1177  C1179   1.423   .     A
C1178  C1180   1.413   .     A
C1178  C135    1.388   1_556 S
C1179  C1181   1.413   .     A
C1180  C1194   1.396   .     A
C1181  C1183   1.396   .     A
C1182  C1185   1.519   .     S
C1182  C139    1.394   1_556 S
C1183  H1256   1.084   .     S
C1184  C1188   1.519   .     S
C1185  H1216   1.113   .     S
C1185  H1217   1.111   .     S
C1185  C1186   1.535   .     S
C1186  H1215   1.112   .     S
C1186  H1214   1.110   .     S
C1187  H1258   1.110   .     S
C1187  H1259   1.111   .     S
C1187  H1260   1.108   .     S
C1187  C1302   1.527   .     S
C1188  C1189   1.537   .     S
C1188  H1225   1.113   .     S
C1188  H1223   1.111   .     S
C1189  H1222   1.111   .     S
C1189  H1221   1.112   .     S
C1189  C1306   1.525   .     S
C1190  H1220   1.111   .     S
C1190  H1219   1.110   .     S
C1191  N1263   1.158   .     T
C1191  C1205   1.453   .     S
C1192  N1264   1.158   .     T
C1192  C1209   1.457   .     S
C1193  N1265   1.158   .     T
C1193  C1210   1.451   .     S
C1194  H1257   1.085   .     S
C1194  C140    1.394   1_556 S
C1195  C1211   1.455   .     S
C1195  N1266   1.157   .     T
C1196  C1197   1.537   .     S
C1196  H1231   1.093   .     S
C1196  H1232   1.087   .     S
C1197  H1229   1.101   .     S
C1197  H1230   1.105   .     S
C1197  C1198   1.532   .     S
C1198  H1226   1.111   .     S
C1198  H1228   1.110   .     S
C1198  H1227   1.110   .     S
C1199  C1200   1.562   .     S
C1199  H1240   1.109   .     S
C1199  H1239   1.096   .     S
C1200  C1201   1.531   .     S
C1200  H1238   1.098   .     S
C1200  H1237   1.110   .     S
C1201  H1234   1.109   .     S
C1201  H1236   1.111   .     S
C1201  H1233   1.109   .     S
C1202  H1248   1.082   .     S
C1202  C1203   1.538   .     S
C1202  H1247   1.092   .     S
C1203  H1244   1.103   .     S
C1203  H1245   1.107   .     S
C1203  C1204   1.532   .     S
C1204  H1243   1.109   .     S
C1204  H1242   1.110   .     S
C1204  H1241   1.111   .     S
C1206  C1207   1.561   .     S
C1206  H1255   1.110   .     S
C1206  H1254   1.096   .     S
C1207  H1252   1.107   .     S
C1207  C1208   1.526   .     S
C1207  H1253   1.100   .     S
C1208  H1251   1.111   .     S
C1208  H1250   1.111   .     S
C1208  H1249   1.108   .     S
C1209  C1212   1.406   .     A
C1209  C1327   1.386   .     S
C1210  C1212   1.398   .     A
C1210  C1321   1.376   .     S
H1218  C1306   1.110   .     S
N1261  Zn1275  2.072   .     S
N1262  Zn1276  2.072   .     S
O1267  Zn1275  2.001   .     S
O1268  Zn1276  2.001   .     S
O1269  Zn1275  1.991   .     S
O1270  Zn1276  1.991   .     S
O1271  Zn1275  1.989   .     S
O1272  Zn1276  1.989   .     S
O1273  Zn1275  1.989   .     S
O1274  Zn1276  1.989   .     S
C1277  C1278   1.451   .     S
C1277  O1386   1.321   .     A
C1277  O1383   1.308   .     A
C1278  C1321   1.410   .     A
C1278  C1327   1.423   .     A
C1279  N1378   1.398   .     A
C1279  C1312   1.547   .     S
C1279  C1978   1.452   1_545 S
C1280  C1315   1.526   .     S
C1280  N1377   1.384   .     A
C1280  C1629   1.453   .     S
C1281  C1318   1.544   .     S
C1281  N1378   1.398   .     A
C1281  C1976   1.453   1_545 S
C1282  N1377   1.383   .     A
C1282  C1322   1.520   .     S
C1282  C1627   1.452   .     S
C1283  O1390   1.300   .     A
C1283  O1387   1.307   .     A
C1283  C1289   1.404   .     S
C1284  O1388   1.303   .     A
C1284  O1389   1.306   .     A
C1284  C1287   1.406   .     S
C1285  C1296   1.378   .     A
C1285  C1287   1.383   .     A
C1285  H1329   1.084   .     S
C1286  C1297   1.379   .     A
C1286  H1340   1.084   .     S
C1286  C1289   1.381   .     A
C1287  C1290   1.385   .     A
C1288  O1385   1.312   .     A
C1288  C1328   1.447   .     S
C1288  O1384   1.315   .     A
C1289  C1291   1.384   .     A
C1290  C1292   1.390   .     A
C1290  H1351   1.082   .     S
C1291  H1362   1.082   .     S
C1291  C1293   1.390   .     A
C1292  C1298   1.418   .     A
C1292  C1294   1.423   .     A
C1293  C1300   1.418   .     A
C1293  C1295   1.423   .     A
C1294  C1296   1.413   .     A
C1294  C251    1.388   1_556 S
C1295  C1297   1.413   .     A
C1296  C1310   1.396   .     A
C1297  C1299   1.396   .     A
C1298  C1301   1.519   .     S
C1298  C255    1.394   1_556 S
C1299  H1372   1.084   .     S
C1300  C1304   1.519   .     S
C1301  H1332   1.113   .     S
C1301  H1333   1.111   .     S
C1301  C1302   1.535   .     S
C1302  H1331   1.112   .     S
C1302  H1330   1.110   .     S
C1303  H1374   1.110   .     S
C1303  H1375   1.111   .     S
C1303  H1376   1.108   .     S
C1303  C1070   1.527   1_655 S
C1304  C1305   1.537   .     S
C1304  H1341   1.113   .     S
C1304  H1339   1.111   .     S
C1305  H1338   1.111   .     S
C1305  H1337   1.112   .     S
C1305  C1074   1.525   1_655 S
C1306  H1336   1.111   .     S
C1306  H1335   1.110   .     S
C1307  N1379   1.158   .     T
C1307  C1321   1.453   .     S
C1308  N1380   1.158   .     T
C1308  C1325   1.457   .     S
C1309  N1381   1.158   .     T
C1309  C1326   1.451   .     S
C1310  H1373   1.085   .     S
C1310  C256    1.394   1_556 S
C1311  C1327   1.455   .     S
C1311  N1382   1.157   .     T
C1312  C1313   1.537   .     S
C1312  H1347   1.093   .     S
C1312  H1348   1.087   .     S
C1313  H1345   1.101   .     S
C1313  H1346   1.105   .     S
C1313  C1314   1.532   .     S
C1314  H1342   1.111   .     S
C1314  H1344   1.110   .     S
C1314  H1343   1.110   .     S
C1315  C1316   1.562   .     S
C1315  H1356   1.109   .     S
C1315  H1355   1.096   .     S
C1316  C1317   1.531   .     S
C1316  H1354   1.098   .     S
C1316  H1353   1.110   .     S
C1317  H1350   1.109   .     S
C1317  H1352   1.111   .     S
C1317  H1349   1.109   .     S
C1318  H1364   1.082   .     S
C1318  C1319   1.538   .     S
C1318  H1363   1.092   .     S
C1319  H1360   1.103   .     S
C1319  H1361   1.107   .     S
C1319  C1320   1.532   .     S
C1320  H1359   1.109   .     S
C1320  H1358   1.110   .     S
C1320  H1357   1.111   .     S
C1322  C1323   1.561   .     S
C1322  H1371   1.110   .     S
C1322  H1370   1.096   .     S
C1323  H1368   1.107   .     S
C1323  C1324   1.526   .     S
C1323  H1369   1.100   .     S
C1324  H1367   1.111   .     S
C1324  H1366   1.111   .     S
C1324  H1365   1.108   .     S
C1325  C1328   1.406   .     A
C1325  C1095   1.386   1_655 S
C1326  C1328   1.398   .     A
C1326  C1089   1.376   1_655 S
H1334  C1074   1.110   1_655 S
N1377  Zn1391  2.072   .     S
N1378  Zn1392  2.072   .     S
O1383  Zn1391  2.001   .     S
O1384  Zn1392  2.001   .     S
O1385  Zn1391  1.991   .     S
O1386  Zn1392  1.991   .     S
O1387  Zn1391  1.989   .     S
O1388  Zn1392  1.989   .     S
O1389  Zn1391  1.989   .     S
O1390  Zn1392  1.989   .     S
C1393  C1394   1.451   .     S
C1393  O1502   1.321   .     A
C1393  O1499   1.308   .     A
C1394  C1437   1.410   .     A
C1394  C1443   1.423   .     A
C1395  N1494   1.398   .     A
C1395  C1428   1.547   .     S
C1396  C1431   1.526   .     S
C1396  N1493   1.384   .     A
C1396  C1745   1.453   .     S
C1397  C1434   1.544   .     S
C1397  N1494   1.398   .     A
C1398  N1493   1.383   .     A
C1398  C1438   1.520   .     S
C1398  C1743   1.452   .     S
C1399  O1506   1.300   .     A
C1399  O1503   1.307   .     A
C1399  C1405   1.404   .     S
C1400  O1504   1.303   .     A
C1400  O1505   1.306   .     A
C1400  C1403   1.406   .     S
C1401  C1412   1.378   .     A
C1401  C1403   1.383   .     A
C1401  H1445   1.084   .     S
C1402  C1413   1.379   .     A
C1402  H1456   1.084   .     S
C1402  C1405   1.381   .     A
C1403  C1406   1.385   .     A
C1404  O1501   1.312   .     A
C1404  C1444   1.447   .     S
C1404  O1500   1.315   .     A
C1405  C1407   1.384   .     A
C1406  C1408   1.390   .     A
C1406  H1467   1.082   .     S
C1407  H1478   1.082   .     S
C1407  C1409   1.390   .     A
C1408  C1414   1.418   .     A
C1408  C1410   1.423   .     A
C1409  C1416   1.418   .     A
C1409  C1411   1.423   .     A
C1410  C1412   1.413   .     A
C1410  C367    1.388   1_556 S
C1411  C1413   1.413   .     A
C1412  C1426   1.396   .     A
C1413  C1415   1.396   .     A
C1414  C1417   1.519   .     S
C1414  C371    1.394   1_556 S
C1415  H1488   1.084   .     S
C1416  C1420   1.519   .     S
C1417  H1448   1.113   .     S
C1417  H1449   1.111   .     S
C1417  C1418   1.535   .     S
C1418  H1447   1.112   .     S
C1418  H1446   1.110   .     S
C1418  C1651   1.527   1_455 S
C1419  H1490   1.110   .     S
C1419  H1491   1.111   .     S
C1419  H1492   1.108   .     S
C1419  C1534   1.527   .     S
C1420  C1421   1.537   .     S
C1420  H1457   1.113   .     S
C1420  H1455   1.111   .     S
C1421  H1454   1.111   .     S
C1421  H1453   1.112   .     S
C1421  C1538   1.525   .     S
C1422  H1452   1.111   .     S
C1422  H1451   1.110   .     S
C1422  C1653   1.525   1_455 S
C1422  H1682   1.110   1_455 S
C1423  N1495   1.158   .     T
C1423  C1437   1.453   .     S
C1424  N1496   1.158   .     T
C1424  C1441   1.457   .     S
C1425  N1497   1.158   .     T
C1425  C1442   1.451   .     S
C1426  H1489   1.085   .     S
C1426  C372    1.394   1_556 S
C1427  C1443   1.455   .     S
C1427  N1498   1.157   .     T
C1428  C1429   1.537   .     S
C1428  H1463   1.093   .     S
C1428  H1464   1.087   .     S
C1429  H1461   1.101   .     S
C1429  H1462   1.105   .     S
C1429  C1430   1.532   .     S
C1430  H1458   1.111   .     S
C1430  H1460   1.110   .     S
C1430  H1459   1.110   .     S
C1431  C1432   1.562   .     S
C1431  H1472   1.109   .     S
C1431  H1471   1.096   .     S
C1432  C1433   1.531   .     S
C1432  H1470   1.098   .     S
C1432  H1469   1.110   .     S
C1433  H1466   1.109   .     S
C1433  H1468   1.111   .     S
C1433  H1465   1.109   .     S
C1434  H1480   1.082   .     S
C1434  C1435   1.538   .     S
C1434  H1479   1.092   .     S
C1435  H1476   1.103   .     S
C1435  H1477   1.107   .     S
C1435  C1436   1.532   .     S
C1436  H1475   1.109   .     S
C1436  H1474   1.110   .     S
C1436  H1473   1.111   .     S
C1437  C1674   1.376   1_455 S
C1438  C1439   1.561   .     S
C1438  H1487   1.110   .     S
C1438  H1486   1.096   .     S
C1439  H1484   1.107   .     S
C1439  C1440   1.526   .     S
C1439  H1485   1.100   .     S
C1440  H1483   1.111   .     S
C1440  H1482   1.111   .     S
C1440  H1481   1.108   .     S
C1441  C1444   1.406   .     A
C1441  C1559   1.386   .     S
C1442  C1444   1.398   .     A
C1442  C1553   1.376   .     S
C1443  C1673   1.386   1_455 S
H1450  C1538   1.110   .     S
N1493  Zn1507  2.072   .     S
N1494  Zn1508  2.072   .     S
O1499  Zn1507  2.001   .     S
O1500  Zn1508  2.001   .     S
O1501  Zn1507  1.991   .     S
O1502  Zn1508  1.991   .     S
O1503  Zn1507  1.989   .     S
O1504  Zn1508  1.989   .     S
O1505  Zn1507  1.989   .     S
O1506  Zn1508  1.989   .     S
C1509  C1510   1.451   .     S
C1509  O1618   1.321   .     A
C1509  O1615   1.308   .     A
C1510  C1553   1.410   .     A
C1510  C1559   1.423   .     A
C1511  N1610   1.398   .     A
C1511  C1544   1.547   .     S
C1512  C1547   1.526   .     S
C1512  N1609   1.384   .     A
C1512  C1861   1.453   .     S
C1513  C1550   1.544   .     S
C1513  N1610   1.398   .     A
C1514  N1609   1.383   .     A
C1514  C1554   1.520   .     S
C1514  C1859   1.452   .     S
C1515  O1622   1.300   .     A
C1515  O1619   1.307   .     A
C1515  C1521   1.404   .     S
C1516  O1620   1.303   .     A
C1516  O1621   1.306   .     A
C1516  C1519   1.406   .     S
C1517  C1528   1.378   .     A
C1517  C1519   1.383   .     A
C1517  H1561   1.084   .     S
C1518  C1529   1.379   .     A
C1518  H1572   1.084   .     S
C1518  C1521   1.381   .     A
C1519  C1522   1.385   .     A
C1520  O1617   1.312   .     A
C1520  C1560   1.447   .     S
C1520  O1616   1.315   .     A
C1521  C1523   1.384   .     A
C1522  C1524   1.390   .     A
C1522  H1583   1.082   .     S
C1523  H1594   1.082   .     S
C1523  C1525   1.390   .     A
C1524  C1530   1.418   .     A
C1524  C1526   1.423   .     A
C1525  C1532   1.418   .     A
C1525  C1527   1.423   .     A
C1526  C1528   1.413   .     A
C1526  C483    1.388   1_556 S
C1527  C1529   1.413   .     A
C1528  C1542   1.396   .     A
C1529  C1531   1.396   .     A
C1530  C1533   1.519   .     S
C1530  C487    1.394   1_556 S
C1531  H1604   1.084   .     S
C1532  C1536   1.519   .     S
C1533  H1564   1.113   .     S
C1533  H1565   1.111   .     S
C1533  C1534   1.535   .     S
C1534  H1563   1.112   .     S
C1534  H1562   1.110   .     S
C1535  H1606   1.110   .     S
C1535  H1607   1.111   .     S
C1535  H1608   1.108   .     S
C1535  C1650   1.527   .     S
C1536  C1537   1.537   .     S
C1536  H1573   1.113   .     S
C1536  H1571   1.111   .     S
C1537  H1570   1.111   .     S
C1537  H1569   1.112   .     S
C1537  C1654   1.525   .     S
C1538  H1568   1.111   .     S
C1538  H1567   1.110   .     S
C1539  N1611   1.158   .     T
C1539  C1553   1.453   .     S
C1540  N1612   1.158   .     T
C1540  C1557   1.457   .     S
C1541  N1613   1.158   .     T
C1541  C1558   1.451   .     S
C1542  H1605   1.085   .     S
C1542  C488    1.394   1_556 S
C1543  C1559   1.455   .     S
C1543  N1614   1.157   .     T
C1544  C1545   1.537   .     S
C1544  H1579   1.093   .     S
C1544  H1580   1.087   .     S
C1545  H1577   1.101   .     S
C1545  H1578   1.105   .     S
C1545  C1546   1.532   .     S
C1546  H1574   1.111   .     S
C1546  H1576   1.110   .     S
C1546  H1575   1.110   .     S
C1547  C1548   1.562   .     S
C1547  H1588   1.109   .     S
C1547  H1587   1.096   .     S
C1548  C1549   1.531   .     S
C1548  H1586   1.098   .     S
C1548  H1585   1.110   .     S
C1549  H1582   1.109   .     S
C1549  H1584   1.111   .     S
C1549  H1581   1.109   .     S
C1550  H1596   1.082   .     S
C1550  C1551   1.538   .     S
C1550  H1595   1.092   .     S
C1551  H1592   1.103   .     S
C1551  H1593   1.107   .     S
C1551  C1552   1.532   .     S
C1552  H1591   1.109   .     S
C1552  H1590   1.110   .     S
C1552  H1589   1.111   .     S
C1554  C1555   1.561   .     S
C1554  H1603   1.110   .     S
C1554  H1602   1.096   .     S
C1555  H1600   1.107   .     S
C1555  C1556   1.526   .     S
C1555  H1601   1.100   .     S
C1556  H1599   1.111   .     S
C1556  H1598   1.111   .     S
C1556  H1597   1.108   .     S
C1557  C1560   1.406   .     A
C1557  C1675   1.386   .     S
C1558  C1560   1.398   .     A
C1558  C1669   1.376   .     S
H1566  C1654   1.110   .     S
N1609  Zn1623  2.072   .     S
N1610  Zn1624  2.072   .     S
O1615  Zn1623  2.001   .     S
O1616  Zn1624  2.001   .     S
O1617  Zn1623  1.991   .     S
O1618  Zn1624  1.991   .     S
O1619  Zn1623  1.989   .     S
O1620  Zn1624  1.989   .     S
O1621  Zn1623  1.989   .     S
O1622  Zn1624  1.989   .     S
C1625  C1626   1.451   .     S
C1625  O1734   1.321   .     A
C1625  O1731   1.308   .     A
C1626  C1669   1.410   .     A
C1626  C1675   1.423   .     A
C1627  N1726   1.398   .     A
C1627  C1660   1.547   .     S
C1628  C1663   1.526   .     S
C1628  N1725   1.384   .     A
C1628  C1977   1.453   .     S
C1629  C1666   1.544   .     S
C1629  N1726   1.398   .     A
C1630  N1725   1.383   .     A
C1630  C1670   1.520   .     S
C1630  C1975   1.452   .     S
C1631  O1738   1.300   .     A
C1631  O1735   1.307   .     A
C1631  C1637   1.404   .     S
C1632  O1736   1.303   .     A
C1632  O1737   1.306   .     A
C1632  C1635   1.406   .     S
C1633  C1644   1.378   .     A
C1633  C1635   1.383   .     A
C1633  H1677   1.084   .     S
C1634  C1645   1.379   .     A
C1634  H1688   1.084   .     S
C1634  C1637   1.381   .     A
C1635  C1638   1.385   .     A
C1636  O1733   1.312   .     A
C1636  C1676   1.447   .     S
C1636  O1732   1.315   .     A
C1637  C1639   1.384   .     A
C1638  C1640   1.390   .     A
C1638  H1699   1.082   .     S
C1639  H1710   1.082   .     S
C1639  C1641   1.390   .     A
C1640  C1646   1.418   .     A
C1640  C1642   1.423   .     A
C1641  C1648   1.418   .     A
C1641  C1643   1.423   .     A
C1642  C1644   1.413   .     A
C1642  C599    1.388   1_556 S
C1643  C1645   1.413   .     A
C1644  C1658   1.396   .     A
C1645  C1647   1.396   .     A
C1646  C1649   1.519   .     S
C1646  C603    1.394   1_556 S
C1647  H1720   1.084   .     S
C1648  C1652   1.519   .     S
C1649  H1680   1.113   .     S
C1649  H1681   1.111   .     S
C1649  C1650   1.535   .     S
C1650  H1679   1.112   .     S
C1650  H1678   1.110   .     S
C1651  H1722   1.110   .     S
C1651  H1723   1.111   .     S
C1651  H1724   1.108   .     S
C1651  C1418   1.527   1_655 S
C1652  C1653   1.537   .     S
C1652  H1689   1.113   .     S
C1652  H1687   1.111   .     S
C1653  H1686   1.111   .     S
C1653  H1685   1.112   .     S
C1653  C1422   1.525   1_655 S
C1654  H1684   1.111   .     S
C1654  H1683   1.110   .     S
C1655  N1727   1.158   .     T
C1655  C1669   1.453   .     S
C1656  N1728   1.158   .     T
C1656  C1673   1.457   .     S
C1657  N1729   1.158   .     T
C1657  C1674   1.451   .     S
C1658  H1721   1.085   .     S
C1658  C604    1.394   1_556 S
C1659  C1675   1.455   .     S
C1659  N1730   1.157   .     T
C1660  C1661   1.537   .     S
C1660  H1695   1.093   .     S
C1660  H1696   1.087   .     S
C1661  H1693   1.101   .     S
C1661  H1694   1.105   .     S
C1661  C1662   1.532   .     S
C1662  H1690   1.111   .     S
C1662  H1692   1.110   .     S
C1662  H1691   1.110   .     S
C1663  C1664   1.562   .     S
C1663  H1704   1.109   .     S
C1663  H1703   1.096   .     S
C1664  C1665   1.531   .     S
C1664  H1702   1.098   .     S
C1664  H1701   1.110   .     S
C1665  H1698   1.109   .     S
C1665  H1700   1.111   .     S
C1665  H1697   1.109   .     S
C1666  H1712   1.082   .     S
C1666  C1667   1.538   .     S
C1666  H1711   1.092   .     S
C1667  H1708   1.103   .     S
C1667  H1709   1.107   .     S
C1667  C1668   1.532   .     S
C1668  H1707   1.109   .     S
C1668  H1706   1.110   .     S
C1668  H1705   1.111   .     S
C1670  C1671   1.561   .     S
C1670  H1719   1.110   .     S
C1670  H1718   1.096   .     S
C1671  H1716   1.107   .     S
C1671  C1672   1.526   .     S
C1671  H1717   1.100   .     S
C1672  H1715   1.111   .     S
C1672  H1714   1.111   .     S
C1672  H1713   1.108   .     S
C1673  C1676   1.406   .     A
C1673  C1443   1.386   1_655 S
C1674  C1676   1.398   .     A
C1674  C1437   1.376   1_655 S
H1682  C1422   1.110   1_655 S
N1725  Zn1739  2.072   .     S
N1726  Zn1740  2.072   .     S
O1731  Zn1739  2.001   .     S
O1732  Zn1740  2.001   .     S
O1733  Zn1739  1.991   .     S
O1734  Zn1740  1.991   .     S
O1735  Zn1739  1.989   .     S
O1736  Zn1740  1.989   .     S
O1737  Zn1739  1.989   .     S
O1738  Zn1740  1.989   .     S
C1741  C1742   1.451   .     S
C1741  O1850   1.321   .     A
C1741  O1847   1.308   .     A
C1742  C1785   1.410   .     A
C1742  C1791   1.423   .     A
C1743  N1842   1.398   .     A
C1743  C1776   1.547   .     S
C1744  C1779   1.526   .     S
C1744  N1841   1.384   .     A
C1744  C1049   1.453   1_565 S
C1745  C1782   1.544   .     S
C1745  N1842   1.398   .     A
C1746  N1841   1.383   .     A
C1746  C1786   1.520   .     S
C1746  C1047   1.452   1_565 S
C1747  O1854   1.300   .     A
C1747  O1851   1.307   .     A
C1747  C1753   1.404   .     S
C1748  O1852   1.303   .     A
C1748  O1853   1.306   .     A
C1748  C1751   1.406   .     S
C1749  C1760   1.378   .     A
C1749  C1751   1.383   .     A
C1749  H1793   1.084   .     S
C1750  C1761   1.379   .     A
C1750  H1804   1.084   .     S
C1750  C1753   1.381   .     A
C1751  C1754   1.385   .     A
C1752  O1849   1.312   .     A
C1752  C1792   1.447   .     S
C1752  O1848   1.315   .     A
C1753  C1755   1.384   .     A
C1754  C1756   1.390   .     A
C1754  H1815   1.082   .     S
C1755  H1826   1.082   .     S
C1755  C1757   1.390   .     A
C1756  C1762   1.418   .     A
C1756  C1758   1.423   .     A
C1757  C1764   1.418   .     A
C1757  C1759   1.423   .     A
C1758  C1760   1.413   .     A
C1758  C715    1.388   1_556 S
C1759  C1761   1.413   .     A
C1760  C1774   1.396   .     A
C1761  C1763   1.396   .     A
C1762  C1765   1.519   .     S
C1762  C719    1.394   1_556 S
C1763  H1836   1.084   .     S
C1764  C1768   1.519   .     S
C1765  H1796   1.113   .     S
C1765  H1797   1.111   .     S
C1765  C1766   1.535   .     S
C1766  H1795   1.112   .     S
C1766  H1794   1.110   .     S
C1766  C1999   1.527   1_455 S
C1767  H1838   1.110   .     S
C1767  H1839   1.111   .     S
C1767  H1840   1.108   .     S
C1767  C1882   1.527   .     S
C1768  C1769   1.537   .     S
C1768  H1805   1.113   .     S
C1768  H1803   1.111   .     S
C1769  H1802   1.111   .     S
C1769  H1801   1.112   .     S
C1769  C1886   1.525   .     S
C1770  H1800   1.111   .     S
C1770  H1799   1.110   .     S
C1770  C2001   1.525   1_455 S
C1770  H2030   1.110   1_455 S
C1771  N1843   1.158   .     T
C1771  C1785   1.453   .     S
C1772  N1844   1.158   .     T
C1772  C1789   1.457   .     S
C1773  N1845   1.158   .     T
C1773  C1790   1.451   .     S
C1774  H1837   1.085   .     S
C1774  C720    1.394   1_556 S
C1775  C1791   1.455   .     S
C1775  N1846   1.157   .     T
C1776  C1777   1.537   .     S
C1776  H1811   1.093   .     S
C1776  H1812   1.087   .     S
C1777  H1809   1.101   .     S
C1777  H1810   1.105   .     S
C1777  C1778   1.532   .     S
C1778  H1806   1.111   .     S
C1778  H1808   1.110   .     S
C1778  H1807   1.110   .     S
C1779  C1780   1.562   .     S
C1779  H1820   1.109   .     S
C1779  H1819   1.096   .     S
C1780  C1781   1.531   .     S
C1780  H1818   1.098   .     S
C1780  H1817   1.110   .     S
C1781  H1814   1.109   .     S
C1781  H1816   1.111   .     S
C1781  H1813   1.109   .     S
C1782  H1828   1.082   .     S
C1782  C1783   1.538   .     S
C1782  H1827   1.092   .     S
C1783  H1824   1.103   .     S
C1783  H1825   1.107   .     S
C1783  C1784   1.532   .     S
C1784  H1823   1.109   .     S
C1784  H1822   1.110   .     S
C1784  H1821   1.111   .     S
C1785  C2022   1.376   1_455 S
C1786  C1787   1.561   .     S
C1786  H1835   1.110   .     S
C1786  H1834   1.096   .     S
C1787  H1832   1.107   .     S
C1787  C1788   1.526   .     S
C1787  H1833   1.100   .     S
C1788  H1831   1.111   .     S
C1788  H1830   1.111   .     S
C1788  H1829   1.108   .     S
C1789  C1792   1.406   .     A
C1789  C1907   1.386   .     S
C1790  C1792   1.398   .     A
C1790  C1901   1.376   .     S
C1791  C2021   1.386   1_455 S
H1798  C1886   1.110   .     S
N1841  Zn1855  2.072   .     S
N1842  Zn1856  2.072   .     S
O1847  Zn1855  2.001   .     S
O1848  Zn1856  2.001   .     S
O1849  Zn1855  1.991   .     S
O1850  Zn1856  1.991   .     S
O1851  Zn1855  1.989   .     S
O1852  Zn1856  1.989   .     S
O1853  Zn1855  1.989   .     S
O1854  Zn1856  1.989   .     S
C1857  C1858   1.451   .     S
C1857  O1966   1.321   .     A
C1857  O1963   1.308   .     A
C1858  C1901   1.410   .     A
C1858  C1907   1.423   .     A
C1859  N1958   1.398   .     A
C1859  C1892   1.547   .     S
C1860  C1895   1.526   .     S
C1860  N1957   1.384   .     A
C1860  C1165   1.453   1_565 S
C1861  C1898   1.544   .     S
C1861  N1958   1.398   .     A
C1862  N1957   1.383   .     A
C1862  C1902   1.520   .     S
C1862  C1163   1.452   1_565 S
C1863  O1970   1.300   .     A
C1863  O1967   1.307   .     A
C1863  C1869   1.404   .     S
C1864  O1968   1.303   .     A
C1864  O1969   1.306   .     A
C1864  C1867   1.406   .     S
C1865  C1876   1.378   .     A
C1865  C1867   1.383   .     A
C1865  H1909   1.084   .     S
C1866  C1877   1.379   .     A
C1866  H1920   1.084   .     S
C1866  C1869   1.381   .     A
C1867  C1870   1.385   .     A
C1868  O1965   1.312   .     A
C1868  C1908   1.447   .     S
C1868  O1964   1.315   .     A
C1869  C1871   1.384   .     A
C1870  C1872   1.390   .     A
C1870  H1931   1.082   .     S
C1871  H1942   1.082   .     S
C1871  C1873   1.390   .     A
C1872  C1878   1.418   .     A
C1872  C1874   1.423   .     A
C1873  C1880   1.418   .     A
C1873  C1875   1.423   .     A
C1874  C1876   1.413   .     A
C1874  C831    1.388   1_556 S
C1875  C1877   1.413   .     A
C1876  C1890   1.396   .     A
C1877  C1879   1.396   .     A
C1878  C1881   1.519   .     S
C1878  C835    1.394   1_556 S
C1879  H1952   1.084   .     S
C1880  C1884   1.519   .     S
C1881  H1912   1.113   .     S
C1881  H1913   1.111   .     S
C1881  C1882   1.535   .     S
C1882  H1911   1.112   .     S
C1882  H1910   1.110   .     S
C1883  H1954   1.110   .     S
C1883  H1955   1.111   .     S
C1883  H1956   1.108   .     S
C1883  C1998   1.527   .     S
C1884  C1885   1.537   .     S
C1884  H1921   1.113   .     S
C1884  H1919   1.111   .     S
C1885  H1918   1.111   .     S
C1885  H1917   1.112   .     S
C1885  C2002   1.525   .     S
C1886  H1916   1.111   .     S
C1886  H1915   1.110   .     S
C1887  N1959   1.158   .     T
C1887  C1901   1.453   .     S
C1888  N1960   1.158   .     T
C1888  C1905   1.457   .     S
C1889  N1961   1.158   .     T
C1889  C1906   1.451   .     S
C1890  H1953   1.085   .     S
C1890  C836    1.394   1_556 S
C1891  C1907   1.455   .     S
C1891  N1962   1.157   .     T
C1892  C1893   1.537   .     S
C1892  H1927   1.093   .     S
C1892  H1928   1.087   .     S
C1893  H1925   1.101   .     S
C1893  H1926   1.105   .     S
C1893  C1894   1.532   .     S
C1894  H1922   1.111   .     S
C1894  H1924   1.110   .     S
C1894  H1923   1.110   .     S
C1895  C1896   1.562   .     S
C1895  H1936   1.109   .     S
C1895  H1935   1.096   .     S
C1896  C1897   1.531   .     S
C1896  H1934   1.098   .     S
C1896  H1933   1.110   .     S
C1897  H1930   1.109   .     S
C1897  H1932   1.111   .     S
C1897  H1929   1.109   .     S
C1898  H1944   1.082   .     S
C1898  C1899   1.538   .     S
C1898  H1943   1.092   .     S
C1899  H1940   1.103   .     S
C1899  H1941   1.107   .     S
C1899  C1900   1.532   .     S
C1900  H1939   1.109   .     S
C1900  H1938   1.110   .     S
C1900  H1937   1.111   .     S
C1902  C1903   1.561   .     S
C1902  H1951   1.110   .     S
C1902  H1950   1.096   .     S
C1903  H1948   1.107   .     S
C1903  C1904   1.526   .     S
C1903  H1949   1.100   .     S
C1904  H1947   1.111   .     S
C1904  H1946   1.111   .     S
C1904  H1945   1.108   .     S
C1905  C1908   1.406   .     A
C1905  C2023   1.386   .     S
C1906  C1908   1.398   .     A
C1906  C2017   1.376   .     S
H1914  C2002   1.110   .     S
N1957  Zn1971  2.072   .     S
N1958  Zn1972  2.072   .     S
O1963  Zn1971  2.001   .     S
O1964  Zn1972  2.001   .     S
O1965  Zn1971  1.991   .     S
O1966  Zn1972  1.991   .     S
O1967  Zn1971  1.989   .     S
O1968  Zn1972  1.989   .     S
O1969  Zn1971  1.989   .     S
O1970  Zn1972  1.989   .     S
C1973  C1974   1.451   .     S
C1973  O2082   1.321   .     A
C1973  O2079   1.308   .     A
C1974  C2017   1.410   .     A
C1974  C2023   1.423   .     A
C1975  N2074   1.398   .     A
C1975  C2008   1.547   .     S
C1976  C2011   1.526   .     S
C1976  N2073   1.384   .     A
C1976  C1281   1.453   1_565 S
C1977  C2014   1.544   .     S
C1977  N2074   1.398   .     A
C1978  N2073   1.383   .     A
C1978  C2018   1.520   .     S
C1978  C1279   1.452   1_565 S
C1979  O2086   1.300   .     A
C1979  O2083   1.307   .     A
C1979  C1985   1.404   .     S
C1980  O2084   1.303   .     A
C1980  O2085   1.306   .     A
C1980  C1983   1.406   .     S
C1981  C1992   1.378   .     A
C1981  C1983   1.383   .     A
C1981  H2025   1.084   .     S
C1982  C1993   1.379   .     A
C1982  H2036   1.084   .     S
C1982  C1985   1.381   .     A
C1983  C1986   1.385   .     A
C1984  O2081   1.312   .     A
C1984  C2024   1.447   .     S
C1984  O2080   1.315   .     A
C1985  C1987   1.384   .     A
C1986  C1988   1.390   .     A
C1986  H2047   1.082   .     S
C1987  H2058   1.082   .     S
C1987  C1989   1.390   .     A
C1988  C1994   1.418   .     A
C1988  C1990   1.423   .     A
C1989  C1996   1.418   .     A
C1989  C1991   1.423   .     A
C1990  C1992   1.413   .     A
C1990  C947    1.388   1_556 S
C1991  C1993   1.413   .     A
C1992  C2006   1.396   .     A
C1993  C1995   1.396   .     A
C1994  C1997   1.519   .     S
C1994  C951    1.394   1_556 S
C1995  H2068   1.084   .     S
C1996  C2000   1.519   .     S
C1997  H2028   1.113   .     S
C1997  H2029   1.111   .     S
C1997  C1998   1.535   .     S
C1998  H2027   1.112   .     S
C1998  H2026   1.110   .     S
C1999  H2070   1.110   .     S
C1999  H2071   1.111   .     S
C1999  H2072   1.108   .     S
C1999  C1766   1.527   1_655 S
C2000  C2001   1.537   .     S
C2000  H2037   1.113   .     S
C2000  H2035   1.111   .     S
C2001  H2034   1.111   .     S
C2001  H2033   1.112   .     S
C2001  C1770   1.525   1_655 S
C2002  H2032   1.111   .     S
C2002  H2031   1.110   .     S
C2003  N2075   1.158   .     T
C2003  C2017   1.453   .     S
C2004  N2076   1.158   .     T
C2004  C2021   1.457   .     S
C2005  N2077   1.158   .     T
C2005  C2022   1.451   .     S
C2006  H2069   1.085   .     S
C2006  C952    1.394   1_556 S
C2007  C2023   1.455   .     S
C2007  N2078   1.157   .     T
C2008  C2009   1.537   .     S
C2008  H2043   1.093   .     S
C2008  H2044   1.087   .     S
C2009  H2041   1.101   .     S
C2009  H2042   1.105   .     S
C2009  C2010   1.532   .     S
C2010  H2038   1.111   .     S
C2010  H2040   1.110   .     S
C2010  H2039   1.110   .     S
C2011  C2012   1.562   .     S
C2011  H2052   1.109   .     S
C2011  H2051   1.096   .     S
C2012  C2013   1.531   .     S
C2012  H2050   1.098   .     S
C2012  H2049   1.110   .     S
C2013  H2046   1.109   .     S
C2013  H2048   1.111   .     S
C2013  H2045   1.109   .     S
C2014  H2060   1.082   .     S
C2014  C2015   1.538   .     S
C2014  H2059   1.092   .     S
C2015  H2056   1.103   .     S
C2015  H2057   1.107   .     S
C2015  C2016   1.532   .     S
C2016  H2055   1.109   .     S
C2016  H2054   1.110   .     S
C2016  H2053   1.111   .     S
C2018  C2019   1.561   .     S
C2018  H2067   1.110   .     S
C2018  H2066   1.096   .     S
C2019  H2064   1.107   .     S
C2019  C2020   1.526   .     S
C2019  H2065   1.100   .     S
C2020  H2063   1.111   .     S
C2020  H2062   1.111   .     S
C2020  H2061   1.108   .     S
C2021  C2024   1.406   .     A
C2021  C1791   1.386   1_655 S
C2022  C2024   1.398   .     A
C2022  C1785   1.376   1_655 S
H2030  C1770   1.110   1_655 S
N2073  Zn2087  2.072   .     S
N2074  Zn2088  2.072   .     S
O2079  Zn2087  2.001   .     S
O2080  Zn2088  2.001   .     S
O2081  Zn2087  1.991   .     S
O2082  Zn2088  1.991   .     S
O2083  Zn2087  1.989   .     S
O2084  Zn2088  1.989   .     S
O2085  Zn2087  1.989   .     S
O2086  Zn2088  1.989   .     S
