data_str_m2_o1_o10_pcu_sym.14
_audit_creation_date              2020-01-03
_audit_creation_method            'Materials Studio'
_symmetry_space_group_name_H-M    'P1'
_symmetry_Int_Tables_number       1
_symmetry_cell_setting            triclinic
loop_
_symmetry_equiv_pos_as_xyz
  x,y,z
_cell_length_a                    26.1868
_cell_length_b                    32.4888
_cell_length_c                    28.7027
_cell_angle_alpha                 89.5879
_cell_angle_beta                  97.5303
_cell_angle_gamma                 91.0681
loop_
_atom_site_label
_atom_site_type_symbol
_atom_site_fract_x
_atom_site_fract_y
_atom_site_fract_z
_atom_site_U_iso_or_equiv
_atom_site_adp_type
_atom_site_occupancy
Br1    Br    0.08719   0.10266   0.27139   0.00000  Uiso   1.00
Br2    Br    0.24615   0.23068   0.06194   0.00000  Uiso   1.00
C3     C     0.16661   0.08741   0.16674   0.00000  Uiso   1.00
C4     C     0.16997   0.02105   0.20935   0.00000  Uiso   1.00
C5     C     0.16674   0.29057   0.16656   0.00000  Uiso   1.00
C6     C     0.16660   0.04276   0.16677   0.00000  Uiso   1.00
C7     C     0.13453   0.14096   0.02156   0.00000  Uiso   1.00
C8     C     0.19880   0.19237   0.31177   0.00000  Uiso   1.00
C9     C     0.13434   0.14078   0.30557   0.00000  Uiso   1.00
C10    C     0.19899   0.19255   0.02776   0.00000  Uiso   1.00
C11    C     0.16672   0.24593   0.16659   0.00000  Uiso   1.00
C12    C     0.06801   0.16657   0.15469   0.00000  Uiso   1.00
C13    C     0.26532   0.16676   0.17865   0.00000  Uiso   1.00
C14    C     0.01279   0.16630   0.14807   0.00000  Uiso   1.00
C15    C     0.32055   0.16703   0.18526   0.00000  Uiso   1.00
C16    C     0.16330   0.02153   0.12409   0.00000  Uiso   1.00
C17    C     0.17003   0.31180   0.20924   0.00000  Uiso   1.00
C18    C     0.16336   0.31229   0.12399   0.00000  Uiso   1.00
Cu19   Cu    0.16667   0.16667   0.21355   0.00000  Uiso   1.00
Cu20   Cu    0.16667   0.16666   0.11978   0.00000  Uiso   1.00
H21    H     0.32642   0.16542   0.11231   0.00000  Uiso   1.00
H22    H     0.00692   0.16792   0.22102   0.00000  Uiso   1.00
H23    H     0.16054   0.03773   0.09076   0.00000  Uiso   1.00
H24    H     0.17279   0.29560   0.24258   0.00000  Uiso   1.00
H25    H     0.16060   0.29648   0.09063   0.00000  Uiso   1.00
H26    H     0.17273   0.03686   0.24270   0.00000  Uiso   1.00
H27    H     0.10889   0.12037   0.03763   0.00000  Uiso   1.00
H28    H     0.22444   0.21296   0.29571   0.00000  Uiso   1.00
N29    N     0.16668   0.16668   0.28403   0.00000  Uiso   1.00
N30    N     0.16665   0.16666   0.04931   0.00000  Uiso   1.00
O31    O     0.16666   0.10655   0.20625   0.00000  Uiso   1.00
O32    O     0.16667   0.22678   0.12709   0.00000  Uiso   1.00
O33    O     0.16666   0.10654   0.12706   0.00000  Uiso   1.00
O34    O     0.16667   0.22679   0.20628   0.00000  Uiso   1.00
O35    O     0.09161   0.16667   0.19712   0.00000  Uiso   1.00
O36    O     0.24172   0.16666   0.13621   0.00000  Uiso   1.00
O37    O     0.09161   0.16666   0.11793   0.00000  Uiso   1.00
O38    O     0.24172   0.16667   0.21540   0.00000  Uiso   1.00
Br39   Br    0.42052   0.10266   0.27139   0.00000  Uiso   1.00
Br40   Br    0.57948   0.23068   0.06194   0.00000  Uiso   1.00
C41    C     0.49994   0.08741   0.16674   0.00000  Uiso   1.00
C42    C     0.50330   0.02105   0.20935   0.00000  Uiso   1.00
C43    C     0.50007   0.29057   0.16656   0.00000  Uiso   1.00
C44    C     0.49993   0.04276   0.16677   0.00000  Uiso   1.00
C45    C     0.46787   0.14096   0.02156   0.00000  Uiso   1.00
C46    C     0.53213   0.19237   0.31177   0.00000  Uiso   1.00
C47    C     0.46767   0.14078   0.30557   0.00000  Uiso   1.00
C48    C     0.53233   0.19255   0.02776   0.00000  Uiso   1.00
C49    C     0.50006   0.24593   0.16659   0.00000  Uiso   1.00
C50    C     0.40134   0.16657   0.15469   0.00000  Uiso   1.00
C51    C     0.59866   0.16676   0.17865   0.00000  Uiso   1.00
C52    C     0.34612   0.16630   0.14807   0.00000  Uiso   1.00
C53    C     0.65388   0.16703   0.18526   0.00000  Uiso   1.00
C54    C     0.49663   0.02153   0.12409   0.00000  Uiso   1.00
C55    C     0.50337   0.31180   0.20924   0.00000  Uiso   1.00
C56    C     0.49670   0.31229   0.12399   0.00000  Uiso   1.00
Cu57   Cu    0.50000   0.16667   0.21355   0.00000  Uiso   1.00
Cu58   Cu    0.50000   0.16666   0.11978   0.00000  Uiso   1.00
H59    H     0.65975   0.16542   0.11231   0.00000  Uiso   1.00
H60    H     0.34025   0.16792   0.22102   0.00000  Uiso   1.00
H61    H     0.49388   0.03773   0.09076   0.00000  Uiso   1.00
H62    H     0.50612   0.29560   0.24258   0.00000  Uiso   1.00
H63    H     0.49394   0.29648   0.09063   0.00000  Uiso   1.00
H64    H     0.50606   0.03686   0.24270   0.00000  Uiso   1.00
H65    H     0.44223   0.12037   0.03763   0.00000  Uiso   1.00
H66    H     0.55777   0.21296   0.29571   0.00000  Uiso   1.00
N67    N     0.50001   0.16668   0.28403   0.00000  Uiso   1.00
N68    N     0.49999   0.16666   0.04931   0.00000  Uiso   1.00
O69    O     0.50000   0.10655   0.20625   0.00000  Uiso   1.00
O70    O     0.50000   0.22678   0.12709   0.00000  Uiso   1.00
O71    O     0.50000   0.10654   0.12706   0.00000  Uiso   1.00
O72    O     0.50000   0.22679   0.20628   0.00000  Uiso   1.00
O73    O     0.42495   0.16667   0.19712   0.00000  Uiso   1.00
O74    O     0.57505   0.16666   0.13621   0.00000  Uiso   1.00
O75    O     0.42494   0.16666   0.11793   0.00000  Uiso   1.00
O76    O     0.57506   0.16667   0.21540   0.00000  Uiso   1.00
Br77   Br    0.75385   0.10266   0.27139   0.00000  Uiso   1.00
Br78   Br    0.91281   0.23068   0.06194   0.00000  Uiso   1.00
C79    C     0.83328   0.08741   0.16674   0.00000  Uiso   1.00
C80    C     0.83664   0.02105   0.20935   0.00000  Uiso   1.00
C81    C     0.83340   0.29057   0.16656   0.00000  Uiso   1.00
C82    C     0.83326   0.04276   0.16677   0.00000  Uiso   1.00
C83    C     0.80120   0.14096   0.02156   0.00000  Uiso   1.00
C84    C     0.86547   0.19237   0.31177   0.00000  Uiso   1.00
C85    C     0.80101   0.14078   0.30557   0.00000  Uiso   1.00
C86    C     0.86566   0.19255   0.02776   0.00000  Uiso   1.00
C87    C     0.83339   0.24593   0.16659   0.00000  Uiso   1.00
C88    C     0.73468   0.16657   0.15469   0.00000  Uiso   1.00
C89    C     0.93199   0.16676   0.17865   0.00000  Uiso   1.00
C90    C     0.67945   0.16630   0.14807   0.00000  Uiso   1.00
C91    C     0.98721   0.16703   0.18526   0.00000  Uiso   1.00
C92    C     0.82997   0.02153   0.12409   0.00000  Uiso   1.00
C93    C     0.83670   0.31180   0.20924   0.00000  Uiso   1.00
C94    C     0.83003   0.31229   0.12399   0.00000  Uiso   1.00
Cu95   Cu    0.83333   0.16667   0.21355   0.00000  Uiso   1.00
Cu96   Cu    0.83333   0.16666   0.11978   0.00000  Uiso   1.00
H97    H     0.99308   0.16542   0.11231   0.00000  Uiso   1.00
H98    H     0.67358   0.16792   0.22102   0.00000  Uiso   1.00
H99    H     0.82721   0.03773   0.09076   0.00000  Uiso   1.00
H100   H     0.83945   0.29560   0.24258   0.00000  Uiso   1.00
H101   H     0.82727   0.29648   0.09063   0.00000  Uiso   1.00
H102   H     0.83940   0.03686   0.24270   0.00000  Uiso   1.00
H103   H     0.77556   0.12037   0.03763   0.00000  Uiso   1.00
H104   H     0.89111   0.21296   0.29571   0.00000  Uiso   1.00
N105   N     0.83335   0.16668   0.28403   0.00000  Uiso   1.00
N106   N     0.83332   0.16666   0.04931   0.00000  Uiso   1.00
O107   O     0.83333   0.10655   0.20625   0.00000  Uiso   1.00
O108   O     0.83334   0.22678   0.12709   0.00000  Uiso   1.00
O109   O     0.83333   0.10654   0.12706   0.00000  Uiso   1.00
O110   O     0.83334   0.22679   0.20628   0.00000  Uiso   1.00
O111   O     0.75828   0.16667   0.19712   0.00000  Uiso   1.00
O112   O     0.90839   0.16666   0.13621   0.00000  Uiso   1.00
O113   O     0.75828   0.16666   0.11793   0.00000  Uiso   1.00
O114   O     0.90839   0.16667   0.21540   0.00000  Uiso   1.00
Br115  Br    0.08719   0.43599   0.27139   0.00000  Uiso   1.00
Br116  Br    0.24615   0.56401   0.06194   0.00000  Uiso   1.00
C117   C     0.16661   0.42074   0.16674   0.00000  Uiso   1.00
C118   C     0.16997   0.35438   0.20935   0.00000  Uiso   1.00
C119   C     0.16674   0.62391   0.16656   0.00000  Uiso   1.00
C120   C     0.16660   0.37609   0.16677   0.00000  Uiso   1.00
C121   C     0.13453   0.47429   0.02156   0.00000  Uiso   1.00
C122   C     0.19880   0.52571   0.31177   0.00000  Uiso   1.00
C123   C     0.13434   0.47411   0.30557   0.00000  Uiso   1.00
C124   C     0.19899   0.52589   0.02776   0.00000  Uiso   1.00
C125   C     0.16672   0.57926   0.16659   0.00000  Uiso   1.00
C126   C     0.06801   0.49991   0.15469   0.00000  Uiso   1.00
C127   C     0.26532   0.50009   0.17865   0.00000  Uiso   1.00
C128   C     0.01279   0.49964   0.14807   0.00000  Uiso   1.00
C129   C     0.32055   0.50036   0.18526   0.00000  Uiso   1.00
C130   C     0.16330   0.35487   0.12409   0.00000  Uiso   1.00
C131   C     0.17003   0.64513   0.20924   0.00000  Uiso   1.00
C132   C     0.16336   0.64562   0.12399   0.00000  Uiso   1.00
Cu133  Cu    0.16667   0.50001   0.21355   0.00000  Uiso   1.00
Cu134  Cu    0.16667   0.49999   0.11978   0.00000  Uiso   1.00
H135   H     0.32642   0.49875   0.11231   0.00000  Uiso   1.00
H136   H     0.00692   0.50125   0.22102   0.00000  Uiso   1.00
H137   H     0.16054   0.37106   0.09076   0.00000  Uiso   1.00
H138   H     0.17279   0.62894   0.24258   0.00000  Uiso   1.00
H139   H     0.16060   0.62981   0.09063   0.00000  Uiso   1.00
H140   H     0.17273   0.37019   0.24270   0.00000  Uiso   1.00
H141   H     0.10889   0.45371   0.03763   0.00000  Uiso   1.00
H142   H     0.22444   0.54629   0.29571   0.00000  Uiso   1.00
N143   N     0.16668   0.50001   0.28403   0.00000  Uiso   1.00
N144   N     0.16665   0.49999   0.04931   0.00000  Uiso   1.00
O145   O     0.16666   0.43989   0.20625   0.00000  Uiso   1.00
O146   O     0.16667   0.56011   0.12709   0.00000  Uiso   1.00
O147   O     0.16666   0.43988   0.12706   0.00000  Uiso   1.00
O148   O     0.16667   0.56012   0.20628   0.00000  Uiso   1.00
O149   O     0.09161   0.50000   0.19712   0.00000  Uiso   1.00
O150   O     0.24172   0.50000   0.13621   0.00000  Uiso   1.00
O151   O     0.09161   0.49999   0.11793   0.00000  Uiso   1.00
O152   O     0.24172   0.50001   0.21540   0.00000  Uiso   1.00
Br153  Br    0.42052   0.43599   0.27139   0.00000  Uiso   1.00
Br154  Br    0.57948   0.56401   0.06194   0.00000  Uiso   1.00
C155   C     0.49994   0.42074   0.16674   0.00000  Uiso   1.00
C156   C     0.50330   0.35438   0.20935   0.00000  Uiso   1.00
C157   C     0.50007   0.62391   0.16656   0.00000  Uiso   1.00
C158   C     0.49993   0.37609   0.16677   0.00000  Uiso   1.00
C159   C     0.46787   0.47429   0.02156   0.00000  Uiso   1.00
C160   C     0.53213   0.52571   0.31177   0.00000  Uiso   1.00
C161   C     0.46767   0.47411   0.30557   0.00000  Uiso   1.00
C162   C     0.53233   0.52589   0.02776   0.00000  Uiso   1.00
C163   C     0.50006   0.57926   0.16659   0.00000  Uiso   1.00
C164   C     0.40134   0.49991   0.15469   0.00000  Uiso   1.00
C165   C     0.59866   0.50009   0.17865   0.00000  Uiso   1.00
C166   C     0.34612   0.49964   0.14807   0.00000  Uiso   1.00
C167   C     0.65388   0.50036   0.18526   0.00000  Uiso   1.00
C168   C     0.49663   0.35487   0.12409   0.00000  Uiso   1.00
C169   C     0.50337   0.64513   0.20924   0.00000  Uiso   1.00
C170   C     0.49670   0.64562   0.12399   0.00000  Uiso   1.00
Cu171  Cu    0.50000   0.50001   0.21355   0.00000  Uiso   1.00
Cu172  Cu    0.50000   0.49999   0.11978   0.00000  Uiso   1.00
H173   H     0.65975   0.49875   0.11231   0.00000  Uiso   1.00
H174   H     0.34025   0.50125   0.22102   0.00000  Uiso   1.00
H175   H     0.49388   0.37106   0.09076   0.00000  Uiso   1.00
H176   H     0.50612   0.62894   0.24258   0.00000  Uiso   1.00
H177   H     0.49394   0.62981   0.09063   0.00000  Uiso   1.00
H178   H     0.50606   0.37019   0.24270   0.00000  Uiso   1.00
H179   H     0.44223   0.45371   0.03763   0.00000  Uiso   1.00
H180   H     0.55777   0.54629   0.29571   0.00000  Uiso   1.00
N181   N     0.50001   0.50001   0.28403   0.00000  Uiso   1.00
N182   N     0.49999   0.49999   0.04931   0.00000  Uiso   1.00
O183   O     0.50000   0.43989   0.20625   0.00000  Uiso   1.00
O184   O     0.50000   0.56011   0.12709   0.00000  Uiso   1.00
O185   O     0.50000   0.43988   0.12706   0.00000  Uiso   1.00
O186   O     0.50000   0.56012   0.20628   0.00000  Uiso   1.00
O187   O     0.42495   0.50000   0.19712   0.00000  Uiso   1.00
O188   O     0.57505   0.50000   0.13621   0.00000  Uiso   1.00
O189   O     0.42494   0.49999   0.11793   0.00000  Uiso   1.00
O190   O     0.57506   0.50001   0.21540   0.00000  Uiso   1.00
Br191  Br    0.75385   0.43599   0.27139   0.00000  Uiso   1.00
Br192  Br    0.91281   0.56401   0.06194   0.00000  Uiso   1.00
C193   C     0.83328   0.42074   0.16674   0.00000  Uiso   1.00
C194   C     0.83664   0.35438   0.20935   0.00000  Uiso   1.00
C195   C     0.83340   0.62391   0.16656   0.00000  Uiso   1.00
C196   C     0.83326   0.37609   0.16677   0.00000  Uiso   1.00
C197   C     0.80120   0.47429   0.02156   0.00000  Uiso   1.00
C198   C     0.86547   0.52571   0.31177   0.00000  Uiso   1.00
C199   C     0.80101   0.47411   0.30557   0.00000  Uiso   1.00
C200   C     0.86566   0.52589   0.02776   0.00000  Uiso   1.00
C201   C     0.83339   0.57926   0.16659   0.00000  Uiso   1.00
C202   C     0.73468   0.49991   0.15469   0.00000  Uiso   1.00
C203   C     0.93199   0.50009   0.17865   0.00000  Uiso   1.00
C204   C     0.67945   0.49964   0.14807   0.00000  Uiso   1.00
C205   C     0.98721   0.50036   0.18526   0.00000  Uiso   1.00
C206   C     0.82997   0.35487   0.12409   0.00000  Uiso   1.00
C207   C     0.83670   0.64513   0.20924   0.00000  Uiso   1.00
C208   C     0.83003   0.64562   0.12399   0.00000  Uiso   1.00
Cu209  Cu    0.83333   0.50001   0.21355   0.00000  Uiso   1.00
Cu210  Cu    0.83333   0.49999   0.11978   0.00000  Uiso   1.00
H211   H     0.99308   0.49875   0.11231   0.00000  Uiso   1.00
H212   H     0.67358   0.50125   0.22102   0.00000  Uiso   1.00
H213   H     0.82721   0.37106   0.09076   0.00000  Uiso   1.00
H214   H     0.83945   0.62894   0.24258   0.00000  Uiso   1.00
H215   H     0.82727   0.62981   0.09063   0.00000  Uiso   1.00
H216   H     0.83940   0.37019   0.24270   0.00000  Uiso   1.00
H217   H     0.77556   0.45371   0.03763   0.00000  Uiso   1.00
H218   H     0.89111   0.54629   0.29571   0.00000  Uiso   1.00
N219   N     0.83335   0.50001   0.28403   0.00000  Uiso   1.00
N220   N     0.83332   0.49999   0.04931   0.00000  Uiso   1.00
O221   O     0.83333   0.43989   0.20625   0.00000  Uiso   1.00
O222   O     0.83334   0.56011   0.12709   0.00000  Uiso   1.00
O223   O     0.83333   0.43988   0.12706   0.00000  Uiso   1.00
O224   O     0.83334   0.56012   0.20628   0.00000  Uiso   1.00
O225   O     0.75828   0.50000   0.19712   0.00000  Uiso   1.00
O226   O     0.90839   0.50000   0.13621   0.00000  Uiso   1.00
O227   O     0.75828   0.49999   0.11793   0.00000  Uiso   1.00
O228   O     0.90839   0.50001   0.21540   0.00000  Uiso   1.00
Br229  Br    0.08719   0.76932   0.27139   0.00000  Uiso   1.00
Br230  Br    0.24615   0.89734   0.06194   0.00000  Uiso   1.00
C231   C     0.16661   0.75407   0.16674   0.00000  Uiso   1.00
C232   C     0.16997   0.68771   0.20935   0.00000  Uiso   1.00
C233   C     0.16674   0.95724   0.16656   0.00000  Uiso   1.00
C234   C     0.16660   0.70943   0.16677   0.00000  Uiso   1.00
C235   C     0.13453   0.80763   0.02156   0.00000  Uiso   1.00
C236   C     0.19880   0.85904   0.31177   0.00000  Uiso   1.00
C237   C     0.13434   0.80745   0.30557   0.00000  Uiso   1.00
C238   C     0.19899   0.85922   0.02776   0.00000  Uiso   1.00
C239   C     0.16672   0.91259   0.16659   0.00000  Uiso   1.00
C240   C     0.06801   0.83324   0.15469   0.00000  Uiso   1.00
C241   C     0.26532   0.83343   0.17865   0.00000  Uiso   1.00
C242   C     0.01279   0.83297   0.14807   0.00000  Uiso   1.00
C243   C     0.32055   0.83370   0.18526   0.00000  Uiso   1.00
C244   C     0.16330   0.68820   0.12409   0.00000  Uiso   1.00
C245   C     0.17003   0.97847   0.20924   0.00000  Uiso   1.00
C246   C     0.16336   0.97895   0.12399   0.00000  Uiso   1.00
Cu247  Cu    0.16667   0.83334   0.21355   0.00000  Uiso   1.00
Cu248  Cu    0.16667   0.83333   0.11978   0.00000  Uiso   1.00
H249   H     0.32642   0.83208   0.11231   0.00000  Uiso   1.00
H250   H     0.00692   0.83458   0.22102   0.00000  Uiso   1.00
H251   H     0.16054   0.70440   0.09076   0.00000  Uiso   1.00
H252   H     0.17279   0.96227   0.24258   0.00000  Uiso   1.00
H253   H     0.16060   0.96314   0.09063   0.00000  Uiso   1.00
H254   H     0.17273   0.70352   0.24270   0.00000  Uiso   1.00
H255   H     0.10889   0.78704   0.03763   0.00000  Uiso   1.00
H256   H     0.22444   0.87963   0.29571   0.00000  Uiso   1.00
N257   N     0.16668   0.83334   0.28403   0.00000  Uiso   1.00
N258   N     0.16665   0.83332   0.04931   0.00000  Uiso   1.00
O259   O     0.16666   0.77322   0.20625   0.00000  Uiso   1.00
O260   O     0.16667   0.89345   0.12709   0.00000  Uiso   1.00
O261   O     0.16666   0.77321   0.12706   0.00000  Uiso   1.00
O262   O     0.16667   0.89346   0.20628   0.00000  Uiso   1.00
O263   O     0.09161   0.83334   0.19712   0.00000  Uiso   1.00
O264   O     0.24172   0.83333   0.13621   0.00000  Uiso   1.00
O265   O     0.09161   0.83333   0.11793   0.00000  Uiso   1.00
O266   O     0.24172   0.83334   0.21540   0.00000  Uiso   1.00
Br267  Br    0.42052   0.76932   0.27139   0.00000  Uiso   1.00
Br268  Br    0.57948   0.89734   0.06194   0.00000  Uiso   1.00
C269   C     0.49994   0.75407   0.16674   0.00000  Uiso   1.00
C270   C     0.50330   0.68771   0.20935   0.00000  Uiso   1.00
C271   C     0.50007   0.95724   0.16656   0.00000  Uiso   1.00
C272   C     0.49993   0.70943   0.16677   0.00000  Uiso   1.00
C273   C     0.46787   0.80763   0.02156   0.00000  Uiso   1.00
C274   C     0.53213   0.85904   0.31177   0.00000  Uiso   1.00
C275   C     0.46767   0.80745   0.30557   0.00000  Uiso   1.00
C276   C     0.53233   0.85922   0.02776   0.00000  Uiso   1.00
C277   C     0.50006   0.91259   0.16659   0.00000  Uiso   1.00
C278   C     0.40134   0.83324   0.15469   0.00000  Uiso   1.00
C279   C     0.59866   0.83343   0.17865   0.00000  Uiso   1.00
C280   C     0.34612   0.83297   0.14807   0.00000  Uiso   1.00
C281   C     0.65388   0.83370   0.18526   0.00000  Uiso   1.00
C282   C     0.49663   0.68820   0.12409   0.00000  Uiso   1.00
C283   C     0.50337   0.97847   0.20924   0.00000  Uiso   1.00
C284   C     0.49670   0.97895   0.12399   0.00000  Uiso   1.00
Cu285  Cu    0.50000   0.83334   0.21355   0.00000  Uiso   1.00
Cu286  Cu    0.50000   0.83333   0.11978   0.00000  Uiso   1.00
H287   H     0.65975   0.83208   0.11231   0.00000  Uiso   1.00
H288   H     0.34025   0.83458   0.22102   0.00000  Uiso   1.00
H289   H     0.49388   0.70440   0.09076   0.00000  Uiso   1.00
H290   H     0.50612   0.96227   0.24258   0.00000  Uiso   1.00
H291   H     0.49394   0.96314   0.09063   0.00000  Uiso   1.00
H292   H     0.50606   0.70352   0.24270   0.00000  Uiso   1.00
H293   H     0.44223   0.78704   0.03763   0.00000  Uiso   1.00
H294   H     0.55777   0.87963   0.29571   0.00000  Uiso   1.00
N295   N     0.50001   0.83334   0.28403   0.00000  Uiso   1.00
N296   N     0.49999   0.83332   0.04931   0.00000  Uiso   1.00
O297   O     0.50000   0.77322   0.20625   0.00000  Uiso   1.00
O298   O     0.50000   0.89345   0.12709   0.00000  Uiso   1.00
O299   O     0.50000   0.77321   0.12706   0.00000  Uiso   1.00
O300   O     0.50000   0.89346   0.20628   0.00000  Uiso   1.00
O301   O     0.42495   0.83334   0.19712   0.00000  Uiso   1.00
O302   O     0.57505   0.83333   0.13621   0.00000  Uiso   1.00
O303   O     0.42494   0.83333   0.11793   0.00000  Uiso   1.00
O304   O     0.57506   0.83334   0.21540   0.00000  Uiso   1.00
Br305  Br    0.75385   0.76932   0.27139   0.00000  Uiso   1.00
Br306  Br    0.91281   0.89734   0.06194   0.00000  Uiso   1.00
C307   C     0.83328   0.75407   0.16674   0.00000  Uiso   1.00
C308   C     0.83664   0.68771   0.20935   0.00000  Uiso   1.00
C309   C     0.83340   0.95724   0.16656   0.00000  Uiso   1.00
C310   C     0.83326   0.70943   0.16677   0.00000  Uiso   1.00
C311   C     0.80120   0.80763   0.02156   0.00000  Uiso   1.00
C312   C     0.86547   0.85904   0.31177   0.00000  Uiso   1.00
C313   C     0.80101   0.80745   0.30557   0.00000  Uiso   1.00
C314   C     0.86566   0.85922   0.02776   0.00000  Uiso   1.00
C315   C     0.83339   0.91259   0.16659   0.00000  Uiso   1.00
C316   C     0.73468   0.83324   0.15469   0.00000  Uiso   1.00
C317   C     0.93199   0.83343   0.17865   0.00000  Uiso   1.00
C318   C     0.67945   0.83297   0.14807   0.00000  Uiso   1.00
C319   C     0.98721   0.83370   0.18526   0.00000  Uiso   1.00
C320   C     0.82997   0.68820   0.12409   0.00000  Uiso   1.00
C321   C     0.83670   0.97847   0.20924   0.00000  Uiso   1.00
C322   C     0.83003   0.97895   0.12399   0.00000  Uiso   1.00
Cu323  Cu    0.83333   0.83334   0.21355   0.00000  Uiso   1.00
Cu324  Cu    0.83333   0.83333   0.11978   0.00000  Uiso   1.00
H325   H     0.99308   0.83208   0.11231   0.00000  Uiso   1.00
H326   H     0.67358   0.83458   0.22102   0.00000  Uiso   1.00
H327   H     0.82721   0.70440   0.09076   0.00000  Uiso   1.00
H328   H     0.83945   0.96227   0.24258   0.00000  Uiso   1.00
H329   H     0.82727   0.96314   0.09063   0.00000  Uiso   1.00
H330   H     0.83940   0.70352   0.24270   0.00000  Uiso   1.00
H331   H     0.77556   0.78704   0.03763   0.00000  Uiso   1.00
H332   H     0.89111   0.87963   0.29571   0.00000  Uiso   1.00
N333   N     0.83335   0.83334   0.28403   0.00000  Uiso   1.00
N334   N     0.83332   0.83332   0.04931   0.00000  Uiso   1.00
O335   O     0.83333   0.77322   0.20625   0.00000  Uiso   1.00
O336   O     0.83334   0.89345   0.12709   0.00000  Uiso   1.00
O337   O     0.83333   0.77321   0.12706   0.00000  Uiso   1.00
O338   O     0.83334   0.89346   0.20628   0.00000  Uiso   1.00
O339   O     0.75828   0.83334   0.19712   0.00000  Uiso   1.00
O340   O     0.90839   0.83333   0.13621   0.00000  Uiso   1.00
O341   O     0.75828   0.83333   0.11793   0.00000  Uiso   1.00
O342   O     0.90839   0.83334   0.21540   0.00000  Uiso   1.00
Br343  Br    0.08719   0.10266   0.60472   0.00000  Uiso   1.00
Br344  Br    0.24615   0.23068   0.39528   0.00000  Uiso   1.00
C345   C     0.16661   0.08741   0.50008   0.00000  Uiso   1.00
C346   C     0.16997   0.02105   0.54268   0.00000  Uiso   1.00
C347   C     0.16674   0.29057   0.49989   0.00000  Uiso   1.00
C348   C     0.16660   0.04276   0.50011   0.00000  Uiso   1.00
C349   C     0.13453   0.14096   0.35489   0.00000  Uiso   1.00
C350   C     0.19880   0.19237   0.64511   0.00000  Uiso   1.00
C351   C     0.13434   0.14078   0.63891   0.00000  Uiso   1.00
C352   C     0.19899   0.19255   0.36109   0.00000  Uiso   1.00
C353   C     0.16672   0.24593   0.49992   0.00000  Uiso   1.00
C354   C     0.06801   0.16657   0.48802   0.00000  Uiso   1.00
C355   C     0.26532   0.16676   0.51198   0.00000  Uiso   1.00
C356   C     0.01279   0.16630   0.48141   0.00000  Uiso   1.00
C357   C     0.32055   0.16703   0.51859   0.00000  Uiso   1.00
C358   C     0.16330   0.02153   0.45742   0.00000  Uiso   1.00
C359   C     0.17003   0.31180   0.54258   0.00000  Uiso   1.00
C360   C     0.16336   0.31229   0.45732   0.00000  Uiso   1.00
Cu361  Cu    0.16667   0.16667   0.54689   0.00000  Uiso   1.00
Cu362  Cu    0.16667   0.16666   0.45311   0.00000  Uiso   1.00
H363   H     0.32642   0.16542   0.44565   0.00000  Uiso   1.00
H364   H     0.00692   0.16792   0.55435   0.00000  Uiso   1.00
H365   H     0.16054   0.03773   0.42409   0.00000  Uiso   1.00
H366   H     0.17279   0.29560   0.57591   0.00000  Uiso   1.00
H367   H     0.16060   0.29648   0.42397   0.00000  Uiso   1.00
H368   H     0.17273   0.03686   0.57603   0.00000  Uiso   1.00
H369   H     0.10889   0.12037   0.37096   0.00000  Uiso   1.00
H370   H     0.22444   0.21296   0.62904   0.00000  Uiso   1.00
N371   N     0.16668   0.16668   0.61736   0.00000  Uiso   1.00
N372   N     0.16665   0.16666   0.38264   0.00000  Uiso   1.00
O373   O     0.16666   0.10655   0.53958   0.00000  Uiso   1.00
O374   O     0.16667   0.22678   0.46042   0.00000  Uiso   1.00
O375   O     0.16666   0.10654   0.46039   0.00000  Uiso   1.00
O376   O     0.16667   0.22679   0.53961   0.00000  Uiso   1.00
O377   O     0.09161   0.16667   0.53046   0.00000  Uiso   1.00
O378   O     0.24172   0.16666   0.46954   0.00000  Uiso   1.00
O379   O     0.09161   0.16666   0.45127   0.00000  Uiso   1.00
O380   O     0.24172   0.16667   0.54873   0.00000  Uiso   1.00
Br381  Br    0.42052   0.10266   0.60472   0.00000  Uiso   1.00
Br382  Br    0.57948   0.23068   0.39528   0.00000  Uiso   1.00
C383   C     0.49994   0.08741   0.50008   0.00000  Uiso   1.00
C384   C     0.50330   0.02105   0.54268   0.00000  Uiso   1.00
C385   C     0.50007   0.29057   0.49989   0.00000  Uiso   1.00
C386   C     0.49993   0.04276   0.50011   0.00000  Uiso   1.00
C387   C     0.46787   0.14096   0.35489   0.00000  Uiso   1.00
C388   C     0.53213   0.19237   0.64511   0.00000  Uiso   1.00
C389   C     0.46767   0.14078   0.63891   0.00000  Uiso   1.00
C390   C     0.53233   0.19255   0.36109   0.00000  Uiso   1.00
C391   C     0.50006   0.24593   0.49992   0.00000  Uiso   1.00
C392   C     0.40134   0.16657   0.48802   0.00000  Uiso   1.00
C393   C     0.59866   0.16676   0.51198   0.00000  Uiso   1.00
C394   C     0.34612   0.16630   0.48141   0.00000  Uiso   1.00
C395   C     0.65388   0.16703   0.51859   0.00000  Uiso   1.00
C396   C     0.49663   0.02153   0.45742   0.00000  Uiso   1.00
C397   C     0.50337   0.31180   0.54258   0.00000  Uiso   1.00
C398   C     0.49670   0.31229   0.45732   0.00000  Uiso   1.00
Cu399  Cu    0.50000   0.16667   0.54689   0.00000  Uiso   1.00
Cu400  Cu    0.50000   0.16666   0.45311   0.00000  Uiso   1.00
H401   H     0.65975   0.16542   0.44565   0.00000  Uiso   1.00
H402   H     0.34025   0.16792   0.55435   0.00000  Uiso   1.00
H403   H     0.49388   0.03773   0.42409   0.00000  Uiso   1.00
H404   H     0.50612   0.29560   0.57591   0.00000  Uiso   1.00
H405   H     0.49394   0.29648   0.42397   0.00000  Uiso   1.00
H406   H     0.50606   0.03686   0.57603   0.00000  Uiso   1.00
H407   H     0.44223   0.12037   0.37096   0.00000  Uiso   1.00
H408   H     0.55777   0.21296   0.62904   0.00000  Uiso   1.00
N409   N     0.50001   0.16668   0.61736   0.00000  Uiso   1.00
N410   N     0.49999   0.16666   0.38264   0.00000  Uiso   1.00
O411   O     0.50000   0.10655   0.53958   0.00000  Uiso   1.00
O412   O     0.50000   0.22678   0.46042   0.00000  Uiso   1.00
O413   O     0.50000   0.10654   0.46039   0.00000  Uiso   1.00
O414   O     0.50000   0.22679   0.53961   0.00000  Uiso   1.00
O415   O     0.42495   0.16667   0.53046   0.00000  Uiso   1.00
O416   O     0.57505   0.16666   0.46954   0.00000  Uiso   1.00
O417   O     0.42494   0.16666   0.45127   0.00000  Uiso   1.00
O418   O     0.57506   0.16667   0.54873   0.00000  Uiso   1.00
Br419  Br    0.75385   0.10266   0.60472   0.00000  Uiso   1.00
Br420  Br    0.91281   0.23068   0.39528   0.00000  Uiso   1.00
C421   C     0.83328   0.08741   0.50008   0.00000  Uiso   1.00
C422   C     0.83664   0.02105   0.54268   0.00000  Uiso   1.00
C423   C     0.83340   0.29057   0.49989   0.00000  Uiso   1.00
C424   C     0.83326   0.04276   0.50011   0.00000  Uiso   1.00
C425   C     0.80120   0.14096   0.35489   0.00000  Uiso   1.00
C426   C     0.86547   0.19237   0.64511   0.00000  Uiso   1.00
C427   C     0.80101   0.14078   0.63891   0.00000  Uiso   1.00
C428   C     0.86566   0.19255   0.36109   0.00000  Uiso   1.00
C429   C     0.83339   0.24593   0.49992   0.00000  Uiso   1.00
C430   C     0.73468   0.16657   0.48802   0.00000  Uiso   1.00
C431   C     0.93199   0.16676   0.51198   0.00000  Uiso   1.00
C432   C     0.67945   0.16630   0.48141   0.00000  Uiso   1.00
C433   C     0.98721   0.16703   0.51859   0.00000  Uiso   1.00
C434   C     0.82997   0.02153   0.45742   0.00000  Uiso   1.00
C435   C     0.83670   0.31180   0.54258   0.00000  Uiso   1.00
C436   C     0.83003   0.31229   0.45732   0.00000  Uiso   1.00
Cu437  Cu    0.83333   0.16667   0.54689   0.00000  Uiso   1.00
Cu438  Cu    0.83333   0.16666   0.45311   0.00000  Uiso   1.00
H439   H     0.99308   0.16542   0.44565   0.00000  Uiso   1.00
H440   H     0.67358   0.16792   0.55435   0.00000  Uiso   1.00
H441   H     0.82721   0.03773   0.42409   0.00000  Uiso   1.00
H442   H     0.83945   0.29560   0.57591   0.00000  Uiso   1.00
H443   H     0.82727   0.29648   0.42397   0.00000  Uiso   1.00
H444   H     0.83940   0.03686   0.57603   0.00000  Uiso   1.00
H445   H     0.77556   0.12037   0.37096   0.00000  Uiso   1.00
H446   H     0.89111   0.21296   0.62904   0.00000  Uiso   1.00
N447   N     0.83335   0.16668   0.61736   0.00000  Uiso   1.00
N448   N     0.83332   0.16666   0.38264   0.00000  Uiso   1.00
O449   O     0.83333   0.10655   0.53958   0.00000  Uiso   1.00
O450   O     0.83334   0.22678   0.46042   0.00000  Uiso   1.00
O451   O     0.83333   0.10654   0.46039   0.00000  Uiso   1.00
O452   O     0.83334   0.22679   0.53961   0.00000  Uiso   1.00
O453   O     0.75828   0.16667   0.53046   0.00000  Uiso   1.00
O454   O     0.90839   0.16666   0.46954   0.00000  Uiso   1.00
O455   O     0.75828   0.16666   0.45127   0.00000  Uiso   1.00
O456   O     0.90839   0.16667   0.54873   0.00000  Uiso   1.00
Br457  Br    0.08719   0.43599   0.60472   0.00000  Uiso   1.00
Br458  Br    0.24615   0.56401   0.39528   0.00000  Uiso   1.00
C459   C     0.16661   0.42074   0.50008   0.00000  Uiso   1.00
C460   C     0.16997   0.35438   0.54268   0.00000  Uiso   1.00
C461   C     0.16674   0.62391   0.49989   0.00000  Uiso   1.00
C462   C     0.16660   0.37609   0.50011   0.00000  Uiso   1.00
C463   C     0.13453   0.47429   0.35489   0.00000  Uiso   1.00
C464   C     0.19880   0.52571   0.64511   0.00000  Uiso   1.00
C465   C     0.13434   0.47411   0.63891   0.00000  Uiso   1.00
C466   C     0.19899   0.52589   0.36109   0.00000  Uiso   1.00
C467   C     0.16672   0.57926   0.49992   0.00000  Uiso   1.00
C468   C     0.06801   0.49991   0.48802   0.00000  Uiso   1.00
C469   C     0.26532   0.50009   0.51198   0.00000  Uiso   1.00
C470   C     0.01279   0.49964   0.48141   0.00000  Uiso   1.00
C471   C     0.32055   0.50036   0.51859   0.00000  Uiso   1.00
C472   C     0.16330   0.35487   0.45742   0.00000  Uiso   1.00
C473   C     0.17003   0.64513   0.54258   0.00000  Uiso   1.00
C474   C     0.16336   0.64562   0.45732   0.00000  Uiso   1.00
Cu475  Cu    0.16667   0.50001   0.54689   0.00000  Uiso   1.00
Cu476  Cu    0.16667   0.49999   0.45311   0.00000  Uiso   1.00
H477   H     0.32642   0.49875   0.44565   0.00000  Uiso   1.00
H478   H     0.00692   0.50125   0.55435   0.00000  Uiso   1.00
H479   H     0.16054   0.37106   0.42409   0.00000  Uiso   1.00
H480   H     0.17279   0.62894   0.57591   0.00000  Uiso   1.00
H481   H     0.16060   0.62981   0.42397   0.00000  Uiso   1.00
H482   H     0.17273   0.37019   0.57603   0.00000  Uiso   1.00
H483   H     0.10889   0.45371   0.37096   0.00000  Uiso   1.00
H484   H     0.22444   0.54629   0.62904   0.00000  Uiso   1.00
N485   N     0.16668   0.50001   0.61736   0.00000  Uiso   1.00
N486   N     0.16665   0.49999   0.38264   0.00000  Uiso   1.00
O487   O     0.16666   0.43989   0.53958   0.00000  Uiso   1.00
O488   O     0.16667   0.56011   0.46042   0.00000  Uiso   1.00
O489   O     0.16666   0.43988   0.46039   0.00000  Uiso   1.00
O490   O     0.16667   0.56012   0.53961   0.00000  Uiso   1.00
O491   O     0.09161   0.50000   0.53046   0.00000  Uiso   1.00
O492   O     0.24172   0.50000   0.46954   0.00000  Uiso   1.00
O493   O     0.09161   0.49999   0.45127   0.00000  Uiso   1.00
O494   O     0.24172   0.50001   0.54873   0.00000  Uiso   1.00
Br495  Br    0.42052   0.43599   0.60472   0.00000  Uiso   1.00
Br496  Br    0.57948   0.56401   0.39528   0.00000  Uiso   1.00
C497   C     0.49994   0.42074   0.50008   0.00000  Uiso   1.00
C498   C     0.50330   0.35438   0.54268   0.00000  Uiso   1.00
C499   C     0.50007   0.62391   0.49989   0.00000  Uiso   1.00
C500   C     0.49993   0.37609   0.50011   0.00000  Uiso   1.00
C501   C     0.46787   0.47429   0.35489   0.00000  Uiso   1.00
C502   C     0.53213   0.52571   0.64511   0.00000  Uiso   1.00
C503   C     0.46767   0.47411   0.63891   0.00000  Uiso   1.00
C504   C     0.53233   0.52589   0.36109   0.00000  Uiso   1.00
C505   C     0.50006   0.57926   0.49992   0.00000  Uiso   1.00
C506   C     0.40134   0.49991   0.48802   0.00000  Uiso   1.00
C507   C     0.59866   0.50009   0.51198   0.00000  Uiso   1.00
C508   C     0.34612   0.49964   0.48141   0.00000  Uiso   1.00
C509   C     0.65388   0.50036   0.51859   0.00000  Uiso   1.00
C510   C     0.49663   0.35487   0.45742   0.00000  Uiso   1.00
C511   C     0.50337   0.64513   0.54258   0.00000  Uiso   1.00
C512   C     0.49670   0.64562   0.45732   0.00000  Uiso   1.00
Cu513  Cu    0.50000   0.50001   0.54689   0.00000  Uiso   1.00
Cu514  Cu    0.50000   0.49999   0.45311   0.00000  Uiso   1.00
H515   H     0.65975   0.49875   0.44565   0.00000  Uiso   1.00
H516   H     0.34025   0.50125   0.55435   0.00000  Uiso   1.00
H517   H     0.49388   0.37106   0.42409   0.00000  Uiso   1.00
H518   H     0.50612   0.62894   0.57591   0.00000  Uiso   1.00
H519   H     0.49394   0.62981   0.42397   0.00000  Uiso   1.00
H520   H     0.50606   0.37019   0.57603   0.00000  Uiso   1.00
H521   H     0.44223   0.45371   0.37096   0.00000  Uiso   1.00
H522   H     0.55777   0.54629   0.62904   0.00000  Uiso   1.00
N523   N     0.50001   0.50001   0.61736   0.00000  Uiso   1.00
N524   N     0.49999   0.49999   0.38264   0.00000  Uiso   1.00
O525   O     0.50000   0.43989   0.53958   0.00000  Uiso   1.00
O526   O     0.50000   0.56011   0.46042   0.00000  Uiso   1.00
O527   O     0.50000   0.43988   0.46039   0.00000  Uiso   1.00
O528   O     0.50000   0.56012   0.53961   0.00000  Uiso   1.00
O529   O     0.42495   0.50000   0.53046   0.00000  Uiso   1.00
O530   O     0.57505   0.50000   0.46954   0.00000  Uiso   1.00
O531   O     0.42494   0.49999   0.45127   0.00000  Uiso   1.00
O532   O     0.57506   0.50001   0.54873   0.00000  Uiso   1.00
Br533  Br    0.75385   0.43599   0.60472   0.00000  Uiso   1.00
Br534  Br    0.91281   0.56401   0.39528   0.00000  Uiso   1.00
C535   C     0.83328   0.42074   0.50008   0.00000  Uiso   1.00
C536   C     0.83664   0.35438   0.54268   0.00000  Uiso   1.00
C537   C     0.83340   0.62391   0.49989   0.00000  Uiso   1.00
C538   C     0.83326   0.37609   0.50011   0.00000  Uiso   1.00
C539   C     0.80120   0.47429   0.35489   0.00000  Uiso   1.00
C540   C     0.86547   0.52571   0.64511   0.00000  Uiso   1.00
C541   C     0.80101   0.47411   0.63891   0.00000  Uiso   1.00
C542   C     0.86566   0.52589   0.36109   0.00000  Uiso   1.00
C543   C     0.83339   0.57926   0.49992   0.00000  Uiso   1.00
C544   C     0.73468   0.49991   0.48802   0.00000  Uiso   1.00
C545   C     0.93199   0.50009   0.51198   0.00000  Uiso   1.00
C546   C     0.67945   0.49964   0.48141   0.00000  Uiso   1.00
C547   C     0.98721   0.50036   0.51859   0.00000  Uiso   1.00
C548   C     0.82997   0.35487   0.45742   0.00000  Uiso   1.00
C549   C     0.83670   0.64513   0.54258   0.00000  Uiso   1.00
C550   C     0.83003   0.64562   0.45732   0.00000  Uiso   1.00
Cu551  Cu    0.83333   0.50001   0.54689   0.00000  Uiso   1.00
Cu552  Cu    0.83333   0.49999   0.45311   0.00000  Uiso   1.00
H553   H     0.99308   0.49875   0.44565   0.00000  Uiso   1.00
H554   H     0.67358   0.50125   0.55435   0.00000  Uiso   1.00
H555   H     0.82721   0.37106   0.42409   0.00000  Uiso   1.00
H556   H     0.83945   0.62894   0.57591   0.00000  Uiso   1.00
H557   H     0.82727   0.62981   0.42397   0.00000  Uiso   1.00
H558   H     0.83940   0.37019   0.57603   0.00000  Uiso   1.00
H559   H     0.77556   0.45371   0.37096   0.00000  Uiso   1.00
H560   H     0.89111   0.54629   0.62904   0.00000  Uiso   1.00
N561   N     0.83335   0.50001   0.61736   0.00000  Uiso   1.00
N562   N     0.83332   0.49999   0.38264   0.00000  Uiso   1.00
O563   O     0.83333   0.43989   0.53958   0.00000  Uiso   1.00
O564   O     0.83334   0.56011   0.46042   0.00000  Uiso   1.00
O565   O     0.83333   0.43988   0.46039   0.00000  Uiso   1.00
O566   O     0.83334   0.56012   0.53961   0.00000  Uiso   1.00
O567   O     0.75828   0.50000   0.53046   0.00000  Uiso   1.00
O568   O     0.90839   0.50000   0.46954   0.00000  Uiso   1.00
O569   O     0.75828   0.49999   0.45127   0.00000  Uiso   1.00
O570   O     0.90839   0.50001   0.54873   0.00000  Uiso   1.00
Br571  Br    0.08719   0.76932   0.60472   0.00000  Uiso   1.00
Br572  Br    0.24615   0.89734   0.39528   0.00000  Uiso   1.00
C573   C     0.16661   0.75407   0.50008   0.00000  Uiso   1.00
C574   C     0.16997   0.68771   0.54268   0.00000  Uiso   1.00
C575   C     0.16674   0.95724   0.49989   0.00000  Uiso   1.00
C576   C     0.16660   0.70943   0.50011   0.00000  Uiso   1.00
C577   C     0.13453   0.80763   0.35489   0.00000  Uiso   1.00
C578   C     0.19880   0.85904   0.64511   0.00000  Uiso   1.00
C579   C     0.13434   0.80745   0.63891   0.00000  Uiso   1.00
C580   C     0.19899   0.85922   0.36109   0.00000  Uiso   1.00
C581   C     0.16672   0.91259   0.49992   0.00000  Uiso   1.00
C582   C     0.06801   0.83324   0.48802   0.00000  Uiso   1.00
C583   C     0.26532   0.83343   0.51198   0.00000  Uiso   1.00
C584   C     0.01279   0.83297   0.48141   0.00000  Uiso   1.00
C585   C     0.32055   0.83370   0.51859   0.00000  Uiso   1.00
C586   C     0.16330   0.68820   0.45742   0.00000  Uiso   1.00
C587   C     0.17003   0.97847   0.54258   0.00000  Uiso   1.00
C588   C     0.16336   0.97895   0.45732   0.00000  Uiso   1.00
Cu589  Cu    0.16667   0.83334   0.54689   0.00000  Uiso   1.00
Cu590  Cu    0.16667   0.83333   0.45311   0.00000  Uiso   1.00
H591   H     0.32642   0.83208   0.44565   0.00000  Uiso   1.00
H592   H     0.00692   0.83458   0.55435   0.00000  Uiso   1.00
H593   H     0.16054   0.70440   0.42409   0.00000  Uiso   1.00
H594   H     0.17279   0.96227   0.57591   0.00000  Uiso   1.00
H595   H     0.16060   0.96314   0.42397   0.00000  Uiso   1.00
H596   H     0.17273   0.70352   0.57603   0.00000  Uiso   1.00
H597   H     0.10889   0.78704   0.37096   0.00000  Uiso   1.00
H598   H     0.22444   0.87963   0.62904   0.00000  Uiso   1.00
N599   N     0.16668   0.83334   0.61736   0.00000  Uiso   1.00
N600   N     0.16665   0.83332   0.38264   0.00000  Uiso   1.00
O601   O     0.16666   0.77322   0.53958   0.00000  Uiso   1.00
O602   O     0.16667   0.89345   0.46042   0.00000  Uiso   1.00
O603   O     0.16666   0.77321   0.46039   0.00000  Uiso   1.00
O604   O     0.16667   0.89346   0.53961   0.00000  Uiso   1.00
O605   O     0.09161   0.83334   0.53046   0.00000  Uiso   1.00
O606   O     0.24172   0.83333   0.46954   0.00000  Uiso   1.00
O607   O     0.09161   0.83333   0.45127   0.00000  Uiso   1.00
O608   O     0.24172   0.83334   0.54873   0.00000  Uiso   1.00
Br609  Br    0.42052   0.76932   0.60472   0.00000  Uiso   1.00
Br610  Br    0.57948   0.89734   0.39528   0.00000  Uiso   1.00
C611   C     0.49994   0.75407   0.50008   0.00000  Uiso   1.00
C612   C     0.50330   0.68771   0.54268   0.00000  Uiso   1.00
C613   C     0.50007   0.95724   0.49989   0.00000  Uiso   1.00
C614   C     0.49993   0.70943   0.50011   0.00000  Uiso   1.00
C615   C     0.46787   0.80763   0.35489   0.00000  Uiso   1.00
C616   C     0.53213   0.85904   0.64511   0.00000  Uiso   1.00
C617   C     0.46767   0.80745   0.63891   0.00000  Uiso   1.00
C618   C     0.53233   0.85922   0.36109   0.00000  Uiso   1.00
C619   C     0.50006   0.91259   0.49992   0.00000  Uiso   1.00
C620   C     0.40134   0.83324   0.48802   0.00000  Uiso   1.00
C621   C     0.59866   0.83343   0.51198   0.00000  Uiso   1.00
C622   C     0.34612   0.83297   0.48141   0.00000  Uiso   1.00
C623   C     0.65388   0.83370   0.51859   0.00000  Uiso   1.00
C624   C     0.49663   0.68820   0.45742   0.00000  Uiso   1.00
C625   C     0.50337   0.97847   0.54258   0.00000  Uiso   1.00
C626   C     0.49670   0.97895   0.45732   0.00000  Uiso   1.00
Cu627  Cu    0.50000   0.83334   0.54689   0.00000  Uiso   1.00
Cu628  Cu    0.50000   0.83333   0.45311   0.00000  Uiso   1.00
H629   H     0.65975   0.83208   0.44565   0.00000  Uiso   1.00
H630   H     0.34025   0.83458   0.55435   0.00000  Uiso   1.00
H631   H     0.49388   0.70440   0.42409   0.00000  Uiso   1.00
H632   H     0.50612   0.96227   0.57591   0.00000  Uiso   1.00
H633   H     0.49394   0.96314   0.42397   0.00000  Uiso   1.00
H634   H     0.50606   0.70352   0.57603   0.00000  Uiso   1.00
H635   H     0.44223   0.78704   0.37096   0.00000  Uiso   1.00
H636   H     0.55777   0.87963   0.62904   0.00000  Uiso   1.00
N637   N     0.50001   0.83334   0.61736   0.00000  Uiso   1.00
N638   N     0.49999   0.83332   0.38264   0.00000  Uiso   1.00
O639   O     0.50000   0.77322   0.53958   0.00000  Uiso   1.00
O640   O     0.50000   0.89345   0.46042   0.00000  Uiso   1.00
O641   O     0.50000   0.77321   0.46039   0.00000  Uiso   1.00
O642   O     0.50000   0.89346   0.53961   0.00000  Uiso   1.00
O643   O     0.42495   0.83334   0.53046   0.00000  Uiso   1.00
O644   O     0.57505   0.83333   0.46954   0.00000  Uiso   1.00
O645   O     0.42494   0.83333   0.45127   0.00000  Uiso   1.00
O646   O     0.57506   0.83334   0.54873   0.00000  Uiso   1.00
Br647  Br    0.75385   0.76932   0.60472   0.00000  Uiso   1.00
Br648  Br    0.91281   0.89734   0.39528   0.00000  Uiso   1.00
C649   C     0.83328   0.75407   0.50008   0.00000  Uiso   1.00
C650   C     0.83664   0.68771   0.54268   0.00000  Uiso   1.00
C651   C     0.83340   0.95724   0.49989   0.00000  Uiso   1.00
C652   C     0.83326   0.70943   0.50011   0.00000  Uiso   1.00
C653   C     0.80120   0.80763   0.35489   0.00000  Uiso   1.00
C654   C     0.86547   0.85904   0.64511   0.00000  Uiso   1.00
C655   C     0.80101   0.80745   0.63891   0.00000  Uiso   1.00
C656   C     0.86566   0.85922   0.36109   0.00000  Uiso   1.00
C657   C     0.83339   0.91259   0.49992   0.00000  Uiso   1.00
C658   C     0.73468   0.83324   0.48802   0.00000  Uiso   1.00
C659   C     0.93199   0.83343   0.51198   0.00000  Uiso   1.00
C660   C     0.67945   0.83297   0.48141   0.00000  Uiso   1.00
C661   C     0.98721   0.83370   0.51859   0.00000  Uiso   1.00
C662   C     0.82997   0.68820   0.45742   0.00000  Uiso   1.00
C663   C     0.83670   0.97847   0.54258   0.00000  Uiso   1.00
C664   C     0.83003   0.97895   0.45732   0.00000  Uiso   1.00
Cu665  Cu    0.83333   0.83334   0.54689   0.00000  Uiso   1.00
Cu666  Cu    0.83333   0.83333   0.45311   0.00000  Uiso   1.00
H667   H     0.99308   0.83208   0.44565   0.00000  Uiso   1.00
H668   H     0.67358   0.83458   0.55435   0.00000  Uiso   1.00
H669   H     0.82721   0.70440   0.42409   0.00000  Uiso   1.00
H670   H     0.83945   0.96227   0.57591   0.00000  Uiso   1.00
H671   H     0.82727   0.96314   0.42397   0.00000  Uiso   1.00
H672   H     0.83940   0.70352   0.57603   0.00000  Uiso   1.00
H673   H     0.77556   0.78704   0.37096   0.00000  Uiso   1.00
H674   H     0.89111   0.87963   0.62904   0.00000  Uiso   1.00
N675   N     0.83335   0.83334   0.61736   0.00000  Uiso   1.00
N676   N     0.83332   0.83332   0.38264   0.00000  Uiso   1.00
O677   O     0.83333   0.77322   0.53958   0.00000  Uiso   1.00
O678   O     0.83334   0.89345   0.46042   0.00000  Uiso   1.00
O679   O     0.83333   0.77321   0.46039   0.00000  Uiso   1.00
O680   O     0.83334   0.89346   0.53961   0.00000  Uiso   1.00
O681   O     0.75828   0.83334   0.53046   0.00000  Uiso   1.00
O682   O     0.90839   0.83333   0.46954   0.00000  Uiso   1.00
O683   O     0.75828   0.83333   0.45127   0.00000  Uiso   1.00
O684   O     0.90839   0.83334   0.54873   0.00000  Uiso   1.00
Br685  Br    0.08719   0.10266   0.93806   0.00000  Uiso   1.00
Br686  Br    0.24615   0.23068   0.72861   0.00000  Uiso   1.00
C687   C     0.16661   0.08741   0.83341   0.00000  Uiso   1.00
C688   C     0.16997   0.02105   0.87601   0.00000  Uiso   1.00
C689   C     0.16674   0.29057   0.83323   0.00000  Uiso   1.00
C690   C     0.16660   0.04276   0.83344   0.00000  Uiso   1.00
C691   C     0.13453   0.14096   0.68823   0.00000  Uiso   1.00
C692   C     0.19880   0.19237   0.97844   0.00000  Uiso   1.00
C693   C     0.13434   0.14078   0.97224   0.00000  Uiso   1.00
C694   C     0.19899   0.19255   0.69443   0.00000  Uiso   1.00
C695   C     0.16672   0.24593   0.83326   0.00000  Uiso   1.00
C696   C     0.06801   0.16657   0.82135   0.00000  Uiso   1.00
C697   C     0.26532   0.16676   0.84531   0.00000  Uiso   1.00
C698   C     0.01279   0.16630   0.81474   0.00000  Uiso   1.00
C699   C     0.32055   0.16703   0.85193   0.00000  Uiso   1.00
C700   C     0.16330   0.02153   0.79076   0.00000  Uiso   1.00
C701   C     0.17003   0.31180   0.87591   0.00000  Uiso   1.00
C702   C     0.16336   0.31229   0.79065   0.00000  Uiso   1.00
Cu703  Cu    0.16667   0.16667   0.88022   0.00000  Uiso   1.00
Cu704  Cu    0.16667   0.16666   0.78645   0.00000  Uiso   1.00
H705   H     0.32642   0.16542   0.77898   0.00000  Uiso   1.00
H706   H     0.00692   0.16792   0.88769   0.00000  Uiso   1.00
H707   H     0.16054   0.03773   0.75742   0.00000  Uiso   1.00
H708   H     0.17279   0.29560   0.90924   0.00000  Uiso   1.00
H709   H     0.16060   0.29648   0.75730   0.00000  Uiso   1.00
H710   H     0.17273   0.03686   0.90937   0.00000  Uiso   1.00
H711   H     0.10889   0.12037   0.70429   0.00000  Uiso   1.00
H712   H     0.22444   0.21296   0.96237   0.00000  Uiso   1.00
N713   N     0.16668   0.16668   0.95069   0.00000  Uiso   1.00
N714   N     0.16665   0.16666   0.71597   0.00000  Uiso   1.00
O715   O     0.16666   0.10655   0.87291   0.00000  Uiso   1.00
O716   O     0.16667   0.22678   0.79375   0.00000  Uiso   1.00
O717   O     0.16666   0.10654   0.79372   0.00000  Uiso   1.00
O718   O     0.16667   0.22679   0.87294   0.00000  Uiso   1.00
O719   O     0.09161   0.16667   0.86379   0.00000  Uiso   1.00
O720   O     0.24172   0.16666   0.80288   0.00000  Uiso   1.00
O721   O     0.09161   0.16666   0.78460   0.00000  Uiso   1.00
O722   O     0.24172   0.16667   0.88207   0.00000  Uiso   1.00
Br723  Br    0.42052   0.10266   0.93806   0.00000  Uiso   1.00
Br724  Br    0.57948   0.23068   0.72861   0.00000  Uiso   1.00
C725   C     0.49994   0.08741   0.83341   0.00000  Uiso   1.00
C726   C     0.50330   0.02105   0.87601   0.00000  Uiso   1.00
C727   C     0.50007   0.29057   0.83323   0.00000  Uiso   1.00
C728   C     0.49993   0.04276   0.83344   0.00000  Uiso   1.00
C729   C     0.46787   0.14096   0.68823   0.00000  Uiso   1.00
C730   C     0.53213   0.19237   0.97844   0.00000  Uiso   1.00
C731   C     0.46767   0.14078   0.97224   0.00000  Uiso   1.00
C732   C     0.53233   0.19255   0.69443   0.00000  Uiso   1.00
C733   C     0.50006   0.24593   0.83326   0.00000  Uiso   1.00
C734   C     0.40134   0.16657   0.82135   0.00000  Uiso   1.00
C735   C     0.59866   0.16676   0.84531   0.00000  Uiso   1.00
C736   C     0.34612   0.16630   0.81474   0.00000  Uiso   1.00
C737   C     0.65388   0.16703   0.85193   0.00000  Uiso   1.00
C738   C     0.49663   0.02153   0.79076   0.00000  Uiso   1.00
C739   C     0.50337   0.31180   0.87591   0.00000  Uiso   1.00
C740   C     0.49670   0.31229   0.79065   0.00000  Uiso   1.00
Cu741  Cu    0.50000   0.16667   0.88022   0.00000  Uiso   1.00
Cu742  Cu    0.50000   0.16666   0.78645   0.00000  Uiso   1.00
H743   H     0.65975   0.16542   0.77898   0.00000  Uiso   1.00
H744   H     0.34025   0.16792   0.88769   0.00000  Uiso   1.00
H745   H     0.49388   0.03773   0.75742   0.00000  Uiso   1.00
H746   H     0.50612   0.29560   0.90924   0.00000  Uiso   1.00
H747   H     0.49394   0.29648   0.75730   0.00000  Uiso   1.00
H748   H     0.50606   0.03686   0.90937   0.00000  Uiso   1.00
H749   H     0.44223   0.12037   0.70429   0.00000  Uiso   1.00
H750   H     0.55777   0.21296   0.96237   0.00000  Uiso   1.00
N751   N     0.50001   0.16668   0.95069   0.00000  Uiso   1.00
N752   N     0.49999   0.16666   0.71597   0.00000  Uiso   1.00
O753   O     0.50000   0.10655   0.87291   0.00000  Uiso   1.00
O754   O     0.50000   0.22678   0.79375   0.00000  Uiso   1.00
O755   O     0.50000   0.10654   0.79372   0.00000  Uiso   1.00
O756   O     0.50000   0.22679   0.87294   0.00000  Uiso   1.00
O757   O     0.42495   0.16667   0.86379   0.00000  Uiso   1.00
O758   O     0.57505   0.16666   0.80288   0.00000  Uiso   1.00
O759   O     0.42494   0.16666   0.78460   0.00000  Uiso   1.00
O760   O     0.57506   0.16667   0.88207   0.00000  Uiso   1.00
Br761  Br    0.75385   0.10266   0.93806   0.00000  Uiso   1.00
Br762  Br    0.91281   0.23068   0.72861   0.00000  Uiso   1.00
C763   C     0.83328   0.08741   0.83341   0.00000  Uiso   1.00
C764   C     0.83664   0.02105   0.87601   0.00000  Uiso   1.00
C765   C     0.83340   0.29057   0.83323   0.00000  Uiso   1.00
C766   C     0.83326   0.04276   0.83344   0.00000  Uiso   1.00
C767   C     0.80120   0.14096   0.68823   0.00000  Uiso   1.00
C768   C     0.86547   0.19237   0.97844   0.00000  Uiso   1.00
C769   C     0.80101   0.14078   0.97224   0.00000  Uiso   1.00
C770   C     0.86566   0.19255   0.69443   0.00000  Uiso   1.00
C771   C     0.83339   0.24593   0.83326   0.00000  Uiso   1.00
C772   C     0.73468   0.16657   0.82135   0.00000  Uiso   1.00
C773   C     0.93199   0.16676   0.84531   0.00000  Uiso   1.00
C774   C     0.67945   0.16630   0.81474   0.00000  Uiso   1.00
C775   C     0.98721   0.16703   0.85193   0.00000  Uiso   1.00
C776   C     0.82997   0.02153   0.79076   0.00000  Uiso   1.00
C777   C     0.83670   0.31180   0.87591   0.00000  Uiso   1.00
C778   C     0.83003   0.31229   0.79065   0.00000  Uiso   1.00
Cu779  Cu    0.83333   0.16667   0.88022   0.00000  Uiso   1.00
Cu780  Cu    0.83333   0.16666   0.78645   0.00000  Uiso   1.00
H781   H     0.99308   0.16542   0.77898   0.00000  Uiso   1.00
H782   H     0.67358   0.16792   0.88769   0.00000  Uiso   1.00
H783   H     0.82721   0.03773   0.75742   0.00000  Uiso   1.00
H784   H     0.83945   0.29560   0.90924   0.00000  Uiso   1.00
H785   H     0.82727   0.29648   0.75730   0.00000  Uiso   1.00
H786   H     0.83940   0.03686   0.90937   0.00000  Uiso   1.00
H787   H     0.77556   0.12037   0.70429   0.00000  Uiso   1.00
H788   H     0.89111   0.21296   0.96237   0.00000  Uiso   1.00
N789   N     0.83335   0.16668   0.95069   0.00000  Uiso   1.00
N790   N     0.83332   0.16666   0.71597   0.00000  Uiso   1.00
O791   O     0.83333   0.10655   0.87291   0.00000  Uiso   1.00
O792   O     0.83334   0.22678   0.79375   0.00000  Uiso   1.00
O793   O     0.83333   0.10654   0.79372   0.00000  Uiso   1.00
O794   O     0.83334   0.22679   0.87294   0.00000  Uiso   1.00
O795   O     0.75828   0.16667   0.86379   0.00000  Uiso   1.00
O796   O     0.90839   0.16666   0.80288   0.00000  Uiso   1.00
O797   O     0.75828   0.16666   0.78460   0.00000  Uiso   1.00
O798   O     0.90839   0.16667   0.88207   0.00000  Uiso   1.00
Br799  Br    0.08719   0.43599   0.93806   0.00000  Uiso   1.00
Br800  Br    0.24615   0.56401   0.72861   0.00000  Uiso   1.00
C801   C     0.16661   0.42074   0.83341   0.00000  Uiso   1.00
C802   C     0.16997   0.35438   0.87601   0.00000  Uiso   1.00
C803   C     0.16674   0.62391   0.83323   0.00000  Uiso   1.00
C804   C     0.16660   0.37609   0.83344   0.00000  Uiso   1.00
C805   C     0.13453   0.47429   0.68823   0.00000  Uiso   1.00
C806   C     0.19880   0.52571   0.97844   0.00000  Uiso   1.00
C807   C     0.13434   0.47411   0.97224   0.00000  Uiso   1.00
C808   C     0.19899   0.52589   0.69443   0.00000  Uiso   1.00
C809   C     0.16672   0.57926   0.83326   0.00000  Uiso   1.00
C810   C     0.06801   0.49991   0.82135   0.00000  Uiso   1.00
C811   C     0.26532   0.50009   0.84531   0.00000  Uiso   1.00
C812   C     0.01279   0.49964   0.81474   0.00000  Uiso   1.00
C813   C     0.32055   0.50036   0.85193   0.00000  Uiso   1.00
C814   C     0.16330   0.35487   0.79076   0.00000  Uiso   1.00
C815   C     0.17003   0.64513   0.87591   0.00000  Uiso   1.00
C816   C     0.16336   0.64562   0.79065   0.00000  Uiso   1.00
Cu817  Cu    0.16667   0.50001   0.88022   0.00000  Uiso   1.00
Cu818  Cu    0.16667   0.49999   0.78645   0.00000  Uiso   1.00
H819   H     0.32642   0.49875   0.77898   0.00000  Uiso   1.00
H820   H     0.00692   0.50125   0.88769   0.00000  Uiso   1.00
H821   H     0.16054   0.37106   0.75742   0.00000  Uiso   1.00
H822   H     0.17279   0.62894   0.90924   0.00000  Uiso   1.00
H823   H     0.16060   0.62981   0.75730   0.00000  Uiso   1.00
H824   H     0.17273   0.37019   0.90937   0.00000  Uiso   1.00
H825   H     0.10889   0.45371   0.70429   0.00000  Uiso   1.00
H826   H     0.22444   0.54629   0.96237   0.00000  Uiso   1.00
N827   N     0.16668   0.50001   0.95069   0.00000  Uiso   1.00
N828   N     0.16665   0.49999   0.71597   0.00000  Uiso   1.00
O829   O     0.16666   0.43989   0.87291   0.00000  Uiso   1.00
O830   O     0.16667   0.56011   0.79375   0.00000  Uiso   1.00
O831   O     0.16666   0.43988   0.79372   0.00000  Uiso   1.00
O832   O     0.16667   0.56012   0.87294   0.00000  Uiso   1.00
O833   O     0.09161   0.50000   0.86379   0.00000  Uiso   1.00
O834   O     0.24172   0.50000   0.80288   0.00000  Uiso   1.00
O835   O     0.09161   0.49999   0.78460   0.00000  Uiso   1.00
O836   O     0.24172   0.50001   0.88207   0.00000  Uiso   1.00
Br837  Br    0.42052   0.43599   0.93806   0.00000  Uiso   1.00
Br838  Br    0.57948   0.56401   0.72861   0.00000  Uiso   1.00
C839   C     0.49994   0.42074   0.83341   0.00000  Uiso   1.00
C840   C     0.50330   0.35438   0.87601   0.00000  Uiso   1.00
C841   C     0.50007   0.62391   0.83323   0.00000  Uiso   1.00
C842   C     0.49993   0.37609   0.83344   0.00000  Uiso   1.00
C843   C     0.46787   0.47429   0.68823   0.00000  Uiso   1.00
C844   C     0.53213   0.52571   0.97844   0.00000  Uiso   1.00
C845   C     0.46767   0.47411   0.97224   0.00000  Uiso   1.00
C846   C     0.53233   0.52589   0.69443   0.00000  Uiso   1.00
C847   C     0.50006   0.57926   0.83326   0.00000  Uiso   1.00
C848   C     0.40134   0.49991   0.82135   0.00000  Uiso   1.00
C849   C     0.59866   0.50009   0.84531   0.00000  Uiso   1.00
C850   C     0.34612   0.49964   0.81474   0.00000  Uiso   1.00
C851   C     0.65388   0.50036   0.85193   0.00000  Uiso   1.00
C852   C     0.49663   0.35487   0.79076   0.00000  Uiso   1.00
C853   C     0.50337   0.64513   0.87591   0.00000  Uiso   1.00
C854   C     0.49670   0.64562   0.79065   0.00000  Uiso   1.00
Cu855  Cu    0.50000   0.50001   0.88022   0.00000  Uiso   1.00
Cu856  Cu    0.50000   0.49999   0.78645   0.00000  Uiso   1.00
H857   H     0.65975   0.49875   0.77898   0.00000  Uiso   1.00
H858   H     0.34025   0.50125   0.88769   0.00000  Uiso   1.00
H859   H     0.49388   0.37106   0.75742   0.00000  Uiso   1.00
H860   H     0.50612   0.62894   0.90924   0.00000  Uiso   1.00
H861   H     0.49394   0.62981   0.75730   0.00000  Uiso   1.00
H862   H     0.50606   0.37019   0.90937   0.00000  Uiso   1.00
H863   H     0.44223   0.45371   0.70429   0.00000  Uiso   1.00
H864   H     0.55777   0.54629   0.96237   0.00000  Uiso   1.00
N865   N     0.50001   0.50001   0.95069   0.00000  Uiso   1.00
N866   N     0.49999   0.49999   0.71597   0.00000  Uiso   1.00
O867   O     0.50000   0.43989   0.87291   0.00000  Uiso   1.00
O868   O     0.50000   0.56011   0.79375   0.00000  Uiso   1.00
O869   O     0.50000   0.43988   0.79372   0.00000  Uiso   1.00
O870   O     0.50000   0.56012   0.87294   0.00000  Uiso   1.00
O871   O     0.42495   0.50000   0.86379   0.00000  Uiso   1.00
O872   O     0.57505   0.50000   0.80288   0.00000  Uiso   1.00
O873   O     0.42494   0.49999   0.78460   0.00000  Uiso   1.00
O874   O     0.57506   0.50001   0.88207   0.00000  Uiso   1.00
Br875  Br    0.75385   0.43599   0.93806   0.00000  Uiso   1.00
Br876  Br    0.91281   0.56401   0.72861   0.00000  Uiso   1.00
C877   C     0.83328   0.42074   0.83341   0.00000  Uiso   1.00
C878   C     0.83664   0.35438   0.87601   0.00000  Uiso   1.00
C879   C     0.83340   0.62391   0.83323   0.00000  Uiso   1.00
C880   C     0.83326   0.37609   0.83344   0.00000  Uiso   1.00
C881   C     0.80120   0.47429   0.68823   0.00000  Uiso   1.00
C882   C     0.86547   0.52571   0.97844   0.00000  Uiso   1.00
C883   C     0.80101   0.47411   0.97224   0.00000  Uiso   1.00
C884   C     0.86566   0.52589   0.69443   0.00000  Uiso   1.00
C885   C     0.83339   0.57926   0.83326   0.00000  Uiso   1.00
C886   C     0.73468   0.49991   0.82135   0.00000  Uiso   1.00
C887   C     0.93199   0.50009   0.84531   0.00000  Uiso   1.00
C888   C     0.67945   0.49964   0.81474   0.00000  Uiso   1.00
C889   C     0.98721   0.50036   0.85193   0.00000  Uiso   1.00
C890   C     0.82997   0.35487   0.79076   0.00000  Uiso   1.00
C891   C     0.83670   0.64513   0.87591   0.00000  Uiso   1.00
C892   C     0.83003   0.64562   0.79065   0.00000  Uiso   1.00
Cu893  Cu    0.83333   0.50001   0.88022   0.00000  Uiso   1.00
Cu894  Cu    0.83333   0.49999   0.78645   0.00000  Uiso   1.00
H895   H     0.99308   0.49875   0.77898   0.00000  Uiso   1.00
H896   H     0.67358   0.50125   0.88769   0.00000  Uiso   1.00
H897   H     0.82721   0.37106   0.75742   0.00000  Uiso   1.00
H898   H     0.83945   0.62894   0.90924   0.00000  Uiso   1.00
H899   H     0.82727   0.62981   0.75730   0.00000  Uiso   1.00
H900   H     0.83940   0.37019   0.90937   0.00000  Uiso   1.00
H901   H     0.77556   0.45371   0.70429   0.00000  Uiso   1.00
H902   H     0.89111   0.54629   0.96237   0.00000  Uiso   1.00
N903   N     0.83335   0.50001   0.95069   0.00000  Uiso   1.00
N904   N     0.83332   0.49999   0.71597   0.00000  Uiso   1.00
O905   O     0.83333   0.43989   0.87291   0.00000  Uiso   1.00
O906   O     0.83334   0.56011   0.79375   0.00000  Uiso   1.00
O907   O     0.83333   0.43988   0.79372   0.00000  Uiso   1.00
O908   O     0.83334   0.56012   0.87294   0.00000  Uiso   1.00
O909   O     0.75828   0.50000   0.86379   0.00000  Uiso   1.00
O910   O     0.90839   0.50000   0.80288   0.00000  Uiso   1.00
O911   O     0.75828   0.49999   0.78460   0.00000  Uiso   1.00
O912   O     0.90839   0.50001   0.88207   0.00000  Uiso   1.00
Br913  Br    0.08719   0.76932   0.93806   0.00000  Uiso   1.00
Br914  Br    0.24615   0.89734   0.72861   0.00000  Uiso   1.00
C915   C     0.16661   0.75407   0.83341   0.00000  Uiso   1.00
C916   C     0.16997   0.68771   0.87601   0.00000  Uiso   1.00
C917   C     0.16674   0.95724   0.83323   0.00000  Uiso   1.00
C918   C     0.16660   0.70943   0.83344   0.00000  Uiso   1.00
C919   C     0.13453   0.80763   0.68823   0.00000  Uiso   1.00
C920   C     0.19880   0.85904   0.97844   0.00000  Uiso   1.00
C921   C     0.13434   0.80745   0.97224   0.00000  Uiso   1.00
C922   C     0.19899   0.85922   0.69443   0.00000  Uiso   1.00
C923   C     0.16672   0.91259   0.83326   0.00000  Uiso   1.00
C924   C     0.06801   0.83324   0.82135   0.00000  Uiso   1.00
C925   C     0.26532   0.83343   0.84531   0.00000  Uiso   1.00
C926   C     0.01279   0.83297   0.81474   0.00000  Uiso   1.00
C927   C     0.32055   0.83370   0.85193   0.00000  Uiso   1.00
C928   C     0.16330   0.68820   0.79076   0.00000  Uiso   1.00
C929   C     0.17003   0.97847   0.87591   0.00000  Uiso   1.00
C930   C     0.16336   0.97895   0.79065   0.00000  Uiso   1.00
Cu931  Cu    0.16667   0.83334   0.88022   0.00000  Uiso   1.00
Cu932  Cu    0.16667   0.83333   0.78645   0.00000  Uiso   1.00
H933   H     0.32642   0.83208   0.77898   0.00000  Uiso   1.00
H934   H     0.00692   0.83458   0.88769   0.00000  Uiso   1.00
H935   H     0.16054   0.70440   0.75742   0.00000  Uiso   1.00
H936   H     0.17279   0.96227   0.90924   0.00000  Uiso   1.00
H937   H     0.16060   0.96314   0.75730   0.00000  Uiso   1.00
H938   H     0.17273   0.70352   0.90937   0.00000  Uiso   1.00
H939   H     0.10889   0.78704   0.70429   0.00000  Uiso   1.00
H940   H     0.22444   0.87963   0.96237   0.00000  Uiso   1.00
N941   N     0.16668   0.83334   0.95069   0.00000  Uiso   1.00
N942   N     0.16665   0.83332   0.71597   0.00000  Uiso   1.00
O943   O     0.16666   0.77322   0.87291   0.00000  Uiso   1.00
O944   O     0.16667   0.89345   0.79375   0.00000  Uiso   1.00
O945   O     0.16666   0.77321   0.79372   0.00000  Uiso   1.00
O946   O     0.16667   0.89346   0.87294   0.00000  Uiso   1.00
O947   O     0.09161   0.83334   0.86379   0.00000  Uiso   1.00
O948   O     0.24172   0.83333   0.80288   0.00000  Uiso   1.00
O949   O     0.09161   0.83333   0.78460   0.00000  Uiso   1.00
O950   O     0.24172   0.83334   0.88207   0.00000  Uiso   1.00
Br951  Br    0.42052   0.76932   0.93806   0.00000  Uiso   1.00
Br952  Br    0.57948   0.89734   0.72861   0.00000  Uiso   1.00
C953   C     0.49994   0.75407   0.83341   0.00000  Uiso   1.00
C954   C     0.50330   0.68771   0.87601   0.00000  Uiso   1.00
C955   C     0.50007   0.95724   0.83323   0.00000  Uiso   1.00
C956   C     0.49993   0.70943   0.83344   0.00000  Uiso   1.00
C957   C     0.46787   0.80763   0.68823   0.00000  Uiso   1.00
C958   C     0.53213   0.85904   0.97844   0.00000  Uiso   1.00
C959   C     0.46767   0.80745   0.97224   0.00000  Uiso   1.00
C960   C     0.53233   0.85922   0.69443   0.00000  Uiso   1.00
C961   C     0.50006   0.91259   0.83326   0.00000  Uiso   1.00
C962   C     0.40134   0.83324   0.82135   0.00000  Uiso   1.00
C963   C     0.59866   0.83343   0.84531   0.00000  Uiso   1.00
C964   C     0.34612   0.83297   0.81474   0.00000  Uiso   1.00
C965   C     0.65388   0.83370   0.85193   0.00000  Uiso   1.00
C966   C     0.49663   0.68820   0.79076   0.00000  Uiso   1.00
C967   C     0.50337   0.97847   0.87591   0.00000  Uiso   1.00
C968   C     0.49670   0.97895   0.79065   0.00000  Uiso   1.00
Cu969  Cu    0.50000   0.83334   0.88022   0.00000  Uiso   1.00
Cu970  Cu    0.50000   0.83333   0.78645   0.00000  Uiso   1.00
H971   H     0.65975   0.83208   0.77898   0.00000  Uiso   1.00
H972   H     0.34025   0.83458   0.88769   0.00000  Uiso   1.00
H973   H     0.49388   0.70440   0.75742   0.00000  Uiso   1.00
H974   H     0.50612   0.96227   0.90924   0.00000  Uiso   1.00
H975   H     0.49394   0.96314   0.75730   0.00000  Uiso   1.00
H976   H     0.50606   0.70352   0.90937   0.00000  Uiso   1.00
H977   H     0.44223   0.78704   0.70429   0.00000  Uiso   1.00
H978   H     0.55777   0.87963   0.96237   0.00000  Uiso   1.00
N979   N     0.50001   0.83334   0.95069   0.00000  Uiso   1.00
N980   N     0.49999   0.83332   0.71597   0.00000  Uiso   1.00
O981   O     0.50000   0.77322   0.87291   0.00000  Uiso   1.00
O982   O     0.50000   0.89345   0.79375   0.00000  Uiso   1.00
O983   O     0.50000   0.77321   0.79372   0.00000  Uiso   1.00
O984   O     0.50000   0.89346   0.87294   0.00000  Uiso   1.00
O985   O     0.42495   0.83334   0.86379   0.00000  Uiso   1.00
O986   O     0.57505   0.83333   0.80288   0.00000  Uiso   1.00
O987   O     0.42494   0.83333   0.78460   0.00000  Uiso   1.00
O988   O     0.57506   0.83334   0.88207   0.00000  Uiso   1.00
Br989  Br    0.75385   0.76932   0.93806   0.00000  Uiso   1.00
Br990  Br    0.91281   0.89734   0.72861   0.00000  Uiso   1.00
C991   C     0.83328   0.75407   0.83341   0.00000  Uiso   1.00
C992   C     0.83664   0.68771   0.87601   0.00000  Uiso   1.00
C993   C     0.83340   0.95724   0.83323   0.00000  Uiso   1.00
C994   C     0.83326   0.70943   0.83344   0.00000  Uiso   1.00
C995   C     0.80120   0.80763   0.68823   0.00000  Uiso   1.00
C996   C     0.86547   0.85904   0.97844   0.00000  Uiso   1.00
C997   C     0.80101   0.80745   0.97224   0.00000  Uiso   1.00
C998   C     0.86566   0.85922   0.69443   0.00000  Uiso   1.00
C999   C     0.83339   0.91259   0.83326   0.00000  Uiso   1.00
C1000  C     0.73468   0.83324   0.82135   0.00000  Uiso   1.00
C1001  C     0.93199   0.83343   0.84531   0.00000  Uiso   1.00
C1002  C     0.67945   0.83297   0.81474   0.00000  Uiso   1.00
C1003  C     0.98721   0.83370   0.85193   0.00000  Uiso   1.00
C1004  C     0.82997   0.68820   0.79076   0.00000  Uiso   1.00
C1005  C     0.83670   0.97847   0.87591   0.00000  Uiso   1.00
C1006  C     0.83003   0.97895   0.79065   0.00000  Uiso   1.00
Cu1007 Cu    0.83333   0.83334   0.88022   0.00000  Uiso   1.00
Cu1008 Cu    0.83333   0.83333   0.78645   0.00000  Uiso   1.00
H1009  H     0.99308   0.83208   0.77898   0.00000  Uiso   1.00
H1010  H     0.67358   0.83458   0.88769   0.00000  Uiso   1.00
H1011  H     0.82721   0.70440   0.75742   0.00000  Uiso   1.00
H1012  H     0.83945   0.96227   0.90924   0.00000  Uiso   1.00
H1013  H     0.82727   0.96314   0.75730   0.00000  Uiso   1.00
H1014  H     0.83940   0.70352   0.90937   0.00000  Uiso   1.00
H1015  H     0.77556   0.78704   0.70429   0.00000  Uiso   1.00
H1016  H     0.89111   0.87963   0.96237   0.00000  Uiso   1.00
N1017  N     0.83335   0.83334   0.95069   0.00000  Uiso   1.00
N1018  N     0.83332   0.83332   0.71597   0.00000  Uiso   1.00
O1019  O     0.83333   0.77322   0.87291   0.00000  Uiso   1.00
O1020  O     0.83334   0.89345   0.79375   0.00000  Uiso   1.00
O1021  O     0.83333   0.77321   0.79372   0.00000  Uiso   1.00
O1022  O     0.83334   0.89346   0.87294   0.00000  Uiso   1.00
O1023  O     0.75828   0.83334   0.86379   0.00000  Uiso   1.00
O1024  O     0.90839   0.83333   0.80288   0.00000  Uiso   1.00
O1025  O     0.75828   0.83333   0.78460   0.00000  Uiso   1.00
O1026  O     0.90839   0.83334   0.88207   0.00000  Uiso   1.00
loop_
_geom_bond_atom_site_label_1
_geom_bond_atom_site_label_2
_geom_bond_distance
_geom_bond_site_symmetry_2
_ccdc_geom_bond_type
Br1    C9      1.914   .     S
Br2    C10     1.914   .     S
C3     C6      1.450   .     S
C3     O31     1.297   .     A
C3     O33     1.294   .     A
C4     H26     1.083   .     S
C4     C6      1.400   .     A
C4     C245    1.383   1_545 S
C5     C11     1.450   .     S
C5     C17     1.402   .     A
C5     C18     1.400   .     A
C6     C16     1.402   .     A
C7     H27     1.082   .     S
C7     N30     1.359   .     A
C7     C693    1.415   1_554 S
C8     H28     1.082   .     S
C8     N29     1.359   .     A
C8     C352    1.415   .     S
C9     N29     1.382   .     A
C9     C349    1.415   .     S
C10    N30     1.382   .     A
C10    C692    1.415   1_554 S
C11    O34     1.294   .     A
C11    O32     1.297   .     A
C12    O35     1.292   .     A
C12    C14     1.434   .     S
C12    O37     1.291   .     A
C13    O38     1.291   .     A
C13    C15     1.434   .     S
C13    O36     1.292   .     A
C14    C91     1.333   1_455 S
C14    H97     1.087   1_455 S
C15    C52     1.333   .     S
C15    H60     1.087   .     S
C16    H23     1.083   .     S
C16    C246    1.383   1_545 S
C17    H24     1.083   .     S
C17    C118    1.383   .     S
C18    H25     1.083   .     S
C18    C130    1.383   .     S
Cu19   O38     1.959   .     S
Cu19   Cu20    2.692   .     S
Cu19   O31     1.966   .     S
Cu19   N29     2.023   .     S
Cu19   O35     1.960   .     S
Cu19   O34     1.963   .     S
Cu20   O33     1.963   .     S
Cu20   N30     2.023   .     S
Cu20   O37     1.959   .     S
Cu20   O32     1.966   .     S
Cu20   O36     1.960   .     S
H21    C52     1.087   .     S
H22    C91     1.087   1_455 S
Br39   C47     1.914   .     S
Br40   C48     1.914   .     S
C41    C44     1.450   .     S
C41    O69     1.297   .     A
C41    O71     1.294   .     A
C42    H64     1.083   .     S
C42    C44     1.400   .     A
C42    C283    1.383   1_545 S
C43    C49     1.450   .     S
C43    C55     1.402   .     A
C43    C56     1.400   .     A
C44    C54     1.402   .     A
C45    H65     1.082   .     S
C45    N68     1.359   .     A
C45    C731    1.415   1_554 S
C46    H66     1.082   .     S
C46    N67     1.359   .     A
C46    C390    1.415   .     S
C47    N67     1.382   .     A
C47    C387    1.415   .     S
C48    N68     1.382   .     A
C48    C730    1.415   1_554 S
C49    O72     1.294   .     A
C49    O70     1.297   .     A
C50    O73     1.292   .     A
C50    C52     1.434   .     S
C50    O75     1.291   .     A
C51    O76     1.291   .     A
C51    C53     1.434   .     S
C51    O74     1.292   .     A
C53    C90     1.333   .     S
C53    H98     1.087   .     S
C54    H61     1.083   .     S
C54    C284    1.383   1_545 S
C55    H62     1.083   .     S
C55    C156    1.383   .     S
C56    H63     1.083   .     S
C56    C168    1.383   .     S
Cu57   O76     1.959   .     S
Cu57   Cu58    2.692   .     S
Cu57   O69     1.966   .     S
Cu57   N67     2.023   .     S
Cu57   O73     1.960   .     S
Cu57   O72     1.963   .     S
Cu58   O71     1.963   .     S
Cu58   N68     2.023   .     S
Cu58   O75     1.959   .     S
Cu58   O70     1.966   .     S
Cu58   O74     1.960   .     S
H59    C90     1.087   .     S
Br77   C85     1.914   .     S
Br78   C86     1.914   .     S
C79    C82     1.450   .     S
C79    O107    1.297   .     A
C79    O109    1.294   .     A
C80    H102    1.083   .     S
C80    C82     1.400   .     A
C80    C321    1.383   1_545 S
C81    C87     1.450   .     S
C81    C93     1.402   .     A
C81    C94     1.400   .     A
C82    C92     1.402   .     A
C83    H103    1.082   .     S
C83    N106    1.359   .     A
C83    C769    1.415   1_554 S
C84    H104    1.082   .     S
C84    N105    1.359   .     A
C84    C428    1.415   .     S
C85    N105    1.382   .     A
C85    C425    1.415   .     S
C86    N106    1.382   .     A
C86    C768    1.415   1_554 S
C87    O110    1.294   .     A
C87    O108    1.297   .     A
C88    O111    1.292   .     A
C88    C90     1.434   .     S
C88    O113    1.291   .     A
C89    O114    1.291   .     A
C89    C91     1.434   .     S
C89    O112    1.292   .     A
C91    C14     1.333   1_655 S
C91    H22     1.087   1_655 S
C92    H99     1.083   .     S
C92    C322    1.383   1_545 S
C93    H100    1.083   .     S
C93    C194    1.383   .     S
C94    H101    1.083   .     S
C94    C206    1.383   .     S
Cu95   O114    1.959   .     S
Cu95   Cu96    2.692   .     S
Cu95   O107    1.966   .     S
Cu95   N105    2.023   .     S
Cu95   O111    1.960   .     S
Cu95   O110    1.963   .     S
Cu96   O109    1.963   .     S
Cu96   N106    2.023   .     S
Cu96   O113    1.959   .     S
Cu96   O108    1.966   .     S
Cu96   O112    1.960   .     S
H97    C14     1.087   1_655 S
Br115  C123    1.914   .     S
Br116  C124    1.914   .     S
C117   C120    1.450   .     S
C117   O145    1.297   .     A
C117   O147    1.294   .     A
C118   H140    1.083   .     S
C118   C120    1.400   .     A
C119   C125    1.450   .     S
C119   C131    1.402   .     A
C119   C132    1.400   .     A
C120   C130    1.402   .     A
C121   H141    1.082   .     S
C121   N144    1.359   .     A
C121   C807    1.415   1_554 S
C122   H142    1.082   .     S
C122   N143    1.359   .     A
C122   C466    1.415   .     S
C123   N143    1.382   .     A
C123   C463    1.415   .     S
C124   N144    1.382   .     A
C124   C806    1.415   1_554 S
C125   O148    1.294   .     A
C125   O146    1.297   .     A
C126   O149    1.292   .     A
C126   C128    1.434   .     S
C126   O151    1.291   .     A
C127   O152    1.291   .     A
C127   C129    1.434   .     S
C127   O150    1.292   .     A
C128   C205    1.333   1_455 S
C128   H211    1.087   1_455 S
C129   C166    1.333   .     S
C129   H174    1.087   .     S
C130   H137    1.083   .     S
C131   H138    1.083   .     S
C131   C232    1.383   .     S
C132   H139    1.083   .     S
C132   C244    1.383   .     S
Cu133  O152    1.959   .     S
Cu133  Cu134   2.692   .     S
Cu133  O145    1.966   .     S
Cu133  N143    2.023   .     S
Cu133  O149    1.960   .     S
Cu133  O148    1.963   .     S
Cu134  O147    1.963   .     S
Cu134  N144    2.023   .     S
Cu134  O151    1.959   .     S
Cu134  O146    1.966   .     S
Cu134  O150    1.960   .     S
H135   C166    1.087   .     S
H136   C205    1.087   1_455 S
Br153  C161    1.914   .     S
Br154  C162    1.914   .     S
C155   C158    1.450   .     S
C155   O183    1.297   .     A
C155   O185    1.294   .     A
C156   H178    1.083   .     S
C156   C158    1.400   .     A
C157   C163    1.450   .     S
C157   C169    1.402   .     A
C157   C170    1.400   .     A
C158   C168    1.402   .     A
C159   H179    1.082   .     S
C159   N182    1.359   .     A
C159   C845    1.415   1_554 S
C160   H180    1.082   .     S
C160   N181    1.359   .     A
C160   C504    1.415   .     S
C161   N181    1.382   .     A
C161   C501    1.415   .     S
C162   N182    1.382   .     A
C162   C844    1.415   1_554 S
C163   O186    1.294   .     A
C163   O184    1.297   .     A
C164   O187    1.292   .     A
C164   C166    1.434   .     S
C164   O189    1.291   .     A
C165   O190    1.291   .     A
C165   C167    1.434   .     S
C165   O188    1.292   .     A
C167   C204    1.333   .     S
C167   H212    1.087   .     S
C168   H175    1.083   .     S
C169   H176    1.083   .     S
C169   C270    1.383   .     S
C170   H177    1.083   .     S
C170   C282    1.383   .     S
Cu171  O190    1.959   .     S
Cu171  Cu172   2.692   .     S
Cu171  O183    1.966   .     S
Cu171  N181    2.023   .     S
Cu171  O187    1.960   .     S
Cu171  O186    1.963   .     S
Cu172  O185    1.963   .     S
Cu172  N182    2.023   .     S
Cu172  O189    1.959   .     S
Cu172  O184    1.966   .     S
Cu172  O188    1.960   .     S
H173   C204    1.087   .     S
Br191  C199    1.914   .     S
Br192  C200    1.914   .     S
C193   C196    1.450   .     S
C193   O221    1.297   .     A
C193   O223    1.294   .     A
C194   H216    1.083   .     S
C194   C196    1.400   .     A
C195   C201    1.450   .     S
C195   C207    1.402   .     A
C195   C208    1.400   .     A
C196   C206    1.402   .     A
C197   H217    1.082   .     S
C197   N220    1.359   .     A
C197   C883    1.415   1_554 S
C198   H218    1.082   .     S
C198   N219    1.359   .     A
C198   C542    1.415   .     S
C199   N219    1.382   .     A
C199   C539    1.415   .     S
C200   N220    1.382   .     A
C200   C882    1.415   1_554 S
C201   O224    1.294   .     A
C201   O222    1.297   .     A
C202   O225    1.292   .     A
C202   C204    1.434   .     S
C202   O227    1.291   .     A
C203   O228    1.291   .     A
C203   C205    1.434   .     S
C203   O226    1.292   .     A
C205   C128    1.333   1_655 S
C205   H136    1.087   1_655 S
C206   H213    1.083   .     S
C207   H214    1.083   .     S
C207   C308    1.383   .     S
C208   H215    1.083   .     S
C208   C320    1.383   .     S
Cu209  O228    1.959   .     S
Cu209  Cu210   2.692   .     S
Cu209  O221    1.966   .     S
Cu209  N219    2.023   .     S
Cu209  O225    1.960   .     S
Cu209  O224    1.963   .     S
Cu210  O223    1.963   .     S
Cu210  N220    2.023   .     S
Cu210  O227    1.959   .     S
Cu210  O222    1.966   .     S
Cu210  O226    1.960   .     S
H211   C128    1.087   1_655 S
Br229  C237    1.914   .     S
Br230  C238    1.914   .     S
C231   C234    1.450   .     S
C231   O259    1.297   .     A
C231   O261    1.294   .     A
C232   H254    1.083   .     S
C232   C234    1.400   .     A
C233   C239    1.450   .     S
C233   C245    1.402   .     A
C233   C246    1.400   .     A
C234   C244    1.402   .     A
C235   H255    1.082   .     S
C235   N258    1.359   .     A
C235   C921    1.415   1_554 S
C236   H256    1.082   .     S
C236   N257    1.359   .     A
C236   C580    1.415   .     S
C237   N257    1.382   .     A
C237   C577    1.415   .     S
C238   N258    1.382   .     A
C238   C920    1.415   1_554 S
C239   O262    1.294   .     A
C239   O260    1.297   .     A
C240   O263    1.292   .     A
C240   C242    1.434   .     S
C240   O265    1.291   .     A
C241   O266    1.291   .     A
C241   C243    1.434   .     S
C241   O264    1.292   .     A
C242   C319    1.333   1_455 S
C242   H325    1.087   1_455 S
C243   C280    1.333   .     S
C243   H288    1.087   .     S
C244   H251    1.083   .     S
C245   H252    1.083   .     S
C245   C4      1.383   1_565 S
C246   H253    1.083   .     S
C246   C16     1.383   1_565 S
Cu247  O266    1.959   .     S
Cu247  Cu248   2.692   .     S
Cu247  O259    1.966   .     S
Cu247  N257    2.023   .     S
Cu247  O263    1.960   .     S
Cu247  O262    1.963   .     S
Cu248  O261    1.963   .     S
Cu248  N258    2.023   .     S
Cu248  O265    1.959   .     S
Cu248  O260    1.966   .     S
Cu248  O264    1.960   .     S
H249   C280    1.087   .     S
H250   C319    1.087   1_455 S
Br267  C275    1.914   .     S
Br268  C276    1.914   .     S
C269   C272    1.450   .     S
C269   O297    1.297   .     A
C269   O299    1.294   .     A
C270   H292    1.083   .     S
C270   C272    1.400   .     A
C271   C277    1.450   .     S
C271   C283    1.402   .     A
C271   C284    1.400   .     A
C272   C282    1.402   .     A
C273   H293    1.082   .     S
C273   N296    1.359   .     A
C273   C959    1.415   1_554 S
C274   H294    1.082   .     S
C274   N295    1.359   .     A
C274   C618    1.415   .     S
C275   N295    1.382   .     A
C275   C615    1.415   .     S
C276   N296    1.382   .     A
C276   C958    1.415   1_554 S
C277   O300    1.294   .     A
C277   O298    1.297   .     A
C278   O301    1.292   .     A
C278   C280    1.434   .     S
C278   O303    1.291   .     A
C279   O304    1.291   .     A
C279   C281    1.434   .     S
C279   O302    1.292   .     A
C281   C318    1.333   .     S
C281   H326    1.087   .     S
C282   H289    1.083   .     S
C283   H290    1.083   .     S
C283   C42     1.383   1_565 S
C284   H291    1.083   .     S
C284   C54     1.383   1_565 S
Cu285  O304    1.959   .     S
Cu285  Cu286   2.692   .     S
Cu285  O297    1.966   .     S
Cu285  N295    2.023   .     S
Cu285  O301    1.960   .     S
Cu285  O300    1.963   .     S
Cu286  O299    1.963   .     S
Cu286  N296    2.023   .     S
Cu286  O303    1.959   .     S
Cu286  O298    1.966   .     S
Cu286  O302    1.960   .     S
H287   C318    1.087   .     S
Br305  C313    1.914   .     S
Br306  C314    1.914   .     S
C307   C310    1.450   .     S
C307   O335    1.297   .     A
C307   O337    1.294   .     A
C308   H330    1.083   .     S
C308   C310    1.400   .     A
C309   C315    1.450   .     S
C309   C321    1.402   .     A
C309   C322    1.400   .     A
C310   C320    1.402   .     A
C311   H331    1.082   .     S
C311   N334    1.359   .     A
C311   C997    1.415   1_554 S
C312   H332    1.082   .     S
C312   N333    1.359   .     A
C312   C656    1.415   .     S
C313   N333    1.382   .     A
C313   C653    1.415   .     S
C314   N334    1.382   .     A
C314   C996    1.415   1_554 S
C315   O338    1.294   .     A
C315   O336    1.297   .     A
C316   O339    1.292   .     A
C316   C318    1.434   .     S
C316   O341    1.291   .     A
C317   O342    1.291   .     A
C317   C319    1.434   .     S
C317   O340    1.292   .     A
C319   C242    1.333   1_655 S
C319   H250    1.087   1_655 S
C320   H327    1.083   .     S
C321   H328    1.083   .     S
C321   C80     1.383   1_565 S
C322   H329    1.083   .     S
C322   C92     1.383   1_565 S
Cu323  O342    1.959   .     S
Cu323  Cu324   2.692   .     S
Cu323  O335    1.966   .     S
Cu323  N333    2.023   .     S
Cu323  O339    1.960   .     S
Cu323  O338    1.963   .     S
Cu324  O337    1.963   .     S
Cu324  N334    2.023   .     S
Cu324  O341    1.959   .     S
Cu324  O336    1.966   .     S
Cu324  O340    1.960   .     S
H325   C242    1.087   1_655 S
Br343  C351    1.914   .     S
Br344  C352    1.914   .     S
C345   C348    1.450   .     S
C345   O373    1.297   .     A
C345   O375    1.294   .     A
C346   H368    1.083   .     S
C346   C348    1.400   .     A
C346   C587    1.383   1_545 S
C347   C353    1.450   .     S
C347   C359    1.402   .     A
C347   C360    1.400   .     A
C348   C358    1.402   .     A
C349   H369    1.082   .     S
C349   N372    1.359   .     A
C350   H370    1.082   .     S
C350   N371    1.359   .     A
C350   C694    1.415   .     S
C351   N371    1.382   .     A
C351   C691    1.415   .     S
C352   N372    1.382   .     A
C353   O376    1.294   .     A
C353   O374    1.297   .     A
C354   O377    1.292   .     A
C354   C356    1.434   .     S
C354   O379    1.291   .     A
C355   O380    1.291   .     A
C355   C357    1.434   .     S
C355   O378    1.292   .     A
C356   C433    1.333   1_455 S
C356   H439    1.087   1_455 S
C357   C394    1.333   .     S
C357   H402    1.087   .     S
C358   H365    1.083   .     S
C358   C588    1.383   1_545 S
C359   H366    1.083   .     S
C359   C460    1.383   .     S
C360   H367    1.083   .     S
C360   C472    1.383   .     S
Cu361  O380    1.959   .     S
Cu361  Cu362   2.692   .     S
Cu361  O373    1.966   .     S
Cu361  N371    2.023   .     S
Cu361  O377    1.960   .     S
Cu361  O376    1.963   .     S
Cu362  O375    1.963   .     S
Cu362  N372    2.023   .     S
Cu362  O379    1.959   .     S
Cu362  O374    1.966   .     S
Cu362  O378    1.960   .     S
H363   C394    1.087   .     S
H364   C433    1.087   1_455 S
Br381  C389    1.914   .     S
Br382  C390    1.914   .     S
C383   C386    1.450   .     S
C383   O411    1.297   .     A
C383   O413    1.294   .     A
C384   H406    1.083   .     S
C384   C386    1.400   .     A
C384   C625    1.383   1_545 S
C385   C391    1.450   .     S
C385   C397    1.402   .     A
C385   C398    1.400   .     A
C386   C396    1.402   .     A
C387   H407    1.082   .     S
C387   N410    1.359   .     A
C388   H408    1.082   .     S
C388   N409    1.359   .     A
C388   C732    1.415   .     S
C389   N409    1.382   .     A
C389   C729    1.415   .     S
C390   N410    1.382   .     A
C391   O414    1.294   .     A
C391   O412    1.297   .     A
C392   O415    1.292   .     A
C392   C394    1.434   .     S
C392   O417    1.291   .     A
C393   O418    1.291   .     A
C393   C395    1.434   .     S
C393   O416    1.292   .     A
C395   C432    1.333   .     S
C395   H440    1.087   .     S
C396   H403    1.083   .     S
C396   C626    1.383   1_545 S
C397   H404    1.083   .     S
C397   C498    1.383   .     S
C398   H405    1.083   .     S
C398   C510    1.383   .     S
Cu399  O418    1.959   .     S
Cu399  Cu400   2.692   .     S
Cu399  O411    1.966   .     S
Cu399  N409    2.023   .     S
Cu399  O415    1.960   .     S
Cu399  O414    1.963   .     S
Cu400  O413    1.963   .     S
Cu400  N410    2.023   .     S
Cu400  O417    1.959   .     S
Cu400  O412    1.966   .     S
Cu400  O416    1.960   .     S
H401   C432    1.087   .     S
Br419  C427    1.914   .     S
Br420  C428    1.914   .     S
C421   C424    1.450   .     S
C421   O449    1.297   .     A
C421   O451    1.294   .     A
C422   H444    1.083   .     S
C422   C424    1.400   .     A
C422   C663    1.383   1_545 S
C423   C429    1.450   .     S
C423   C435    1.402   .     A
C423   C436    1.400   .     A
C424   C434    1.402   .     A
C425   H445    1.082   .     S
C425   N448    1.359   .     A
C426   H446    1.082   .     S
C426   N447    1.359   .     A
C426   C770    1.415   .     S
C427   N447    1.382   .     A
C427   C767    1.415   .     S
C428   N448    1.382   .     A
C429   O452    1.294   .     A
C429   O450    1.297   .     A
C430   O453    1.292   .     A
C430   C432    1.434   .     S
C430   O455    1.291   .     A
C431   O456    1.291   .     A
C431   C433    1.434   .     S
C431   O454    1.292   .     A
C433   C356    1.333   1_655 S
C433   H364    1.087   1_655 S
C434   H441    1.083   .     S
C434   C664    1.383   1_545 S
C435   H442    1.083   .     S
C435   C536    1.383   .     S
C436   H443    1.083   .     S
C436   C548    1.383   .     S
Cu437  O456    1.959   .     S
Cu437  Cu438   2.692   .     S
Cu437  O449    1.966   .     S
Cu437  N447    2.023   .     S
Cu437  O453    1.960   .     S
Cu437  O452    1.963   .     S
Cu438  O451    1.963   .     S
Cu438  N448    2.023   .     S
Cu438  O455    1.959   .     S
Cu438  O450    1.966   .     S
Cu438  O454    1.960   .     S
H439   C356    1.087   1_655 S
Br457  C465    1.914   .     S
Br458  C466    1.914   .     S
C459   C462    1.450   .     S
C459   O487    1.297   .     A
C459   O489    1.294   .     A
C460   H482    1.083   .     S
C460   C462    1.400   .     A
C461   C467    1.450   .     S
C461   C473    1.402   .     A
C461   C474    1.400   .     A
C462   C472    1.402   .     A
C463   H483    1.082   .     S
C463   N486    1.359   .     A
C464   H484    1.082   .     S
C464   N485    1.359   .     A
C464   C808    1.415   .     S
C465   N485    1.382   .     A
C465   C805    1.415   .     S
C466   N486    1.382   .     A
C467   O490    1.294   .     A
C467   O488    1.297   .     A
C468   O491    1.292   .     A
C468   C470    1.434   .     S
C468   O493    1.291   .     A
C469   O494    1.291   .     A
C469   C471    1.434   .     S
C469   O492    1.292   .     A
C470   C547    1.333   1_455 S
C470   H553    1.087   1_455 S
C471   C508    1.333   .     S
C471   H516    1.087   .     S
C472   H479    1.083   .     S
C473   H480    1.083   .     S
C473   C574    1.383   .     S
C474   H481    1.083   .     S
C474   C586    1.383   .     S
Cu475  O494    1.959   .     S
Cu475  Cu476   2.692   .     S
Cu475  O487    1.966   .     S
Cu475  N485    2.023   .     S
Cu475  O491    1.960   .     S
Cu475  O490    1.963   .     S
Cu476  O489    1.963   .     S
Cu476  N486    2.023   .     S
Cu476  O493    1.959   .     S
Cu476  O488    1.966   .     S
Cu476  O492    1.960   .     S
H477   C508    1.087   .     S
H478   C547    1.087   1_455 S
Br495  C503    1.914   .     S
Br496  C504    1.914   .     S
C497   C500    1.450   .     S
C497   O525    1.297   .     A
C497   O527    1.294   .     A
C498   H520    1.083   .     S
C498   C500    1.400   .     A
C499   C505    1.450   .     S
C499   C511    1.402   .     A
C499   C512    1.400   .     A
C500   C510    1.402   .     A
C501   H521    1.082   .     S
C501   N524    1.359   .     A
C502   H522    1.082   .     S
C502   N523    1.359   .     A
C502   C846    1.415   .     S
C503   N523    1.382   .     A
C503   C843    1.415   .     S
C504   N524    1.382   .     A
C505   O528    1.294   .     A
C505   O526    1.297   .     A
C506   O529    1.292   .     A
C506   C508    1.434   .     S
C506   O531    1.291   .     A
C507   O532    1.291   .     A
C507   C509    1.434   .     S
C507   O530    1.292   .     A
C509   C546    1.333   .     S
C509   H554    1.087   .     S
C510   H517    1.083   .     S
C511   H518    1.083   .     S
C511   C612    1.383   .     S
C512   H519    1.083   .     S
C512   C624    1.383   .     S
Cu513  O532    1.959   .     S
Cu513  Cu514   2.692   .     S
Cu513  O525    1.966   .     S
Cu513  N523    2.023   .     S
Cu513  O529    1.960   .     S
Cu513  O528    1.963   .     S
Cu514  O527    1.963   .     S
Cu514  N524    2.023   .     S
Cu514  O531    1.959   .     S
Cu514  O526    1.966   .     S
Cu514  O530    1.960   .     S
H515   C546    1.087   .     S
Br533  C541    1.914   .     S
Br534  C542    1.914   .     S
C535   C538    1.450   .     S
C535   O563    1.297   .     A
C535   O565    1.294   .     A
C536   H558    1.083   .     S
C536   C538    1.400   .     A
C537   C543    1.450   .     S
C537   C549    1.402   .     A
C537   C550    1.400   .     A
C538   C548    1.402   .     A
C539   H559    1.082   .     S
C539   N562    1.359   .     A
C540   H560    1.082   .     S
C540   N561    1.359   .     A
C540   C884    1.415   .     S
C541   N561    1.382   .     A
C541   C881    1.415   .     S
C542   N562    1.382   .     A
C543   O566    1.294   .     A
C543   O564    1.297   .     A
C544   O567    1.292   .     A
C544   C546    1.434   .     S
C544   O569    1.291   .     A
C545   O570    1.291   .     A
C545   C547    1.434   .     S
C545   O568    1.292   .     A
C547   C470    1.333   1_655 S
C547   H478    1.087   1_655 S
C548   H555    1.083   .     S
C549   H556    1.083   .     S
C549   C650    1.383   .     S
C550   H557    1.083   .     S
C550   C662    1.383   .     S
Cu551  O570    1.959   .     S
Cu551  Cu552   2.692   .     S
Cu551  O563    1.966   .     S
Cu551  N561    2.023   .     S
Cu551  O567    1.960   .     S
Cu551  O566    1.963   .     S
Cu552  O565    1.963   .     S
Cu552  N562    2.023   .     S
Cu552  O569    1.959   .     S
Cu552  O564    1.966   .     S
Cu552  O568    1.960   .     S
H553   C470    1.087   1_655 S
Br571  C579    1.914   .     S
Br572  C580    1.914   .     S
C573   C576    1.450   .     S
C573   O601    1.297   .     A
C573   O603    1.294   .     A
C574   H596    1.083   .     S
C574   C576    1.400   .     A
C575   C581    1.450   .     S
C575   C587    1.402   .     A
C575   C588    1.400   .     A
C576   C586    1.402   .     A
C577   H597    1.082   .     S
C577   N600    1.359   .     A
C578   H598    1.082   .     S
C578   N599    1.359   .     A
C578   C922    1.415   .     S
C579   N599    1.382   .     A
C579   C919    1.415   .     S
C580   N600    1.382   .     A
C581   O604    1.294   .     A
C581   O602    1.297   .     A
C582   O605    1.292   .     A
C582   C584    1.434   .     S
C582   O607    1.291   .     A
C583   O608    1.291   .     A
C583   C585    1.434   .     S
C583   O606    1.292   .     A
C584   C661    1.333   1_455 S
C584   H667    1.087   1_455 S
C585   C622    1.333   .     S
C585   H630    1.087   .     S
C586   H593    1.083   .     S
C587   H594    1.083   .     S
C587   C346    1.383   1_565 S
C588   H595    1.083   .     S
C588   C358    1.383   1_565 S
Cu589  O608    1.959   .     S
Cu589  Cu590   2.692   .     S
Cu589  O601    1.966   .     S
Cu589  N599    2.023   .     S
Cu589  O605    1.960   .     S
Cu589  O604    1.963   .     S
Cu590  O603    1.963   .     S
Cu590  N600    2.023   .     S
Cu590  O607    1.959   .     S
Cu590  O602    1.966   .     S
Cu590  O606    1.960   .     S
H591   C622    1.087   .     S
H592   C661    1.087   1_455 S
Br609  C617    1.914   .     S
Br610  C618    1.914   .     S
C611   C614    1.450   .     S
C611   O639    1.297   .     A
C611   O641    1.294   .     A
C612   H634    1.083   .     S
C612   C614    1.400   .     A
C613   C619    1.450   .     S
C613   C625    1.402   .     A
C613   C626    1.400   .     A
C614   C624    1.402   .     A
C615   H635    1.082   .     S
C615   N638    1.359   .     A
C616   H636    1.082   .     S
C616   N637    1.359   .     A
C616   C960    1.415   .     S
C617   N637    1.382   .     A
C617   C957    1.415   .     S
C618   N638    1.382   .     A
C619   O642    1.294   .     A
C619   O640    1.297   .     A
C620   O643    1.292   .     A
C620   C622    1.434   .     S
C620   O645    1.291   .     A
C621   O646    1.291   .     A
C621   C623    1.434   .     S
C621   O644    1.292   .     A
C623   C660    1.333   .     S
C623   H668    1.087   .     S
C624   H631    1.083   .     S
C625   H632    1.083   .     S
C625   C384    1.383   1_565 S
C626   H633    1.083   .     S
C626   C396    1.383   1_565 S
Cu627  O646    1.959   .     S
Cu627  Cu628   2.692   .     S
Cu627  O639    1.966   .     S
Cu627  N637    2.023   .     S
Cu627  O643    1.960   .     S
Cu627  O642    1.963   .     S
Cu628  O641    1.963   .     S
Cu628  N638    2.023   .     S
Cu628  O645    1.959   .     S
Cu628  O640    1.966   .     S
Cu628  O644    1.960   .     S
H629   C660    1.087   .     S
Br647  C655    1.914   .     S
Br648  C656    1.914   .     S
C649   C652    1.450   .     S
C649   O677    1.297   .     A
C649   O679    1.294   .     A
C650   H672    1.083   .     S
C650   C652    1.400   .     A
C651   C657    1.450   .     S
C651   C663    1.402   .     A
C651   C664    1.400   .     A
C652   C662    1.402   .     A
C653   H673    1.082   .     S
C653   N676    1.359   .     A
C654   H674    1.082   .     S
C654   N675    1.359   .     A
C654   C998    1.415   .     S
C655   N675    1.382   .     A
C655   C995    1.415   .     S
C656   N676    1.382   .     A
C657   O680    1.294   .     A
C657   O678    1.297   .     A
C658   O681    1.292   .     A
C658   C660    1.434   .     S
C658   O683    1.291   .     A
C659   O684    1.291   .     A
C659   C661    1.434   .     S
C659   O682    1.292   .     A
C661   C584    1.333   1_655 S
C661   H592    1.087   1_655 S
C662   H669    1.083   .     S
C663   H670    1.083   .     S
C663   C422    1.383   1_565 S
C664   H671    1.083   .     S
C664   C434    1.383   1_565 S
Cu665  O684    1.959   .     S
Cu665  Cu666   2.692   .     S
Cu665  O677    1.966   .     S
Cu665  N675    2.023   .     S
Cu665  O681    1.960   .     S
Cu665  O680    1.963   .     S
Cu666  O679    1.963   .     S
Cu666  N676    2.023   .     S
Cu666  O683    1.959   .     S
Cu666  O678    1.966   .     S
Cu666  O682    1.960   .     S
H667   C584    1.087   1_655 S
Br685  C693    1.914   .     S
Br686  C694    1.914   .     S
C687   C690    1.450   .     S
C687   O715    1.297   .     A
C687   O717    1.294   .     A
C688   H710    1.083   .     S
C688   C690    1.400   .     A
C688   C929    1.383   1_545 S
C689   C695    1.450   .     S
C689   C701    1.402   .     A
C689   C702    1.400   .     A
C690   C700    1.402   .     A
C691   H711    1.082   .     S
C691   N714    1.359   .     A
C692   H712    1.082   .     S
C692   N713    1.359   .     A
C692   C10     1.415   1_556 S
C693   N713    1.382   .     A
C693   C7      1.415   1_556 S
C694   N714    1.382   .     A
C695   O718    1.294   .     A
C695   O716    1.297   .     A
C696   O719    1.292   .     A
C696   C698    1.434   .     S
C696   O721    1.291   .     A
C697   O722    1.291   .     A
C697   C699    1.434   .     S
C697   O720    1.292   .     A
C698   C775    1.333   1_455 S
C698   H781    1.087   1_455 S
C699   C736    1.333   .     S
C699   H744    1.087   .     S
C700   H707    1.083   .     S
C700   C930    1.383   1_545 S
C701   H708    1.083   .     S
C701   C802    1.383   .     S
C702   H709    1.083   .     S
C702   C814    1.383   .     S
Cu703  O722    1.959   .     S
Cu703  Cu704   2.692   .     S
Cu703  O715    1.966   .     S
Cu703  N713    2.023   .     S
Cu703  O719    1.960   .     S
Cu703  O718    1.963   .     S
Cu704  O717    1.963   .     S
Cu704  N714    2.023   .     S
Cu704  O721    1.959   .     S
Cu704  O716    1.966   .     S
Cu704  O720    1.960   .     S
H705   C736    1.087   .     S
H706   C775    1.087   1_455 S
Br723  C731    1.914   .     S
Br724  C732    1.914   .     S
C725   C728    1.450   .     S
C725   O753    1.297   .     A
C725   O755    1.294   .     A
C726   H748    1.083   .     S
C726   C728    1.400   .     A
C726   C967    1.383   1_545 S
C727   C733    1.450   .     S
C727   C739    1.402   .     A
C727   C740    1.400   .     A
C728   C738    1.402   .     A
C729   H749    1.082   .     S
C729   N752    1.359   .     A
C730   H750    1.082   .     S
C730   N751    1.359   .     A
C730   C48     1.415   1_556 S
C731   N751    1.382   .     A
C731   C45     1.415   1_556 S
C732   N752    1.382   .     A
C733   O756    1.294   .     A
C733   O754    1.297   .     A
C734   O757    1.292   .     A
C734   C736    1.434   .     S
C734   O759    1.291   .     A
C735   O760    1.291   .     A
C735   C737    1.434   .     S
C735   O758    1.292   .     A
C737   C774    1.333   .     S
C737   H782    1.087   .     S
C738   H745    1.083   .     S
C738   C968    1.383   1_545 S
C739   H746    1.083   .     S
C739   C840    1.383   .     S
C740   H747    1.083   .     S
C740   C852    1.383   .     S
Cu741  O760    1.959   .     S
Cu741  Cu742   2.692   .     S
Cu741  O753    1.966   .     S
Cu741  N751    2.023   .     S
Cu741  O757    1.960   .     S
Cu741  O756    1.963   .     S
Cu742  O755    1.963   .     S
Cu742  N752    2.023   .     S
Cu742  O759    1.959   .     S
Cu742  O754    1.966   .     S
Cu742  O758    1.960   .     S
H743   C774    1.087   .     S
Br761  C769    1.914   .     S
Br762  C770    1.914   .     S
C763   C766    1.450   .     S
C763   O791    1.297   .     A
C763   O793    1.294   .     A
C764   H786    1.083   .     S
C764   C766    1.400   .     A
C764   C1005   1.383   1_545 S
C765   C771    1.450   .     S
C765   C777    1.402   .     A
C765   C778    1.400   .     A
C766   C776    1.402   .     A
C767   H787    1.082   .     S
C767   N790    1.359   .     A
C768   H788    1.082   .     S
C768   N789    1.359   .     A
C768   C86     1.415   1_556 S
C769   N789    1.382   .     A
C769   C83     1.415   1_556 S
C770   N790    1.382   .     A
C771   O794    1.294   .     A
C771   O792    1.297   .     A
C772   O795    1.292   .     A
C772   C774    1.434   .     S
C772   O797    1.291   .     A
C773   O798    1.291   .     A
C773   C775    1.434   .     S
C773   O796    1.292   .     A
C775   C698    1.333   1_655 S
C775   H706    1.087   1_655 S
C776   H783    1.083   .     S
C776   C1006   1.383   1_545 S
C777   H784    1.083   .     S
C777   C878    1.383   .     S
C778   H785    1.083   .     S
C778   C890    1.383   .     S
Cu779  O798    1.959   .     S
Cu779  Cu780   2.692   .     S
Cu779  O791    1.966   .     S
Cu779  N789    2.023   .     S
Cu779  O795    1.960   .     S
Cu779  O794    1.963   .     S
Cu780  O793    1.963   .     S
Cu780  N790    2.023   .     S
Cu780  O797    1.959   .     S
Cu780  O792    1.966   .     S
Cu780  O796    1.960   .     S
H781   C698    1.087   1_655 S
Br799  C807    1.914   .     S
Br800  C808    1.914   .     S
C801   C804    1.450   .     S
C801   O829    1.297   .     A
C801   O831    1.294   .     A
C802   H824    1.083   .     S
C802   C804    1.400   .     A
C803   C809    1.450   .     S
C803   C815    1.402   .     A
C803   C816    1.400   .     A
C804   C814    1.402   .     A
C805   H825    1.082   .     S
C805   N828    1.359   .     A
C806   H826    1.082   .     S
C806   N827    1.359   .     A
C806   C124    1.415   1_556 S
C807   N827    1.382   .     A
C807   C121    1.415   1_556 S
C808   N828    1.382   .     A
C809   O832    1.294   .     A
C809   O830    1.297   .     A
C810   O833    1.292   .     A
C810   C812    1.434   .     S
C810   O835    1.291   .     A
C811   O836    1.291   .     A
C811   C813    1.434   .     S
C811   O834    1.292   .     A
C812   C889    1.333   1_455 S
C812   H895    1.087   1_455 S
C813   C850    1.333   .     S
C813   H858    1.087   .     S
C814   H821    1.083   .     S
C815   H822    1.083   .     S
C815   C916    1.383   .     S
C816   H823    1.083   .     S
C816   C928    1.383   .     S
Cu817  O836    1.959   .     S
Cu817  Cu818   2.692   .     S
Cu817  O829    1.966   .     S
Cu817  N827    2.023   .     S
Cu817  O833    1.960   .     S
Cu817  O832    1.963   .     S
Cu818  O831    1.963   .     S
Cu818  N828    2.023   .     S
Cu818  O835    1.959   .     S
Cu818  O830    1.966   .     S
Cu818  O834    1.960   .     S
H819   C850    1.087   .     S
H820   C889    1.087   1_455 S
Br837  C845    1.914   .     S
Br838  C846    1.914   .     S
C839   C842    1.450   .     S
C839   O867    1.297   .     A
C839   O869    1.294   .     A
C840   H862    1.083   .     S
C840   C842    1.400   .     A
C841   C847    1.450   .     S
C841   C853    1.402   .     A
C841   C854    1.400   .     A
C842   C852    1.402   .     A
C843   H863    1.082   .     S
C843   N866    1.359   .     A
C844   H864    1.082   .     S
C844   N865    1.359   .     A
C844   C162    1.415   1_556 S
C845   N865    1.382   .     A
C845   C159    1.415   1_556 S
C846   N866    1.382   .     A
C847   O870    1.294   .     A
C847   O868    1.297   .     A
C848   O871    1.292   .     A
C848   C850    1.434   .     S
C848   O873    1.291   .     A
C849   O874    1.291   .     A
C849   C851    1.434   .     S
C849   O872    1.292   .     A
C851   C888    1.333   .     S
C851   H896    1.087   .     S
C852   H859    1.083   .     S
C853   H860    1.083   .     S
C853   C954    1.383   .     S
C854   H861    1.083   .     S
C854   C966    1.383   .     S
Cu855  O874    1.959   .     S
Cu855  Cu856   2.692   .     S
Cu855  O867    1.966   .     S
Cu855  N865    2.023   .     S
Cu855  O871    1.960   .     S
Cu855  O870    1.963   .     S
Cu856  O869    1.963   .     S
Cu856  N866    2.023   .     S
Cu856  O873    1.959   .     S
Cu856  O868    1.966   .     S
Cu856  O872    1.960   .     S
H857   C888    1.087   .     S
Br875  C883    1.914   .     S
Br876  C884    1.914   .     S
C877   C880    1.450   .     S
C877   O905    1.297   .     A
C877   O907    1.294   .     A
C878   H900    1.083   .     S
C878   C880    1.400   .     A
C879   C885    1.450   .     S
C879   C891    1.402   .     A
C879   C892    1.400   .     A
C880   C890    1.402   .     A
C881   H901    1.082   .     S
C881   N904    1.359   .     A
C882   H902    1.082   .     S
C882   N903    1.359   .     A
C882   C200    1.415   1_556 S
C883   N903    1.382   .     A
C883   C197    1.415   1_556 S
C884   N904    1.382   .     A
C885   O908    1.294   .     A
C885   O906    1.297   .     A
C886   O909    1.292   .     A
C886   C888    1.434   .     S
C886   O911    1.291   .     A
C887   O912    1.291   .     A
C887   C889    1.434   .     S
C887   O910    1.292   .     A
C889   C812    1.333   1_655 S
C889   H820    1.087   1_655 S
C890   H897    1.083   .     S
C891   H898    1.083   .     S
C891   C992    1.383   .     S
C892   H899    1.083   .     S
C892   C1004   1.383   .     S
Cu893  O912    1.959   .     S
Cu893  Cu894   2.692   .     S
Cu893  O905    1.966   .     S
Cu893  N903    2.023   .     S
Cu893  O909    1.960   .     S
Cu893  O908    1.963   .     S
Cu894  O907    1.963   .     S
Cu894  N904    2.023   .     S
Cu894  O911    1.959   .     S
Cu894  O906    1.966   .     S
Cu894  O910    1.960   .     S
H895   C812    1.087   1_655 S
Br913  C921    1.914   .     S
Br914  C922    1.914   .     S
C915   C918    1.450   .     S
C915   O943    1.297   .     A
C915   O945    1.294   .     A
C916   H938    1.083   .     S
C916   C918    1.400   .     A
C917   C923    1.450   .     S
C917   C929    1.402   .     A
C917   C930    1.400   .     A
C918   C928    1.402   .     A
C919   H939    1.082   .     S
C919   N942    1.359   .     A
C920   H940    1.082   .     S
C920   N941    1.359   .     A
C920   C238    1.415   1_556 S
C921   N941    1.382   .     A
C921   C235    1.415   1_556 S
C922   N942    1.382   .     A
C923   O946    1.294   .     A
C923   O944    1.297   .     A
C924   O947    1.292   .     A
C924   C926    1.434   .     S
C924   O949    1.291   .     A
C925   O950    1.291   .     A
C925   C927    1.434   .     S
C925   O948    1.292   .     A
C926   C1003   1.333   1_455 S
C926   H1009   1.087   1_455 S
C927   C964    1.333   .     S
C927   H972    1.087   .     S
C928   H935    1.083   .     S
C929   H936    1.083   .     S
C929   C688    1.383   1_565 S
C930   H937    1.083   .     S
C930   C700    1.383   1_565 S
Cu931  O950    1.959   .     S
Cu931  Cu932   2.692   .     S
Cu931  O943    1.966   .     S
Cu931  N941    2.023   .     S
Cu931  O947    1.960   .     S
Cu931  O946    1.963   .     S
Cu932  O945    1.963   .     S
Cu932  N942    2.023   .     S
Cu932  O949    1.959   .     S
Cu932  O944    1.966   .     S
Cu932  O948    1.960   .     S
H933   C964    1.087   .     S
H934   C1003   1.087   1_455 S
Br951  C959    1.914   .     S
Br952  C960    1.914   .     S
C953   C956    1.450   .     S
C953   O981    1.297   .     A
C953   O983    1.294   .     A
C954   H976    1.083   .     S
C954   C956    1.400   .     A
C955   C961    1.450   .     S
C955   C967    1.402   .     A
C955   C968    1.400   .     A
C956   C966    1.402   .     A
C957   H977    1.082   .     S
C957   N980    1.359   .     A
C958   H978    1.082   .     S
C958   N979    1.359   .     A
C958   C276    1.415   1_556 S
C959   N979    1.382   .     A
C959   C273    1.415   1_556 S
C960   N980    1.382   .     A
C961   O984    1.294   .     A
C961   O982    1.297   .     A
C962   O985    1.292   .     A
C962   C964    1.434   .     S
C962   O987    1.291   .     A
C963   O988    1.291   .     A
C963   C965    1.434   .     S
C963   O986    1.292   .     A
C965   C1002   1.333   .     S
C965   H1010   1.087   .     S
C966   H973    1.083   .     S
C967   H974    1.083   .     S
C967   C726    1.383   1_565 S
C968   H975    1.083   .     S
C968   C738    1.383   1_565 S
Cu969  O988    1.959   .     S
Cu969  Cu970   2.692   .     S
Cu969  O981    1.966   .     S
Cu969  N979    2.023   .     S
Cu969  O985    1.960   .     S
Cu969  O984    1.963   .     S
Cu970  O983    1.963   .     S
Cu970  N980    2.023   .     S
Cu970  O987    1.959   .     S
Cu970  O982    1.966   .     S
Cu970  O986    1.960   .     S
H971   C1002   1.087   .     S
Br989  C997    1.914   .     S
Br990  C998    1.914   .     S
C991   C994    1.450   .     S
C991   O1019   1.297   .     A
C991   O1021   1.294   .     A
C992   H1014   1.083   .     S
C992   C994    1.400   .     A
C993   C999    1.450   .     S
C993   C1005   1.402   .     A
C993   C1006   1.400   .     A
C994   C1004   1.402   .     A
C995   H1015   1.082   .     S
C995   N1018   1.359   .     A
C996   H1016   1.082   .     S
C996   N1017   1.359   .     A
C996   C314    1.415   1_556 S
C997   N1017   1.382   .     A
C997   C311    1.415   1_556 S
C998   N1018   1.382   .     A
C999   O1022   1.294   .     A
C999   O1020   1.297   .     A
C1000  O1023   1.292   .     A
C1000  C1002   1.434   .     S
C1000  O1025   1.291   .     A
C1001  O1026   1.291   .     A
C1001  C1003   1.434   .     S
C1001  O1024   1.292   .     A
C1003  C926    1.333   1_655 S
C1003  H934    1.087   1_655 S
C1004  H1011   1.083   .     S
C1005  H1012   1.083   .     S
C1005  C764    1.383   1_565 S
C1006  H1013   1.083   .     S
C1006  C776    1.383   1_565 S
Cu1007 O1026   1.959   .     S
Cu1007 Cu1008  2.692   .     S
Cu1007 O1019   1.966   .     S
Cu1007 N1017   2.023   .     S
Cu1007 O1023   1.960   .     S
Cu1007 O1022   1.963   .     S
Cu1008 O1021   1.963   .     S
Cu1008 N1018   2.023   .     S
Cu1008 O1025   1.959   .     S
Cu1008 O1020   1.966   .     S
Cu1008 O1024   1.960   .     S
H1009  C926    1.087   1_655 S
