data_str_m2_o1_o10_pcu_sym.75
_audit_creation_date              2020-01-03
_audit_creation_method            'Materials Studio'
_symmetry_space_group_name_H-M    'P1'
_symmetry_Int_Tables_number       1
_symmetry_cell_setting            triclinic
loop_
_symmetry_equiv_pos_as_xyz
  x,y,z
_cell_length_a                    26.1910
_cell_length_b                    32.4946
_cell_length_c                    28.6594
_cell_angle_alpha                 89.7342
_cell_angle_beta                  97.6624
_cell_angle_gamma                 90.7043
loop_
_atom_site_label
_atom_site_type_symbol
_atom_site_fract_x
_atom_site_fract_y
_atom_site_fract_z
_atom_site_U_iso_or_equiv
_atom_site_adp_type
_atom_site_occupancy
C1     C     0.16661   0.08739   0.16671   0.00000  Uiso   1.00
C2     C     0.16758   0.02111   0.20921   0.00000  Uiso   1.00
C3     C     0.16673   0.29058   0.16660   0.00000  Uiso   1.00
C4     C     0.16660   0.04276   0.16673   0.00000  Uiso   1.00
C5     C     0.13448   0.14107   0.02129   0.00000  Uiso   1.00
C6     C     0.19886   0.19227   0.31205   0.00000  Uiso   1.00
C7     C     0.13436   0.14095   0.30514   0.00000  Uiso   1.00
C8     C     0.19897   0.19238   0.02819   0.00000  Uiso   1.00
C9     C     0.09960   0.11305   0.27759   0.00000  Uiso   1.00
C10    C     0.23373   0.22029   0.05574   0.00000  Uiso   1.00
C11    C     0.16672   0.24594   0.16662   0.00000  Uiso   1.00
C12    C     0.06798   0.16661   0.15465   0.00000  Uiso   1.00
C13    C     0.26535   0.16672   0.17868   0.00000  Uiso   1.00
C14    C     0.01274   0.16652   0.14802   0.00000  Uiso   1.00
C15    C     0.32060   0.16682   0.18532   0.00000  Uiso   1.00
C16    C     0.16568   0.02146   0.12419   0.00000  Uiso   1.00
C17    C     0.16765   0.31187   0.20914   0.00000  Uiso   1.00
C18    C     0.16575   0.31222   0.12413   0.00000  Uiso   1.00
Cu19   Cu    0.16667   0.16667   0.21355   0.00000  Uiso   1.00
Cu20   Cu    0.16667   0.16666   0.11978   0.00000  Uiso   1.00
H21    H     0.32627   0.16618   0.11217   0.00000  Uiso   1.00
H22    H     0.00706   0.16716   0.22116   0.00000  Uiso   1.00
H23    H     0.16487   0.03760   0.09095   0.00000  Uiso   1.00
H24    H     0.16846   0.29573   0.24239   0.00000  Uiso   1.00
H25    H     0.16497   0.29636   0.09088   0.00000  Uiso   1.00
H26    H     0.16836   0.03697   0.24246   0.00000  Uiso   1.00
H27    H     0.10884   0.12061   0.03733   0.00000  Uiso   1.00
H28    H     0.22449   0.21273   0.29600   0.00000  Uiso   1.00
N29    N     0.16668   0.16668   0.28403   0.00000  Uiso   1.00
N30    N     0.16665   0.16666   0.04931   0.00000  Uiso   1.00
N31    N     0.07151   0.09048   0.25572   0.00000  Uiso   1.00
N32    N     0.26183   0.24285   0.07761   0.00000  Uiso   1.00
O33    O     0.16666   0.10655   0.20625   0.00000  Uiso   1.00
O34    O     0.16667   0.22678   0.12709   0.00000  Uiso   1.00
O35    O     0.16666   0.10654   0.12706   0.00000  Uiso   1.00
O36    O     0.16667   0.22679   0.20628   0.00000  Uiso   1.00
O37    O     0.09161   0.16667   0.19712   0.00000  Uiso   1.00
O38    O     0.24172   0.16666   0.13621   0.00000  Uiso   1.00
O39    O     0.09161   0.16666   0.11793   0.00000  Uiso   1.00
O40    O     0.24172   0.16667   0.21540   0.00000  Uiso   1.00
C41    C     0.49994   0.08739   0.16671   0.00000  Uiso   1.00
C42    C     0.50092   0.02111   0.20921   0.00000  Uiso   1.00
C43    C     0.50006   0.29058   0.16660   0.00000  Uiso   1.00
C44    C     0.49994   0.04276   0.16673   0.00000  Uiso   1.00
C45    C     0.46781   0.14107   0.02129   0.00000  Uiso   1.00
C46    C     0.53219   0.19227   0.31205   0.00000  Uiso   1.00
C47    C     0.46769   0.14095   0.30514   0.00000  Uiso   1.00
C48    C     0.53231   0.19238   0.02819   0.00000  Uiso   1.00
C49    C     0.43293   0.11305   0.27759   0.00000  Uiso   1.00
C50    C     0.56707   0.22029   0.05574   0.00000  Uiso   1.00
C51    C     0.50006   0.24594   0.16662   0.00000  Uiso   1.00
C52    C     0.40131   0.16661   0.15465   0.00000  Uiso   1.00
C53    C     0.59869   0.16672   0.17868   0.00000  Uiso   1.00
C54    C     0.34607   0.16652   0.14802   0.00000  Uiso   1.00
C55    C     0.65393   0.16682   0.18532   0.00000  Uiso   1.00
C56    C     0.49901   0.02146   0.12419   0.00000  Uiso   1.00
C57    C     0.50099   0.31187   0.20914   0.00000  Uiso   1.00
C58    C     0.49908   0.31222   0.12413   0.00000  Uiso   1.00
Cu59   Cu    0.50000   0.16667   0.21355   0.00000  Uiso   1.00
Cu60   Cu    0.50000   0.16666   0.11978   0.00000  Uiso   1.00
H61    H     0.65961   0.16618   0.11217   0.00000  Uiso   1.00
H62    H     0.34039   0.16716   0.22116   0.00000  Uiso   1.00
H63    H     0.49820   0.03760   0.09095   0.00000  Uiso   1.00
H64    H     0.50180   0.29573   0.24239   0.00000  Uiso   1.00
H65    H     0.49830   0.29636   0.09088   0.00000  Uiso   1.00
H66    H     0.50170   0.03697   0.24246   0.00000  Uiso   1.00
H67    H     0.44217   0.12061   0.03733   0.00000  Uiso   1.00
H68    H     0.55783   0.21273   0.29600   0.00000  Uiso   1.00
N69    N     0.50001   0.16668   0.28403   0.00000  Uiso   1.00
N70    N     0.49999   0.16666   0.04931   0.00000  Uiso   1.00
N71    N     0.40484   0.09048   0.25572   0.00000  Uiso   1.00
N72    N     0.59516   0.24285   0.07761   0.00000  Uiso   1.00
O73    O     0.50000   0.10655   0.20625   0.00000  Uiso   1.00
O74    O     0.50000   0.22678   0.12709   0.00000  Uiso   1.00
O75    O     0.50000   0.10654   0.12706   0.00000  Uiso   1.00
O76    O     0.50000   0.22679   0.20628   0.00000  Uiso   1.00
O77    O     0.42495   0.16667   0.19712   0.00000  Uiso   1.00
O78    O     0.57505   0.16666   0.13621   0.00000  Uiso   1.00
O79    O     0.42494   0.16666   0.11793   0.00000  Uiso   1.00
O80    O     0.57506   0.16667   0.21540   0.00000  Uiso   1.00
C81    C     0.83328   0.08739   0.16671   0.00000  Uiso   1.00
C82    C     0.83425   0.02111   0.20921   0.00000  Uiso   1.00
C83    C     0.83340   0.29058   0.16660   0.00000  Uiso   1.00
C84    C     0.83327   0.04276   0.16673   0.00000  Uiso   1.00
C85    C     0.80114   0.14107   0.02129   0.00000  Uiso   1.00
C86    C     0.86552   0.19227   0.31205   0.00000  Uiso   1.00
C87    C     0.80103   0.14095   0.30514   0.00000  Uiso   1.00
C88    C     0.86564   0.19238   0.02819   0.00000  Uiso   1.00
C89    C     0.76627   0.11305   0.27759   0.00000  Uiso   1.00
C90    C     0.90040   0.22029   0.05574   0.00000  Uiso   1.00
C91    C     0.83339   0.24594   0.16662   0.00000  Uiso   1.00
C92    C     0.73465   0.16661   0.15465   0.00000  Uiso   1.00
C93    C     0.93202   0.16672   0.17868   0.00000  Uiso   1.00
C94    C     0.67940   0.16652   0.14802   0.00000  Uiso   1.00
C95    C     0.98726   0.16682   0.18532   0.00000  Uiso   1.00
C96    C     0.83235   0.02146   0.12419   0.00000  Uiso   1.00
C97    C     0.83432   0.31187   0.20914   0.00000  Uiso   1.00
C98    C     0.83241   0.31222   0.12413   0.00000  Uiso   1.00
Cu99   Cu    0.83333   0.16667   0.21355   0.00000  Uiso   1.00
Cu100  Cu    0.83333   0.16666   0.11978   0.00000  Uiso   1.00
H101   H     0.99294   0.16618   0.11217   0.00000  Uiso   1.00
H102   H     0.67373   0.16716   0.22116   0.00000  Uiso   1.00
H103   H     0.83154   0.03760   0.09095   0.00000  Uiso   1.00
H104   H     0.83513   0.29573   0.24239   0.00000  Uiso   1.00
H105   H     0.83164   0.29636   0.09088   0.00000  Uiso   1.00
H106   H     0.83503   0.03697   0.24246   0.00000  Uiso   1.00
H107   H     0.77550   0.12061   0.03733   0.00000  Uiso   1.00
H108   H     0.89116   0.21273   0.29600   0.00000  Uiso   1.00
N109   N     0.83335   0.16668   0.28403   0.00000  Uiso   1.00
N110   N     0.83332   0.16666   0.04931   0.00000  Uiso   1.00
N111   N     0.73817   0.09048   0.25572   0.00000  Uiso   1.00
N112   N     0.92849   0.24285   0.07761   0.00000  Uiso   1.00
O113   O     0.83333   0.10655   0.20625   0.00000  Uiso   1.00
O114   O     0.83334   0.22678   0.12709   0.00000  Uiso   1.00
O115   O     0.83333   0.10654   0.12706   0.00000  Uiso   1.00
O116   O     0.83334   0.22679   0.20628   0.00000  Uiso   1.00
O117   O     0.75828   0.16667   0.19712   0.00000  Uiso   1.00
O118   O     0.90839   0.16666   0.13621   0.00000  Uiso   1.00
O119   O     0.75828   0.16666   0.11793   0.00000  Uiso   1.00
O120   O     0.90839   0.16667   0.21540   0.00000  Uiso   1.00
C121   C     0.16661   0.42072   0.16671   0.00000  Uiso   1.00
C122   C     0.16758   0.35445   0.20921   0.00000  Uiso   1.00
C123   C     0.16673   0.62391   0.16660   0.00000  Uiso   1.00
C124   C     0.16660   0.37609   0.16673   0.00000  Uiso   1.00
C125   C     0.13448   0.47440   0.02129   0.00000  Uiso   1.00
C126   C     0.19886   0.52560   0.31205   0.00000  Uiso   1.00
C127   C     0.13436   0.47428   0.30514   0.00000  Uiso   1.00
C128   C     0.19897   0.52572   0.02819   0.00000  Uiso   1.00
C129   C     0.09960   0.44638   0.27759   0.00000  Uiso   1.00
C130   C     0.23373   0.55362   0.05574   0.00000  Uiso   1.00
C131   C     0.16672   0.57928   0.16662   0.00000  Uiso   1.00
C132   C     0.06798   0.49995   0.15465   0.00000  Uiso   1.00
C133   C     0.26535   0.50005   0.17868   0.00000  Uiso   1.00
C134   C     0.01274   0.49985   0.14802   0.00000  Uiso   1.00
C135   C     0.32060   0.50015   0.18532   0.00000  Uiso   1.00
C136   C     0.16568   0.35480   0.12419   0.00000  Uiso   1.00
C137   C     0.16765   0.64520   0.20914   0.00000  Uiso   1.00
C138   C     0.16575   0.64555   0.12413   0.00000  Uiso   1.00
Cu139  Cu    0.16667   0.50001   0.21355   0.00000  Uiso   1.00
Cu140  Cu    0.16667   0.49999   0.11978   0.00000  Uiso   1.00
H141   H     0.32627   0.49951   0.11217   0.00000  Uiso   1.00
H142   H     0.00706   0.50049   0.22116   0.00000  Uiso   1.00
H143   H     0.16487   0.37094   0.09095   0.00000  Uiso   1.00
H144   H     0.16846   0.62906   0.24239   0.00000  Uiso   1.00
H145   H     0.16497   0.62970   0.09088   0.00000  Uiso   1.00
H146   H     0.16836   0.37031   0.24246   0.00000  Uiso   1.00
H147   H     0.10884   0.45394   0.03733   0.00000  Uiso   1.00
H148   H     0.22449   0.54606   0.29600   0.00000  Uiso   1.00
N149   N     0.16668   0.50001   0.28403   0.00000  Uiso   1.00
N150   N     0.16665   0.49999   0.04931   0.00000  Uiso   1.00
N151   N     0.07151   0.42381   0.25572   0.00000  Uiso   1.00
N152   N     0.26183   0.57619   0.07761   0.00000  Uiso   1.00
O153   O     0.16666   0.43989   0.20625   0.00000  Uiso   1.00
O154   O     0.16667   0.56011   0.12709   0.00000  Uiso   1.00
O155   O     0.16666   0.43988   0.12706   0.00000  Uiso   1.00
O156   O     0.16667   0.56012   0.20628   0.00000  Uiso   1.00
O157   O     0.09161   0.50000   0.19712   0.00000  Uiso   1.00
O158   O     0.24172   0.50000   0.13621   0.00000  Uiso   1.00
O159   O     0.09161   0.49999   0.11793   0.00000  Uiso   1.00
O160   O     0.24172   0.50001   0.21540   0.00000  Uiso   1.00
C161   C     0.49994   0.42072   0.16671   0.00000  Uiso   1.00
C162   C     0.50092   0.35445   0.20921   0.00000  Uiso   1.00
C163   C     0.50006   0.62391   0.16660   0.00000  Uiso   1.00
C164   C     0.49994   0.37609   0.16673   0.00000  Uiso   1.00
C165   C     0.46781   0.47440   0.02129   0.00000  Uiso   1.00
C166   C     0.53219   0.52560   0.31205   0.00000  Uiso   1.00
C167   C     0.46769   0.47428   0.30514   0.00000  Uiso   1.00
C168   C     0.53231   0.52572   0.02819   0.00000  Uiso   1.00
C169   C     0.43293   0.44638   0.27759   0.00000  Uiso   1.00
C170   C     0.56707   0.55362   0.05574   0.00000  Uiso   1.00
C171   C     0.50006   0.57928   0.16662   0.00000  Uiso   1.00
C172   C     0.40131   0.49995   0.15465   0.00000  Uiso   1.00
C173   C     0.59869   0.50005   0.17868   0.00000  Uiso   1.00
C174   C     0.34607   0.49985   0.14802   0.00000  Uiso   1.00
C175   C     0.65393   0.50015   0.18532   0.00000  Uiso   1.00
C176   C     0.49901   0.35480   0.12419   0.00000  Uiso   1.00
C177   C     0.50099   0.64520   0.20914   0.00000  Uiso   1.00
C178   C     0.49908   0.64555   0.12413   0.00000  Uiso   1.00
Cu179  Cu    0.50000   0.50001   0.21355   0.00000  Uiso   1.00
Cu180  Cu    0.50000   0.49999   0.11978   0.00000  Uiso   1.00
H181   H     0.65961   0.49951   0.11217   0.00000  Uiso   1.00
H182   H     0.34039   0.50049   0.22116   0.00000  Uiso   1.00
H183   H     0.49820   0.37094   0.09095   0.00000  Uiso   1.00
H184   H     0.50180   0.62906   0.24239   0.00000  Uiso   1.00
H185   H     0.49830   0.62970   0.09088   0.00000  Uiso   1.00
H186   H     0.50170   0.37031   0.24246   0.00000  Uiso   1.00
H187   H     0.44217   0.45394   0.03733   0.00000  Uiso   1.00
H188   H     0.55783   0.54606   0.29600   0.00000  Uiso   1.00
N189   N     0.50001   0.50001   0.28403   0.00000  Uiso   1.00
N190   N     0.49999   0.49999   0.04931   0.00000  Uiso   1.00
N191   N     0.40484   0.42381   0.25572   0.00000  Uiso   1.00
N192   N     0.59516   0.57619   0.07761   0.00000  Uiso   1.00
O193   O     0.50000   0.43989   0.20625   0.00000  Uiso   1.00
O194   O     0.50000   0.56011   0.12709   0.00000  Uiso   1.00
O195   O     0.50000   0.43988   0.12706   0.00000  Uiso   1.00
O196   O     0.50000   0.56012   0.20628   0.00000  Uiso   1.00
O197   O     0.42495   0.50000   0.19712   0.00000  Uiso   1.00
O198   O     0.57505   0.50000   0.13621   0.00000  Uiso   1.00
O199   O     0.42494   0.49999   0.11793   0.00000  Uiso   1.00
O200   O     0.57506   0.50001   0.21540   0.00000  Uiso   1.00
C201   C     0.83328   0.42072   0.16671   0.00000  Uiso   1.00
C202   C     0.83425   0.35445   0.20921   0.00000  Uiso   1.00
C203   C     0.83340   0.62391   0.16660   0.00000  Uiso   1.00
C204   C     0.83327   0.37609   0.16673   0.00000  Uiso   1.00
C205   C     0.80114   0.47440   0.02129   0.00000  Uiso   1.00
C206   C     0.86552   0.52560   0.31205   0.00000  Uiso   1.00
C207   C     0.80103   0.47428   0.30514   0.00000  Uiso   1.00
C208   C     0.86564   0.52572   0.02819   0.00000  Uiso   1.00
C209   C     0.76627   0.44638   0.27759   0.00000  Uiso   1.00
C210   C     0.90040   0.55362   0.05574   0.00000  Uiso   1.00
C211   C     0.83339   0.57928   0.16662   0.00000  Uiso   1.00
C212   C     0.73465   0.49995   0.15465   0.00000  Uiso   1.00
C213   C     0.93202   0.50005   0.17868   0.00000  Uiso   1.00
C214   C     0.67940   0.49985   0.14802   0.00000  Uiso   1.00
C215   C     0.98726   0.50015   0.18532   0.00000  Uiso   1.00
C216   C     0.83235   0.35480   0.12419   0.00000  Uiso   1.00
C217   C     0.83432   0.64520   0.20914   0.00000  Uiso   1.00
C218   C     0.83241   0.64555   0.12413   0.00000  Uiso   1.00
Cu219  Cu    0.83333   0.50001   0.21355   0.00000  Uiso   1.00
Cu220  Cu    0.83333   0.49999   0.11978   0.00000  Uiso   1.00
H221   H     0.99294   0.49951   0.11217   0.00000  Uiso   1.00
H222   H     0.67373   0.50049   0.22116   0.00000  Uiso   1.00
H223   H     0.83154   0.37094   0.09095   0.00000  Uiso   1.00
H224   H     0.83513   0.62906   0.24239   0.00000  Uiso   1.00
H225   H     0.83164   0.62970   0.09088   0.00000  Uiso   1.00
H226   H     0.83503   0.37031   0.24246   0.00000  Uiso   1.00
H227   H     0.77550   0.45394   0.03733   0.00000  Uiso   1.00
H228   H     0.89116   0.54606   0.29600   0.00000  Uiso   1.00
N229   N     0.83335   0.50001   0.28403   0.00000  Uiso   1.00
N230   N     0.83332   0.49999   0.04931   0.00000  Uiso   1.00
N231   N     0.73817   0.42381   0.25572   0.00000  Uiso   1.00
N232   N     0.92849   0.57619   0.07761   0.00000  Uiso   1.00
O233   O     0.83333   0.43989   0.20625   0.00000  Uiso   1.00
O234   O     0.83334   0.56011   0.12709   0.00000  Uiso   1.00
O235   O     0.83333   0.43988   0.12706   0.00000  Uiso   1.00
O236   O     0.83334   0.56012   0.20628   0.00000  Uiso   1.00
O237   O     0.75828   0.50000   0.19712   0.00000  Uiso   1.00
O238   O     0.90839   0.50000   0.13621   0.00000  Uiso   1.00
O239   O     0.75828   0.49999   0.11793   0.00000  Uiso   1.00
O240   O     0.90839   0.50001   0.21540   0.00000  Uiso   1.00
C241   C     0.16661   0.75406   0.16671   0.00000  Uiso   1.00
C242   C     0.16758   0.68778   0.20921   0.00000  Uiso   1.00
C243   C     0.16673   0.95724   0.16660   0.00000  Uiso   1.00
C244   C     0.16660   0.70942   0.16673   0.00000  Uiso   1.00
C245   C     0.13448   0.80774   0.02129   0.00000  Uiso   1.00
C246   C     0.19886   0.85893   0.31205   0.00000  Uiso   1.00
C247   C     0.13436   0.80762   0.30514   0.00000  Uiso   1.00
C248   C     0.19897   0.85905   0.02819   0.00000  Uiso   1.00
C249   C     0.09960   0.77971   0.27759   0.00000  Uiso   1.00
C250   C     0.23373   0.88695   0.05574   0.00000  Uiso   1.00
C251   C     0.16672   0.91261   0.16662   0.00000  Uiso   1.00
C252   C     0.06798   0.83328   0.15465   0.00000  Uiso   1.00
C253   C     0.26535   0.83339   0.17868   0.00000  Uiso   1.00
C254   C     0.01274   0.83319   0.14802   0.00000  Uiso   1.00
C255   C     0.32060   0.83348   0.18532   0.00000  Uiso   1.00
C256   C     0.16568   0.68813   0.12419   0.00000  Uiso   1.00
C257   C     0.16765   0.97854   0.20914   0.00000  Uiso   1.00
C258   C     0.16575   0.97889   0.12413   0.00000  Uiso   1.00
Cu259  Cu    0.16667   0.83334   0.21355   0.00000  Uiso   1.00
Cu260  Cu    0.16667   0.83333   0.11978   0.00000  Uiso   1.00
H261   H     0.32627   0.83284   0.11217   0.00000  Uiso   1.00
H262   H     0.00706   0.83382   0.22116   0.00000  Uiso   1.00
H263   H     0.16487   0.70427   0.09095   0.00000  Uiso   1.00
H264   H     0.16846   0.96240   0.24239   0.00000  Uiso   1.00
H265   H     0.16497   0.96303   0.09088   0.00000  Uiso   1.00
H266   H     0.16836   0.70364   0.24246   0.00000  Uiso   1.00
H267   H     0.10884   0.78727   0.03733   0.00000  Uiso   1.00
H268   H     0.22449   0.87939   0.29600   0.00000  Uiso   1.00
N269   N     0.16668   0.83334   0.28403   0.00000  Uiso   1.00
N270   N     0.16665   0.83332   0.04931   0.00000  Uiso   1.00
N271   N     0.07151   0.75715   0.25572   0.00000  Uiso   1.00
N272   N     0.26183   0.90952   0.07761   0.00000  Uiso   1.00
O273   O     0.16666   0.77322   0.20625   0.00000  Uiso   1.00
O274   O     0.16667   0.89345   0.12709   0.00000  Uiso   1.00
O275   O     0.16666   0.77321   0.12706   0.00000  Uiso   1.00
O276   O     0.16667   0.89346   0.20628   0.00000  Uiso   1.00
O277   O     0.09161   0.83334   0.19712   0.00000  Uiso   1.00
O278   O     0.24172   0.83333   0.13621   0.00000  Uiso   1.00
O279   O     0.09161   0.83333   0.11793   0.00000  Uiso   1.00
O280   O     0.24172   0.83334   0.21540   0.00000  Uiso   1.00
C281   C     0.49994   0.75406   0.16671   0.00000  Uiso   1.00
C282   C     0.50092   0.68778   0.20921   0.00000  Uiso   1.00
C283   C     0.50006   0.95724   0.16660   0.00000  Uiso   1.00
C284   C     0.49994   0.70942   0.16673   0.00000  Uiso   1.00
C285   C     0.46781   0.80774   0.02129   0.00000  Uiso   1.00
C286   C     0.53219   0.85893   0.31205   0.00000  Uiso   1.00
C287   C     0.46769   0.80762   0.30514   0.00000  Uiso   1.00
C288   C     0.53231   0.85905   0.02819   0.00000  Uiso   1.00
C289   C     0.43293   0.77971   0.27759   0.00000  Uiso   1.00
C290   C     0.56707   0.88695   0.05574   0.00000  Uiso   1.00
C291   C     0.50006   0.91261   0.16662   0.00000  Uiso   1.00
C292   C     0.40131   0.83328   0.15465   0.00000  Uiso   1.00
C293   C     0.59869   0.83339   0.17868   0.00000  Uiso   1.00
C294   C     0.34607   0.83319   0.14802   0.00000  Uiso   1.00
C295   C     0.65393   0.83348   0.18532   0.00000  Uiso   1.00
C296   C     0.49901   0.68813   0.12419   0.00000  Uiso   1.00
C297   C     0.50099   0.97854   0.20914   0.00000  Uiso   1.00
C298   C     0.49908   0.97889   0.12413   0.00000  Uiso   1.00
Cu299  Cu    0.50000   0.83334   0.21355   0.00000  Uiso   1.00
Cu300  Cu    0.50000   0.83333   0.11978   0.00000  Uiso   1.00
H301   H     0.65961   0.83284   0.11217   0.00000  Uiso   1.00
H302   H     0.34039   0.83382   0.22116   0.00000  Uiso   1.00
H303   H     0.49820   0.70427   0.09095   0.00000  Uiso   1.00
H304   H     0.50180   0.96240   0.24239   0.00000  Uiso   1.00
H305   H     0.49830   0.96303   0.09088   0.00000  Uiso   1.00
H306   H     0.50170   0.70364   0.24246   0.00000  Uiso   1.00
H307   H     0.44217   0.78727   0.03733   0.00000  Uiso   1.00
H308   H     0.55783   0.87939   0.29600   0.00000  Uiso   1.00
N309   N     0.50001   0.83334   0.28403   0.00000  Uiso   1.00
N310   N     0.49999   0.83332   0.04931   0.00000  Uiso   1.00
N311   N     0.40484   0.75715   0.25572   0.00000  Uiso   1.00
N312   N     0.59516   0.90952   0.07761   0.00000  Uiso   1.00
O313   O     0.50000   0.77322   0.20625   0.00000  Uiso   1.00
O314   O     0.50000   0.89345   0.12709   0.00000  Uiso   1.00
O315   O     0.50000   0.77321   0.12706   0.00000  Uiso   1.00
O316   O     0.50000   0.89346   0.20628   0.00000  Uiso   1.00
O317   O     0.42495   0.83334   0.19712   0.00000  Uiso   1.00
O318   O     0.57505   0.83333   0.13621   0.00000  Uiso   1.00
O319   O     0.42494   0.83333   0.11793   0.00000  Uiso   1.00
O320   O     0.57506   0.83334   0.21540   0.00000  Uiso   1.00
C321   C     0.83328   0.75406   0.16671   0.00000  Uiso   1.00
C322   C     0.83425   0.68778   0.20921   0.00000  Uiso   1.00
C323   C     0.83340   0.95724   0.16660   0.00000  Uiso   1.00
C324   C     0.83327   0.70942   0.16673   0.00000  Uiso   1.00
C325   C     0.80114   0.80774   0.02129   0.00000  Uiso   1.00
C326   C     0.86552   0.85893   0.31205   0.00000  Uiso   1.00
C327   C     0.80103   0.80762   0.30514   0.00000  Uiso   1.00
C328   C     0.86564   0.85905   0.02819   0.00000  Uiso   1.00
C329   C     0.76627   0.77971   0.27759   0.00000  Uiso   1.00
C330   C     0.90040   0.88695   0.05574   0.00000  Uiso   1.00
C331   C     0.83339   0.91261   0.16662   0.00000  Uiso   1.00
C332   C     0.73465   0.83328   0.15465   0.00000  Uiso   1.00
C333   C     0.93202   0.83339   0.17868   0.00000  Uiso   1.00
C334   C     0.67940   0.83319   0.14802   0.00000  Uiso   1.00
C335   C     0.98726   0.83348   0.18532   0.00000  Uiso   1.00
C336   C     0.83235   0.68813   0.12419   0.00000  Uiso   1.00
C337   C     0.83432   0.97854   0.20914   0.00000  Uiso   1.00
C338   C     0.83241   0.97889   0.12413   0.00000  Uiso   1.00
Cu339  Cu    0.83333   0.83334   0.21355   0.00000  Uiso   1.00
Cu340  Cu    0.83333   0.83333   0.11978   0.00000  Uiso   1.00
H341   H     0.99294   0.83284   0.11217   0.00000  Uiso   1.00
H342   H     0.67373   0.83382   0.22116   0.00000  Uiso   1.00
H343   H     0.83154   0.70427   0.09095   0.00000  Uiso   1.00
H344   H     0.83513   0.96240   0.24239   0.00000  Uiso   1.00
H345   H     0.83164   0.96303   0.09088   0.00000  Uiso   1.00
H346   H     0.83503   0.70364   0.24246   0.00000  Uiso   1.00
H347   H     0.77550   0.78727   0.03733   0.00000  Uiso   1.00
H348   H     0.89116   0.87939   0.29600   0.00000  Uiso   1.00
N349   N     0.83335   0.83334   0.28403   0.00000  Uiso   1.00
N350   N     0.83332   0.83332   0.04931   0.00000  Uiso   1.00
N351   N     0.73817   0.75715   0.25572   0.00000  Uiso   1.00
N352   N     0.92849   0.90952   0.07761   0.00000  Uiso   1.00
O353   O     0.83333   0.77322   0.20625   0.00000  Uiso   1.00
O354   O     0.83334   0.89345   0.12709   0.00000  Uiso   1.00
O355   O     0.83333   0.77321   0.12706   0.00000  Uiso   1.00
O356   O     0.83334   0.89346   0.20628   0.00000  Uiso   1.00
O357   O     0.75828   0.83334   0.19712   0.00000  Uiso   1.00
O358   O     0.90839   0.83333   0.13621   0.00000  Uiso   1.00
O359   O     0.75828   0.83333   0.11793   0.00000  Uiso   1.00
O360   O     0.90839   0.83334   0.21540   0.00000  Uiso   1.00
C361   C     0.16661   0.08739   0.50004   0.00000  Uiso   1.00
C362   C     0.16758   0.02111   0.54254   0.00000  Uiso   1.00
C363   C     0.16673   0.29058   0.49994   0.00000  Uiso   1.00
C364   C     0.16660   0.04276   0.50006   0.00000  Uiso   1.00
C365   C     0.13448   0.14107   0.35462   0.00000  Uiso   1.00
C366   C     0.19886   0.19227   0.64538   0.00000  Uiso   1.00
C367   C     0.13436   0.14095   0.63847   0.00000  Uiso   1.00
C368   C     0.19897   0.19238   0.36153   0.00000  Uiso   1.00
C369   C     0.09960   0.11305   0.61093   0.00000  Uiso   1.00
C370   C     0.23373   0.22029   0.38907   0.00000  Uiso   1.00
C371   C     0.16672   0.24594   0.49996   0.00000  Uiso   1.00
C372   C     0.06798   0.16661   0.48798   0.00000  Uiso   1.00
C373   C     0.26535   0.16672   0.51202   0.00000  Uiso   1.00
C374   C     0.01274   0.16652   0.48135   0.00000  Uiso   1.00
C375   C     0.32060   0.16682   0.51865   0.00000  Uiso   1.00
C376   C     0.16568   0.02146   0.45752   0.00000  Uiso   1.00
C377   C     0.16765   0.31187   0.54248   0.00000  Uiso   1.00
C378   C     0.16575   0.31222   0.45746   0.00000  Uiso   1.00
Cu379  Cu    0.16667   0.16667   0.54689   0.00000  Uiso   1.00
Cu380  Cu    0.16667   0.16666   0.45311   0.00000  Uiso   1.00
H381   H     0.32627   0.16618   0.44551   0.00000  Uiso   1.00
H382   H     0.00706   0.16716   0.55449   0.00000  Uiso   1.00
H383   H     0.16487   0.03760   0.42428   0.00000  Uiso   1.00
H384   H     0.16846   0.29573   0.57572   0.00000  Uiso   1.00
H385   H     0.16497   0.29636   0.42421   0.00000  Uiso   1.00
H386   H     0.16836   0.03697   0.57579   0.00000  Uiso   1.00
H387   H     0.10884   0.12061   0.37066   0.00000  Uiso   1.00
H388   H     0.22449   0.21273   0.62934   0.00000  Uiso   1.00
N389   N     0.16668   0.16668   0.61736   0.00000  Uiso   1.00
N390   N     0.16665   0.16666   0.38264   0.00000  Uiso   1.00
N391   N     0.07151   0.09048   0.58905   0.00000  Uiso   1.00
N392   N     0.26183   0.24285   0.41095   0.00000  Uiso   1.00
O393   O     0.16666   0.10655   0.53958   0.00000  Uiso   1.00
O394   O     0.16667   0.22678   0.46042   0.00000  Uiso   1.00
O395   O     0.16666   0.10654   0.46039   0.00000  Uiso   1.00
O396   O     0.16667   0.22679   0.53961   0.00000  Uiso   1.00
O397   O     0.09161   0.16667   0.53046   0.00000  Uiso   1.00
O398   O     0.24172   0.16666   0.46954   0.00000  Uiso   1.00
O399   O     0.09161   0.16666   0.45127   0.00000  Uiso   1.00
O400   O     0.24172   0.16667   0.54873   0.00000  Uiso   1.00
C401   C     0.49994   0.08739   0.50004   0.00000  Uiso   1.00
C402   C     0.50092   0.02111   0.54254   0.00000  Uiso   1.00
C403   C     0.50006   0.29058   0.49994   0.00000  Uiso   1.00
C404   C     0.49994   0.04276   0.50006   0.00000  Uiso   1.00
C405   C     0.46781   0.14107   0.35462   0.00000  Uiso   1.00
C406   C     0.53219   0.19227   0.64538   0.00000  Uiso   1.00
C407   C     0.46769   0.14095   0.63847   0.00000  Uiso   1.00
C408   C     0.53231   0.19238   0.36153   0.00000  Uiso   1.00
C409   C     0.43293   0.11305   0.61093   0.00000  Uiso   1.00
C410   C     0.56707   0.22029   0.38907   0.00000  Uiso   1.00
C411   C     0.50006   0.24594   0.49996   0.00000  Uiso   1.00
C412   C     0.40131   0.16661   0.48798   0.00000  Uiso   1.00
C413   C     0.59869   0.16672   0.51202   0.00000  Uiso   1.00
C414   C     0.34607   0.16652   0.48135   0.00000  Uiso   1.00
C415   C     0.65393   0.16682   0.51865   0.00000  Uiso   1.00
C416   C     0.49901   0.02146   0.45752   0.00000  Uiso   1.00
C417   C     0.50099   0.31187   0.54248   0.00000  Uiso   1.00
C418   C     0.49908   0.31222   0.45746   0.00000  Uiso   1.00
Cu419  Cu    0.50000   0.16667   0.54689   0.00000  Uiso   1.00
Cu420  Cu    0.50000   0.16666   0.45311   0.00000  Uiso   1.00
H421   H     0.65961   0.16618   0.44551   0.00000  Uiso   1.00
H422   H     0.34039   0.16716   0.55449   0.00000  Uiso   1.00
H423   H     0.49820   0.03760   0.42428   0.00000  Uiso   1.00
H424   H     0.50180   0.29573   0.57572   0.00000  Uiso   1.00
H425   H     0.49830   0.29636   0.42421   0.00000  Uiso   1.00
H426   H     0.50170   0.03697   0.57579   0.00000  Uiso   1.00
H427   H     0.44217   0.12061   0.37066   0.00000  Uiso   1.00
H428   H     0.55783   0.21273   0.62934   0.00000  Uiso   1.00
N429   N     0.50001   0.16668   0.61736   0.00000  Uiso   1.00
N430   N     0.49999   0.16666   0.38264   0.00000  Uiso   1.00
N431   N     0.40484   0.09048   0.58905   0.00000  Uiso   1.00
N432   N     0.59516   0.24285   0.41095   0.00000  Uiso   1.00
O433   O     0.50000   0.10655   0.53958   0.00000  Uiso   1.00
O434   O     0.50000   0.22678   0.46042   0.00000  Uiso   1.00
O435   O     0.50000   0.10654   0.46039   0.00000  Uiso   1.00
O436   O     0.50000   0.22679   0.53961   0.00000  Uiso   1.00
O437   O     0.42495   0.16667   0.53046   0.00000  Uiso   1.00
O438   O     0.57505   0.16666   0.46954   0.00000  Uiso   1.00
O439   O     0.42494   0.16666   0.45127   0.00000  Uiso   1.00
O440   O     0.57506   0.16667   0.54873   0.00000  Uiso   1.00
C441   C     0.83328   0.08739   0.50004   0.00000  Uiso   1.00
C442   C     0.83425   0.02111   0.54254   0.00000  Uiso   1.00
C443   C     0.83340   0.29058   0.49994   0.00000  Uiso   1.00
C444   C     0.83327   0.04276   0.50006   0.00000  Uiso   1.00
C445   C     0.80114   0.14107   0.35462   0.00000  Uiso   1.00
C446   C     0.86552   0.19227   0.64538   0.00000  Uiso   1.00
C447   C     0.80103   0.14095   0.63847   0.00000  Uiso   1.00
C448   C     0.86564   0.19238   0.36153   0.00000  Uiso   1.00
C449   C     0.76627   0.11305   0.61093   0.00000  Uiso   1.00
C450   C     0.90040   0.22029   0.38907   0.00000  Uiso   1.00
C451   C     0.83339   0.24594   0.49996   0.00000  Uiso   1.00
C452   C     0.73465   0.16661   0.48798   0.00000  Uiso   1.00
C453   C     0.93202   0.16672   0.51202   0.00000  Uiso   1.00
C454   C     0.67940   0.16652   0.48135   0.00000  Uiso   1.00
C455   C     0.98726   0.16682   0.51865   0.00000  Uiso   1.00
C456   C     0.83235   0.02146   0.45752   0.00000  Uiso   1.00
C457   C     0.83432   0.31187   0.54248   0.00000  Uiso   1.00
C458   C     0.83241   0.31222   0.45746   0.00000  Uiso   1.00
Cu459  Cu    0.83333   0.16667   0.54689   0.00000  Uiso   1.00
Cu460  Cu    0.83333   0.16666   0.45311   0.00000  Uiso   1.00
H461   H     0.99294   0.16618   0.44551   0.00000  Uiso   1.00
H462   H     0.67373   0.16716   0.55449   0.00000  Uiso   1.00
H463   H     0.83154   0.03760   0.42428   0.00000  Uiso   1.00
H464   H     0.83513   0.29573   0.57572   0.00000  Uiso   1.00
H465   H     0.83164   0.29636   0.42421   0.00000  Uiso   1.00
H466   H     0.83503   0.03697   0.57579   0.00000  Uiso   1.00
H467   H     0.77550   0.12061   0.37066   0.00000  Uiso   1.00
H468   H     0.89116   0.21273   0.62934   0.00000  Uiso   1.00
N469   N     0.83335   0.16668   0.61736   0.00000  Uiso   1.00
N470   N     0.83332   0.16666   0.38264   0.00000  Uiso   1.00
N471   N     0.73817   0.09048   0.58905   0.00000  Uiso   1.00
N472   N     0.92849   0.24285   0.41095   0.00000  Uiso   1.00
O473   O     0.83333   0.10655   0.53958   0.00000  Uiso   1.00
O474   O     0.83334   0.22678   0.46042   0.00000  Uiso   1.00
O475   O     0.83333   0.10654   0.46039   0.00000  Uiso   1.00
O476   O     0.83334   0.22679   0.53961   0.00000  Uiso   1.00
O477   O     0.75828   0.16667   0.53046   0.00000  Uiso   1.00
O478   O     0.90839   0.16666   0.46954   0.00000  Uiso   1.00
O479   O     0.75828   0.16666   0.45127   0.00000  Uiso   1.00
O480   O     0.90839   0.16667   0.54873   0.00000  Uiso   1.00
C481   C     0.16661   0.42072   0.50004   0.00000  Uiso   1.00
C482   C     0.16758   0.35445   0.54254   0.00000  Uiso   1.00
C483   C     0.16673   0.62391   0.49994   0.00000  Uiso   1.00
C484   C     0.16660   0.37609   0.50006   0.00000  Uiso   1.00
C485   C     0.13448   0.47440   0.35462   0.00000  Uiso   1.00
C486   C     0.19886   0.52560   0.64538   0.00000  Uiso   1.00
C487   C     0.13436   0.47428   0.63847   0.00000  Uiso   1.00
C488   C     0.19897   0.52572   0.36153   0.00000  Uiso   1.00
C489   C     0.09960   0.44638   0.61093   0.00000  Uiso   1.00
C490   C     0.23373   0.55362   0.38907   0.00000  Uiso   1.00
C491   C     0.16672   0.57928   0.49996   0.00000  Uiso   1.00
C492   C     0.06798   0.49995   0.48798   0.00000  Uiso   1.00
C493   C     0.26535   0.50005   0.51202   0.00000  Uiso   1.00
C494   C     0.01274   0.49985   0.48135   0.00000  Uiso   1.00
C495   C     0.32060   0.50015   0.51865   0.00000  Uiso   1.00
C496   C     0.16568   0.35480   0.45752   0.00000  Uiso   1.00
C497   C     0.16765   0.64520   0.54248   0.00000  Uiso   1.00
C498   C     0.16575   0.64555   0.45746   0.00000  Uiso   1.00
Cu499  Cu    0.16667   0.50001   0.54689   0.00000  Uiso   1.00
Cu500  Cu    0.16667   0.49999   0.45311   0.00000  Uiso   1.00
H501   H     0.32627   0.49951   0.44551   0.00000  Uiso   1.00
H502   H     0.00706   0.50049   0.55449   0.00000  Uiso   1.00
H503   H     0.16487   0.37094   0.42428   0.00000  Uiso   1.00
H504   H     0.16846   0.62906   0.57572   0.00000  Uiso   1.00
H505   H     0.16497   0.62970   0.42421   0.00000  Uiso   1.00
H506   H     0.16836   0.37031   0.57579   0.00000  Uiso   1.00
H507   H     0.10884   0.45394   0.37066   0.00000  Uiso   1.00
H508   H     0.22449   0.54606   0.62934   0.00000  Uiso   1.00
N509   N     0.16668   0.50001   0.61736   0.00000  Uiso   1.00
N510   N     0.16665   0.49999   0.38264   0.00000  Uiso   1.00
N511   N     0.07151   0.42381   0.58905   0.00000  Uiso   1.00
N512   N     0.26183   0.57619   0.41095   0.00000  Uiso   1.00
O513   O     0.16666   0.43989   0.53958   0.00000  Uiso   1.00
O514   O     0.16667   0.56011   0.46042   0.00000  Uiso   1.00
O515   O     0.16666   0.43988   0.46039   0.00000  Uiso   1.00
O516   O     0.16667   0.56012   0.53961   0.00000  Uiso   1.00
O517   O     0.09161   0.50000   0.53046   0.00000  Uiso   1.00
O518   O     0.24172   0.50000   0.46954   0.00000  Uiso   1.00
O519   O     0.09161   0.49999   0.45127   0.00000  Uiso   1.00
O520   O     0.24172   0.50001   0.54873   0.00000  Uiso   1.00
C521   C     0.49994   0.42072   0.50004   0.00000  Uiso   1.00
C522   C     0.50092   0.35445   0.54254   0.00000  Uiso   1.00
C523   C     0.50006   0.62391   0.49994   0.00000  Uiso   1.00
C524   C     0.49994   0.37609   0.50006   0.00000  Uiso   1.00
C525   C     0.46781   0.47440   0.35462   0.00000  Uiso   1.00
C526   C     0.53219   0.52560   0.64538   0.00000  Uiso   1.00
C527   C     0.46769   0.47428   0.63847   0.00000  Uiso   1.00
C528   C     0.53231   0.52572   0.36153   0.00000  Uiso   1.00
C529   C     0.43293   0.44638   0.61093   0.00000  Uiso   1.00
C530   C     0.56707   0.55362   0.38907   0.00000  Uiso   1.00
C531   C     0.50006   0.57928   0.49996   0.00000  Uiso   1.00
C532   C     0.40131   0.49995   0.48798   0.00000  Uiso   1.00
C533   C     0.59869   0.50005   0.51202   0.00000  Uiso   1.00
C534   C     0.34607   0.49985   0.48135   0.00000  Uiso   1.00
C535   C     0.65393   0.50015   0.51865   0.00000  Uiso   1.00
C536   C     0.49901   0.35480   0.45752   0.00000  Uiso   1.00
C537   C     0.50099   0.64520   0.54248   0.00000  Uiso   1.00
C538   C     0.49908   0.64555   0.45746   0.00000  Uiso   1.00
Cu539  Cu    0.50000   0.50001   0.54689   0.00000  Uiso   1.00
Cu540  Cu    0.50000   0.49999   0.45311   0.00000  Uiso   1.00
H541   H     0.65961   0.49951   0.44551   0.00000  Uiso   1.00
H542   H     0.34039   0.50049   0.55449   0.00000  Uiso   1.00
H543   H     0.49820   0.37094   0.42428   0.00000  Uiso   1.00
H544   H     0.50180   0.62906   0.57572   0.00000  Uiso   1.00
H545   H     0.49830   0.62970   0.42421   0.00000  Uiso   1.00
H546   H     0.50170   0.37031   0.57579   0.00000  Uiso   1.00
H547   H     0.44217   0.45394   0.37066   0.00000  Uiso   1.00
H548   H     0.55783   0.54606   0.62934   0.00000  Uiso   1.00
N549   N     0.50001   0.50001   0.61736   0.00000  Uiso   1.00
N550   N     0.49999   0.49999   0.38264   0.00000  Uiso   1.00
N551   N     0.40484   0.42381   0.58905   0.00000  Uiso   1.00
N552   N     0.59516   0.57619   0.41095   0.00000  Uiso   1.00
O553   O     0.50000   0.43989   0.53958   0.00000  Uiso   1.00
O554   O     0.50000   0.56011   0.46042   0.00000  Uiso   1.00
O555   O     0.50000   0.43988   0.46039   0.00000  Uiso   1.00
O556   O     0.50000   0.56012   0.53961   0.00000  Uiso   1.00
O557   O     0.42495   0.50000   0.53046   0.00000  Uiso   1.00
O558   O     0.57505   0.50000   0.46954   0.00000  Uiso   1.00
O559   O     0.42494   0.49999   0.45127   0.00000  Uiso   1.00
O560   O     0.57506   0.50001   0.54873   0.00000  Uiso   1.00
C561   C     0.83328   0.42072   0.50004   0.00000  Uiso   1.00
C562   C     0.83425   0.35445   0.54254   0.00000  Uiso   1.00
C563   C     0.83340   0.62391   0.49994   0.00000  Uiso   1.00
C564   C     0.83327   0.37609   0.50006   0.00000  Uiso   1.00
C565   C     0.80114   0.47440   0.35462   0.00000  Uiso   1.00
C566   C     0.86552   0.52560   0.64538   0.00000  Uiso   1.00
C567   C     0.80103   0.47428   0.63847   0.00000  Uiso   1.00
C568   C     0.86564   0.52572   0.36153   0.00000  Uiso   1.00
C569   C     0.76627   0.44638   0.61093   0.00000  Uiso   1.00
C570   C     0.90040   0.55362   0.38907   0.00000  Uiso   1.00
C571   C     0.83339   0.57928   0.49996   0.00000  Uiso   1.00
C572   C     0.73465   0.49995   0.48798   0.00000  Uiso   1.00
C573   C     0.93202   0.50005   0.51202   0.00000  Uiso   1.00
C574   C     0.67940   0.49985   0.48135   0.00000  Uiso   1.00
C575   C     0.98726   0.50015   0.51865   0.00000  Uiso   1.00
C576   C     0.83235   0.35480   0.45752   0.00000  Uiso   1.00
C577   C     0.83432   0.64520   0.54248   0.00000  Uiso   1.00
C578   C     0.83241   0.64555   0.45746   0.00000  Uiso   1.00
Cu579  Cu    0.83333   0.50001   0.54689   0.00000  Uiso   1.00
Cu580  Cu    0.83333   0.49999   0.45311   0.00000  Uiso   1.00
H581   H     0.99294   0.49951   0.44551   0.00000  Uiso   1.00
H582   H     0.67373   0.50049   0.55449   0.00000  Uiso   1.00
H583   H     0.83154   0.37094   0.42428   0.00000  Uiso   1.00
H584   H     0.83513   0.62906   0.57572   0.00000  Uiso   1.00
H585   H     0.83164   0.62970   0.42421   0.00000  Uiso   1.00
H586   H     0.83503   0.37031   0.57579   0.00000  Uiso   1.00
H587   H     0.77550   0.45394   0.37066   0.00000  Uiso   1.00
H588   H     0.89116   0.54606   0.62934   0.00000  Uiso   1.00
N589   N     0.83335   0.50001   0.61736   0.00000  Uiso   1.00
N590   N     0.83332   0.49999   0.38264   0.00000  Uiso   1.00
N591   N     0.73817   0.42381   0.58905   0.00000  Uiso   1.00
N592   N     0.92849   0.57619   0.41095   0.00000  Uiso   1.00
O593   O     0.83333   0.43989   0.53958   0.00000  Uiso   1.00
O594   O     0.83334   0.56011   0.46042   0.00000  Uiso   1.00
O595   O     0.83333   0.43988   0.46039   0.00000  Uiso   1.00
O596   O     0.83334   0.56012   0.53961   0.00000  Uiso   1.00
O597   O     0.75828   0.50000   0.53046   0.00000  Uiso   1.00
O598   O     0.90839   0.50000   0.46954   0.00000  Uiso   1.00
O599   O     0.75828   0.49999   0.45127   0.00000  Uiso   1.00
O600   O     0.90839   0.50001   0.54873   0.00000  Uiso   1.00
C601   C     0.16661   0.75406   0.50004   0.00000  Uiso   1.00
C602   C     0.16758   0.68778   0.54254   0.00000  Uiso   1.00
C603   C     0.16673   0.95724   0.49994   0.00000  Uiso   1.00
C604   C     0.16660   0.70942   0.50006   0.00000  Uiso   1.00
C605   C     0.13448   0.80774   0.35462   0.00000  Uiso   1.00
C606   C     0.19886   0.85893   0.64538   0.00000  Uiso   1.00
C607   C     0.13436   0.80762   0.63847   0.00000  Uiso   1.00
C608   C     0.19897   0.85905   0.36153   0.00000  Uiso   1.00
C609   C     0.09960   0.77971   0.61093   0.00000  Uiso   1.00
C610   C     0.23373   0.88695   0.38907   0.00000  Uiso   1.00
C611   C     0.16672   0.91261   0.49996   0.00000  Uiso   1.00
C612   C     0.06798   0.83328   0.48798   0.00000  Uiso   1.00
C613   C     0.26535   0.83339   0.51202   0.00000  Uiso   1.00
C614   C     0.01274   0.83319   0.48135   0.00000  Uiso   1.00
C615   C     0.32060   0.83348   0.51865   0.00000  Uiso   1.00
C616   C     0.16568   0.68813   0.45752   0.00000  Uiso   1.00
C617   C     0.16765   0.97854   0.54248   0.00000  Uiso   1.00
C618   C     0.16575   0.97889   0.45746   0.00000  Uiso   1.00
Cu619  Cu    0.16667   0.83334   0.54689   0.00000  Uiso   1.00
Cu620  Cu    0.16667   0.83333   0.45311   0.00000  Uiso   1.00
H621   H     0.32627   0.83284   0.44551   0.00000  Uiso   1.00
H622   H     0.00706   0.83382   0.55449   0.00000  Uiso   1.00
H623   H     0.16487   0.70427   0.42428   0.00000  Uiso   1.00
H624   H     0.16846   0.96240   0.57572   0.00000  Uiso   1.00
H625   H     0.16497   0.96303   0.42421   0.00000  Uiso   1.00
H626   H     0.16836   0.70364   0.57579   0.00000  Uiso   1.00
H627   H     0.10884   0.78727   0.37066   0.00000  Uiso   1.00
H628   H     0.22449   0.87939   0.62934   0.00000  Uiso   1.00
N629   N     0.16668   0.83334   0.61736   0.00000  Uiso   1.00
N630   N     0.16665   0.83332   0.38264   0.00000  Uiso   1.00
N631   N     0.07151   0.75715   0.58905   0.00000  Uiso   1.00
N632   N     0.26183   0.90952   0.41095   0.00000  Uiso   1.00
O633   O     0.16666   0.77322   0.53958   0.00000  Uiso   1.00
O634   O     0.16667   0.89345   0.46042   0.00000  Uiso   1.00
O635   O     0.16666   0.77321   0.46039   0.00000  Uiso   1.00
O636   O     0.16667   0.89346   0.53961   0.00000  Uiso   1.00
O637   O     0.09161   0.83334   0.53046   0.00000  Uiso   1.00
O638   O     0.24172   0.83333   0.46954   0.00000  Uiso   1.00
O639   O     0.09161   0.83333   0.45127   0.00000  Uiso   1.00
O640   O     0.24172   0.83334   0.54873   0.00000  Uiso   1.00
C641   C     0.49994   0.75406   0.50004   0.00000  Uiso   1.00
C642   C     0.50092   0.68778   0.54254   0.00000  Uiso   1.00
C643   C     0.50006   0.95724   0.49994   0.00000  Uiso   1.00
C644   C     0.49994   0.70942   0.50006   0.00000  Uiso   1.00
C645   C     0.46781   0.80774   0.35462   0.00000  Uiso   1.00
C646   C     0.53219   0.85893   0.64538   0.00000  Uiso   1.00
C647   C     0.46769   0.80762   0.63847   0.00000  Uiso   1.00
C648   C     0.53231   0.85905   0.36153   0.00000  Uiso   1.00
C649   C     0.43293   0.77971   0.61093   0.00000  Uiso   1.00
C650   C     0.56707   0.88695   0.38907   0.00000  Uiso   1.00
C651   C     0.50006   0.91261   0.49996   0.00000  Uiso   1.00
C652   C     0.40131   0.83328   0.48798   0.00000  Uiso   1.00
C653   C     0.59869   0.83339   0.51202   0.00000  Uiso   1.00
C654   C     0.34607   0.83319   0.48135   0.00000  Uiso   1.00
C655   C     0.65393   0.83348   0.51865   0.00000  Uiso   1.00
C656   C     0.49901   0.68813   0.45752   0.00000  Uiso   1.00
C657   C     0.50099   0.97854   0.54248   0.00000  Uiso   1.00
C658   C     0.49908   0.97889   0.45746   0.00000  Uiso   1.00
Cu659  Cu    0.50000   0.83334   0.54689   0.00000  Uiso   1.00
Cu660  Cu    0.50000   0.83333   0.45311   0.00000  Uiso   1.00
H661   H     0.65961   0.83284   0.44551   0.00000  Uiso   1.00
H662   H     0.34039   0.83382   0.55449   0.00000  Uiso   1.00
H663   H     0.49820   0.70427   0.42428   0.00000  Uiso   1.00
H664   H     0.50180   0.96240   0.57572   0.00000  Uiso   1.00
H665   H     0.49830   0.96303   0.42421   0.00000  Uiso   1.00
H666   H     0.50170   0.70364   0.57579   0.00000  Uiso   1.00
H667   H     0.44217   0.78727   0.37066   0.00000  Uiso   1.00
H668   H     0.55783   0.87939   0.62934   0.00000  Uiso   1.00
N669   N     0.50001   0.83334   0.61736   0.00000  Uiso   1.00
N670   N     0.49999   0.83332   0.38264   0.00000  Uiso   1.00
N671   N     0.40484   0.75715   0.58905   0.00000  Uiso   1.00
N672   N     0.59516   0.90952   0.41095   0.00000  Uiso   1.00
O673   O     0.50000   0.77322   0.53958   0.00000  Uiso   1.00
O674   O     0.50000   0.89345   0.46042   0.00000  Uiso   1.00
O675   O     0.50000   0.77321   0.46039   0.00000  Uiso   1.00
O676   O     0.50000   0.89346   0.53961   0.00000  Uiso   1.00
O677   O     0.42495   0.83334   0.53046   0.00000  Uiso   1.00
O678   O     0.57505   0.83333   0.46954   0.00000  Uiso   1.00
O679   O     0.42494   0.83333   0.45127   0.00000  Uiso   1.00
O680   O     0.57506   0.83334   0.54873   0.00000  Uiso   1.00
C681   C     0.83328   0.75406   0.50004   0.00000  Uiso   1.00
C682   C     0.83425   0.68778   0.54254   0.00000  Uiso   1.00
C683   C     0.83340   0.95724   0.49994   0.00000  Uiso   1.00
C684   C     0.83327   0.70942   0.50006   0.00000  Uiso   1.00
C685   C     0.80114   0.80774   0.35462   0.00000  Uiso   1.00
C686   C     0.86552   0.85893   0.64538   0.00000  Uiso   1.00
C687   C     0.80103   0.80762   0.63847   0.00000  Uiso   1.00
C688   C     0.86564   0.85905   0.36153   0.00000  Uiso   1.00
C689   C     0.76627   0.77971   0.61093   0.00000  Uiso   1.00
C690   C     0.90040   0.88695   0.38907   0.00000  Uiso   1.00
C691   C     0.83339   0.91261   0.49996   0.00000  Uiso   1.00
C692   C     0.73465   0.83328   0.48798   0.00000  Uiso   1.00
C693   C     0.93202   0.83339   0.51202   0.00000  Uiso   1.00
C694   C     0.67940   0.83319   0.48135   0.00000  Uiso   1.00
C695   C     0.98726   0.83348   0.51865   0.00000  Uiso   1.00
C696   C     0.83235   0.68813   0.45752   0.00000  Uiso   1.00
C697   C     0.83432   0.97854   0.54248   0.00000  Uiso   1.00
C698   C     0.83241   0.97889   0.45746   0.00000  Uiso   1.00
Cu699  Cu    0.83333   0.83334   0.54689   0.00000  Uiso   1.00
Cu700  Cu    0.83333   0.83333   0.45311   0.00000  Uiso   1.00
H701   H     0.99294   0.83284   0.44551   0.00000  Uiso   1.00
H702   H     0.67373   0.83382   0.55449   0.00000  Uiso   1.00
H703   H     0.83154   0.70427   0.42428   0.00000  Uiso   1.00
H704   H     0.83513   0.96240   0.57572   0.00000  Uiso   1.00
H705   H     0.83164   0.96303   0.42421   0.00000  Uiso   1.00
H706   H     0.83503   0.70364   0.57579   0.00000  Uiso   1.00
H707   H     0.77550   0.78727   0.37066   0.00000  Uiso   1.00
H708   H     0.89116   0.87939   0.62934   0.00000  Uiso   1.00
N709   N     0.83335   0.83334   0.61736   0.00000  Uiso   1.00
N710   N     0.83332   0.83332   0.38264   0.00000  Uiso   1.00
N711   N     0.73817   0.75715   0.58905   0.00000  Uiso   1.00
N712   N     0.92849   0.90952   0.41095   0.00000  Uiso   1.00
O713   O     0.83333   0.77322   0.53958   0.00000  Uiso   1.00
O714   O     0.83334   0.89345   0.46042   0.00000  Uiso   1.00
O715   O     0.83333   0.77321   0.46039   0.00000  Uiso   1.00
O716   O     0.83334   0.89346   0.53961   0.00000  Uiso   1.00
O717   O     0.75828   0.83334   0.53046   0.00000  Uiso   1.00
O718   O     0.90839   0.83333   0.46954   0.00000  Uiso   1.00
O719   O     0.75828   0.83333   0.45127   0.00000  Uiso   1.00
O720   O     0.90839   0.83334   0.54873   0.00000  Uiso   1.00
C721   C     0.16661   0.08739   0.83338   0.00000  Uiso   1.00
C722   C     0.16758   0.02111   0.87587   0.00000  Uiso   1.00
C723   C     0.16673   0.29058   0.83327   0.00000  Uiso   1.00
C724   C     0.16660   0.04276   0.83340   0.00000  Uiso   1.00
C725   C     0.13448   0.14107   0.68795   0.00000  Uiso   1.00
C726   C     0.19886   0.19227   0.97871   0.00000  Uiso   1.00
C727   C     0.13436   0.14095   0.97181   0.00000  Uiso   1.00
C728   C     0.19897   0.19238   0.69486   0.00000  Uiso   1.00
C729   C     0.09960   0.11305   0.94426   0.00000  Uiso   1.00
C730   C     0.23373   0.22029   0.72241   0.00000  Uiso   1.00
C731   C     0.16672   0.24594   0.83329   0.00000  Uiso   1.00
C732   C     0.06798   0.16661   0.82132   0.00000  Uiso   1.00
C733   C     0.26535   0.16672   0.84535   0.00000  Uiso   1.00
C734   C     0.01274   0.16652   0.81468   0.00000  Uiso   1.00
C735   C     0.32060   0.16682   0.85198   0.00000  Uiso   1.00
C736   C     0.16568   0.02146   0.79086   0.00000  Uiso   1.00
C737   C     0.16765   0.31187   0.87581   0.00000  Uiso   1.00
C738   C     0.16575   0.31222   0.79079   0.00000  Uiso   1.00
Cu739  Cu    0.16667   0.16667   0.88022   0.00000  Uiso   1.00
Cu740  Cu    0.16667   0.16666   0.78645   0.00000  Uiso   1.00
H741   H     0.32627   0.16618   0.77884   0.00000  Uiso   1.00
H742   H     0.00706   0.16716   0.88783   0.00000  Uiso   1.00
H743   H     0.16487   0.03760   0.75761   0.00000  Uiso   1.00
H744   H     0.16846   0.29573   0.90905   0.00000  Uiso   1.00
H745   H     0.16497   0.29636   0.75754   0.00000  Uiso   1.00
H746   H     0.16836   0.03697   0.90912   0.00000  Uiso   1.00
H747   H     0.10884   0.12061   0.70400   0.00000  Uiso   1.00
H748   H     0.22449   0.21273   0.96267   0.00000  Uiso   1.00
N749   N     0.16668   0.16668   0.95069   0.00000  Uiso   1.00
N750   N     0.16665   0.16666   0.71597   0.00000  Uiso   1.00
N751   N     0.07151   0.09048   0.92239   0.00000  Uiso   1.00
N752   N     0.26183   0.24285   0.74428   0.00000  Uiso   1.00
O753   O     0.16666   0.10655   0.87291   0.00000  Uiso   1.00
O754   O     0.16667   0.22678   0.79375   0.00000  Uiso   1.00
O755   O     0.16666   0.10654   0.79372   0.00000  Uiso   1.00
O756   O     0.16667   0.22679   0.87294   0.00000  Uiso   1.00
O757   O     0.09161   0.16667   0.86379   0.00000  Uiso   1.00
O758   O     0.24172   0.16666   0.80288   0.00000  Uiso   1.00
O759   O     0.09161   0.16666   0.78460   0.00000  Uiso   1.00
O760   O     0.24172   0.16667   0.88207   0.00000  Uiso   1.00
C761   C     0.49994   0.08739   0.83338   0.00000  Uiso   1.00
C762   C     0.50092   0.02111   0.87587   0.00000  Uiso   1.00
C763   C     0.50006   0.29058   0.83327   0.00000  Uiso   1.00
C764   C     0.49994   0.04276   0.83340   0.00000  Uiso   1.00
C765   C     0.46781   0.14107   0.68795   0.00000  Uiso   1.00
C766   C     0.53219   0.19227   0.97871   0.00000  Uiso   1.00
C767   C     0.46769   0.14095   0.97181   0.00000  Uiso   1.00
C768   C     0.53231   0.19238   0.69486   0.00000  Uiso   1.00
C769   C     0.43293   0.11305   0.94426   0.00000  Uiso   1.00
C770   C     0.56707   0.22029   0.72241   0.00000  Uiso   1.00
C771   C     0.50006   0.24594   0.83329   0.00000  Uiso   1.00
C772   C     0.40131   0.16661   0.82132   0.00000  Uiso   1.00
C773   C     0.59869   0.16672   0.84535   0.00000  Uiso   1.00
C774   C     0.34607   0.16652   0.81468   0.00000  Uiso   1.00
C775   C     0.65393   0.16682   0.85198   0.00000  Uiso   1.00
C776   C     0.49901   0.02146   0.79086   0.00000  Uiso   1.00
C777   C     0.50099   0.31187   0.87581   0.00000  Uiso   1.00
C778   C     0.49908   0.31222   0.79079   0.00000  Uiso   1.00
Cu779  Cu    0.50000   0.16667   0.88022   0.00000  Uiso   1.00
Cu780  Cu    0.50000   0.16666   0.78645   0.00000  Uiso   1.00
H781   H     0.65961   0.16618   0.77884   0.00000  Uiso   1.00
H782   H     0.34039   0.16716   0.88783   0.00000  Uiso   1.00
H783   H     0.49820   0.03760   0.75761   0.00000  Uiso   1.00
H784   H     0.50180   0.29573   0.90905   0.00000  Uiso   1.00
H785   H     0.49830   0.29636   0.75754   0.00000  Uiso   1.00
H786   H     0.50170   0.03697   0.90912   0.00000  Uiso   1.00
H787   H     0.44217   0.12061   0.70400   0.00000  Uiso   1.00
H788   H     0.55783   0.21273   0.96267   0.00000  Uiso   1.00
N789   N     0.50001   0.16668   0.95069   0.00000  Uiso   1.00
N790   N     0.49999   0.16666   0.71597   0.00000  Uiso   1.00
N791   N     0.40484   0.09048   0.92239   0.00000  Uiso   1.00
N792   N     0.59516   0.24285   0.74428   0.00000  Uiso   1.00
O793   O     0.50000   0.10655   0.87291   0.00000  Uiso   1.00
O794   O     0.50000   0.22678   0.79375   0.00000  Uiso   1.00
O795   O     0.50000   0.10654   0.79372   0.00000  Uiso   1.00
O796   O     0.50000   0.22679   0.87294   0.00000  Uiso   1.00
O797   O     0.42495   0.16667   0.86379   0.00000  Uiso   1.00
O798   O     0.57505   0.16666   0.80288   0.00000  Uiso   1.00
O799   O     0.42494   0.16666   0.78460   0.00000  Uiso   1.00
O800   O     0.57506   0.16667   0.88207   0.00000  Uiso   1.00
C801   C     0.83328   0.08739   0.83338   0.00000  Uiso   1.00
C802   C     0.83425   0.02111   0.87587   0.00000  Uiso   1.00
C803   C     0.83340   0.29058   0.83327   0.00000  Uiso   1.00
C804   C     0.83327   0.04276   0.83340   0.00000  Uiso   1.00
C805   C     0.80114   0.14107   0.68795   0.00000  Uiso   1.00
C806   C     0.86552   0.19227   0.97871   0.00000  Uiso   1.00
C807   C     0.80103   0.14095   0.97181   0.00000  Uiso   1.00
C808   C     0.86564   0.19238   0.69486   0.00000  Uiso   1.00
C809   C     0.76627   0.11305   0.94426   0.00000  Uiso   1.00
C810   C     0.90040   0.22029   0.72241   0.00000  Uiso   1.00
C811   C     0.83339   0.24594   0.83329   0.00000  Uiso   1.00
C812   C     0.73465   0.16661   0.82132   0.00000  Uiso   1.00
C813   C     0.93202   0.16672   0.84535   0.00000  Uiso   1.00
C814   C     0.67940   0.16652   0.81468   0.00000  Uiso   1.00
C815   C     0.98726   0.16682   0.85198   0.00000  Uiso   1.00
C816   C     0.83235   0.02146   0.79086   0.00000  Uiso   1.00
C817   C     0.83432   0.31187   0.87581   0.00000  Uiso   1.00
C818   C     0.83241   0.31222   0.79079   0.00000  Uiso   1.00
Cu819  Cu    0.83333   0.16667   0.88022   0.00000  Uiso   1.00
Cu820  Cu    0.83333   0.16666   0.78645   0.00000  Uiso   1.00
H821   H     0.99294   0.16618   0.77884   0.00000  Uiso   1.00
H822   H     0.67373   0.16716   0.88783   0.00000  Uiso   1.00
H823   H     0.83154   0.03760   0.75761   0.00000  Uiso   1.00
H824   H     0.83513   0.29573   0.90905   0.00000  Uiso   1.00
H825   H     0.83164   0.29636   0.75754   0.00000  Uiso   1.00
H826   H     0.83503   0.03697   0.90912   0.00000  Uiso   1.00
H827   H     0.77550   0.12061   0.70400   0.00000  Uiso   1.00
H828   H     0.89116   0.21273   0.96267   0.00000  Uiso   1.00
N829   N     0.83335   0.16668   0.95069   0.00000  Uiso   1.00
N830   N     0.83332   0.16666   0.71597   0.00000  Uiso   1.00
N831   N     0.73817   0.09048   0.92239   0.00000  Uiso   1.00
N832   N     0.92849   0.24285   0.74428   0.00000  Uiso   1.00
O833   O     0.83333   0.10655   0.87291   0.00000  Uiso   1.00
O834   O     0.83334   0.22678   0.79375   0.00000  Uiso   1.00
O835   O     0.83333   0.10654   0.79372   0.00000  Uiso   1.00
O836   O     0.83334   0.22679   0.87294   0.00000  Uiso   1.00
O837   O     0.75828   0.16667   0.86379   0.00000  Uiso   1.00
O838   O     0.90839   0.16666   0.80288   0.00000  Uiso   1.00
O839   O     0.75828   0.16666   0.78460   0.00000  Uiso   1.00
O840   O     0.90839   0.16667   0.88207   0.00000  Uiso   1.00
C841   C     0.16661   0.42072   0.83338   0.00000  Uiso   1.00
C842   C     0.16758   0.35445   0.87587   0.00000  Uiso   1.00
C843   C     0.16673   0.62391   0.83327   0.00000  Uiso   1.00
C844   C     0.16660   0.37609   0.83340   0.00000  Uiso   1.00
C845   C     0.13448   0.47440   0.68795   0.00000  Uiso   1.00
C846   C     0.19886   0.52560   0.97871   0.00000  Uiso   1.00
C847   C     0.13436   0.47428   0.97181   0.00000  Uiso   1.00
C848   C     0.19897   0.52572   0.69486   0.00000  Uiso   1.00
C849   C     0.09960   0.44638   0.94426   0.00000  Uiso   1.00
C850   C     0.23373   0.55362   0.72241   0.00000  Uiso   1.00
C851   C     0.16672   0.57928   0.83329   0.00000  Uiso   1.00
C852   C     0.06798   0.49995   0.82132   0.00000  Uiso   1.00
C853   C     0.26535   0.50005   0.84535   0.00000  Uiso   1.00
C854   C     0.01274   0.49985   0.81468   0.00000  Uiso   1.00
C855   C     0.32060   0.50015   0.85198   0.00000  Uiso   1.00
C856   C     0.16568   0.35480   0.79086   0.00000  Uiso   1.00
C857   C     0.16765   0.64520   0.87581   0.00000  Uiso   1.00
C858   C     0.16575   0.64555   0.79079   0.00000  Uiso   1.00
Cu859  Cu    0.16667   0.50001   0.88022   0.00000  Uiso   1.00
Cu860  Cu    0.16667   0.49999   0.78645   0.00000  Uiso   1.00
H861   H     0.32627   0.49951   0.77884   0.00000  Uiso   1.00
H862   H     0.00706   0.50049   0.88783   0.00000  Uiso   1.00
H863   H     0.16487   0.37094   0.75761   0.00000  Uiso   1.00
H864   H     0.16846   0.62906   0.90905   0.00000  Uiso   1.00
H865   H     0.16497   0.62970   0.75754   0.00000  Uiso   1.00
H866   H     0.16836   0.37031   0.90912   0.00000  Uiso   1.00
H867   H     0.10884   0.45394   0.70400   0.00000  Uiso   1.00
H868   H     0.22449   0.54606   0.96267   0.00000  Uiso   1.00
N869   N     0.16668   0.50001   0.95069   0.00000  Uiso   1.00
N870   N     0.16665   0.49999   0.71597   0.00000  Uiso   1.00
N871   N     0.07151   0.42381   0.92239   0.00000  Uiso   1.00
N872   N     0.26183   0.57619   0.74428   0.00000  Uiso   1.00
O873   O     0.16666   0.43989   0.87291   0.00000  Uiso   1.00
O874   O     0.16667   0.56011   0.79375   0.00000  Uiso   1.00
O875   O     0.16666   0.43988   0.79372   0.00000  Uiso   1.00
O876   O     0.16667   0.56012   0.87294   0.00000  Uiso   1.00
O877   O     0.09161   0.50000   0.86379   0.00000  Uiso   1.00
O878   O     0.24172   0.50000   0.80288   0.00000  Uiso   1.00
O879   O     0.09161   0.49999   0.78460   0.00000  Uiso   1.00
O880   O     0.24172   0.50001   0.88207   0.00000  Uiso   1.00
C881   C     0.49994   0.42072   0.83338   0.00000  Uiso   1.00
C882   C     0.50092   0.35445   0.87587   0.00000  Uiso   1.00
C883   C     0.50006   0.62391   0.83327   0.00000  Uiso   1.00
C884   C     0.49994   0.37609   0.83340   0.00000  Uiso   1.00
C885   C     0.46781   0.47440   0.68795   0.00000  Uiso   1.00
C886   C     0.53219   0.52560   0.97871   0.00000  Uiso   1.00
C887   C     0.46769   0.47428   0.97181   0.00000  Uiso   1.00
C888   C     0.53231   0.52572   0.69486   0.00000  Uiso   1.00
C889   C     0.43293   0.44638   0.94426   0.00000  Uiso   1.00
C890   C     0.56707   0.55362   0.72241   0.00000  Uiso   1.00
C891   C     0.50006   0.57928   0.83329   0.00000  Uiso   1.00
C892   C     0.40131   0.49995   0.82132   0.00000  Uiso   1.00
C893   C     0.59869   0.50005   0.84535   0.00000  Uiso   1.00
C894   C     0.34607   0.49985   0.81468   0.00000  Uiso   1.00
C895   C     0.65393   0.50015   0.85198   0.00000  Uiso   1.00
C896   C     0.49901   0.35480   0.79086   0.00000  Uiso   1.00
C897   C     0.50099   0.64520   0.87581   0.00000  Uiso   1.00
C898   C     0.49908   0.64555   0.79079   0.00000  Uiso   1.00
Cu899  Cu    0.50000   0.50001   0.88022   0.00000  Uiso   1.00
Cu900  Cu    0.50000   0.49999   0.78645   0.00000  Uiso   1.00
H901   H     0.65961   0.49951   0.77884   0.00000  Uiso   1.00
H902   H     0.34039   0.50049   0.88783   0.00000  Uiso   1.00
H903   H     0.49820   0.37094   0.75761   0.00000  Uiso   1.00
H904   H     0.50180   0.62906   0.90905   0.00000  Uiso   1.00
H905   H     0.49830   0.62970   0.75754   0.00000  Uiso   1.00
H906   H     0.50170   0.37031   0.90912   0.00000  Uiso   1.00
H907   H     0.44217   0.45394   0.70400   0.00000  Uiso   1.00
H908   H     0.55783   0.54606   0.96267   0.00000  Uiso   1.00
N909   N     0.50001   0.50001   0.95069   0.00000  Uiso   1.00
N910   N     0.49999   0.49999   0.71597   0.00000  Uiso   1.00
N911   N     0.40484   0.42381   0.92239   0.00000  Uiso   1.00
N912   N     0.59516   0.57619   0.74428   0.00000  Uiso   1.00
O913   O     0.50000   0.43989   0.87291   0.00000  Uiso   1.00
O914   O     0.50000   0.56011   0.79375   0.00000  Uiso   1.00
O915   O     0.50000   0.43988   0.79372   0.00000  Uiso   1.00
O916   O     0.50000   0.56012   0.87294   0.00000  Uiso   1.00
O917   O     0.42495   0.50000   0.86379   0.00000  Uiso   1.00
O918   O     0.57505   0.50000   0.80288   0.00000  Uiso   1.00
O919   O     0.42494   0.49999   0.78460   0.00000  Uiso   1.00
O920   O     0.57506   0.50001   0.88207   0.00000  Uiso   1.00
C921   C     0.83328   0.42072   0.83338   0.00000  Uiso   1.00
C922   C     0.83425   0.35445   0.87587   0.00000  Uiso   1.00
C923   C     0.83340   0.62391   0.83327   0.00000  Uiso   1.00
C924   C     0.83327   0.37609   0.83340   0.00000  Uiso   1.00
C925   C     0.80114   0.47440   0.68795   0.00000  Uiso   1.00
C926   C     0.86552   0.52560   0.97871   0.00000  Uiso   1.00
C927   C     0.80103   0.47428   0.97181   0.00000  Uiso   1.00
C928   C     0.86564   0.52572   0.69486   0.00000  Uiso   1.00
C929   C     0.76627   0.44638   0.94426   0.00000  Uiso   1.00
C930   C     0.90040   0.55362   0.72241   0.00000  Uiso   1.00
C931   C     0.83339   0.57928   0.83329   0.00000  Uiso   1.00
C932   C     0.73465   0.49995   0.82132   0.00000  Uiso   1.00
C933   C     0.93202   0.50005   0.84535   0.00000  Uiso   1.00
C934   C     0.67940   0.49985   0.81468   0.00000  Uiso   1.00
C935   C     0.98726   0.50015   0.85198   0.00000  Uiso   1.00
C936   C     0.83235   0.35480   0.79086   0.00000  Uiso   1.00
C937   C     0.83432   0.64520   0.87581   0.00000  Uiso   1.00
C938   C     0.83241   0.64555   0.79079   0.00000  Uiso   1.00
Cu939  Cu    0.83333   0.50001   0.88022   0.00000  Uiso   1.00
Cu940  Cu    0.83333   0.49999   0.78645   0.00000  Uiso   1.00
H941   H     0.99294   0.49951   0.77884   0.00000  Uiso   1.00
H942   H     0.67373   0.50049   0.88783   0.00000  Uiso   1.00
H943   H     0.83154   0.37094   0.75761   0.00000  Uiso   1.00
H944   H     0.83513   0.62906   0.90905   0.00000  Uiso   1.00
H945   H     0.83164   0.62970   0.75754   0.00000  Uiso   1.00
H946   H     0.83503   0.37031   0.90912   0.00000  Uiso   1.00
H947   H     0.77550   0.45394   0.70400   0.00000  Uiso   1.00
H948   H     0.89116   0.54606   0.96267   0.00000  Uiso   1.00
N949   N     0.83335   0.50001   0.95069   0.00000  Uiso   1.00
N950   N     0.83332   0.49999   0.71597   0.00000  Uiso   1.00
N951   N     0.73817   0.42381   0.92239   0.00000  Uiso   1.00
N952   N     0.92849   0.57619   0.74428   0.00000  Uiso   1.00
O953   O     0.83333   0.43989   0.87291   0.00000  Uiso   1.00
O954   O     0.83334   0.56011   0.79375   0.00000  Uiso   1.00
O955   O     0.83333   0.43988   0.79372   0.00000  Uiso   1.00
O956   O     0.83334   0.56012   0.87294   0.00000  Uiso   1.00
O957   O     0.75828   0.50000   0.86379   0.00000  Uiso   1.00
O958   O     0.90839   0.50000   0.80288   0.00000  Uiso   1.00
O959   O     0.75828   0.49999   0.78460   0.00000  Uiso   1.00
O960   O     0.90839   0.50001   0.88207   0.00000  Uiso   1.00
C961   C     0.16661   0.75406   0.83338   0.00000  Uiso   1.00
C962   C     0.16758   0.68778   0.87587   0.00000  Uiso   1.00
C963   C     0.16673   0.95724   0.83327   0.00000  Uiso   1.00
C964   C     0.16660   0.70942   0.83340   0.00000  Uiso   1.00
C965   C     0.13448   0.80774   0.68795   0.00000  Uiso   1.00
C966   C     0.19886   0.85893   0.97871   0.00000  Uiso   1.00
C967   C     0.13436   0.80762   0.97181   0.00000  Uiso   1.00
C968   C     0.19897   0.85905   0.69486   0.00000  Uiso   1.00
C969   C     0.09960   0.77971   0.94426   0.00000  Uiso   1.00
C970   C     0.23373   0.88695   0.72241   0.00000  Uiso   1.00
C971   C     0.16672   0.91261   0.83329   0.00000  Uiso   1.00
C972   C     0.06798   0.83328   0.82132   0.00000  Uiso   1.00
C973   C     0.26535   0.83339   0.84535   0.00000  Uiso   1.00
C974   C     0.01274   0.83319   0.81468   0.00000  Uiso   1.00
C975   C     0.32060   0.83348   0.85198   0.00000  Uiso   1.00
C976   C     0.16568   0.68813   0.79086   0.00000  Uiso   1.00
C977   C     0.16765   0.97854   0.87581   0.00000  Uiso   1.00
C978   C     0.16575   0.97889   0.79079   0.00000  Uiso   1.00
Cu979  Cu    0.16667   0.83334   0.88022   0.00000  Uiso   1.00
Cu980  Cu    0.16667   0.83333   0.78645   0.00000  Uiso   1.00
H981   H     0.32627   0.83284   0.77884   0.00000  Uiso   1.00
H982   H     0.00706   0.83382   0.88783   0.00000  Uiso   1.00
H983   H     0.16487   0.70427   0.75761   0.00000  Uiso   1.00
H984   H     0.16846   0.96240   0.90905   0.00000  Uiso   1.00
H985   H     0.16497   0.96303   0.75754   0.00000  Uiso   1.00
H986   H     0.16836   0.70364   0.90912   0.00000  Uiso   1.00
H987   H     0.10884   0.78727   0.70400   0.00000  Uiso   1.00
H988   H     0.22449   0.87939   0.96267   0.00000  Uiso   1.00
N989   N     0.16668   0.83334   0.95069   0.00000  Uiso   1.00
N990   N     0.16665   0.83332   0.71597   0.00000  Uiso   1.00
N991   N     0.07151   0.75715   0.92239   0.00000  Uiso   1.00
N992   N     0.26183   0.90952   0.74428   0.00000  Uiso   1.00
O993   O     0.16666   0.77322   0.87291   0.00000  Uiso   1.00
O994   O     0.16667   0.89345   0.79375   0.00000  Uiso   1.00
O995   O     0.16666   0.77321   0.79372   0.00000  Uiso   1.00
O996   O     0.16667   0.89346   0.87294   0.00000  Uiso   1.00
O997   O     0.09161   0.83334   0.86379   0.00000  Uiso   1.00
O998   O     0.24172   0.83333   0.80288   0.00000  Uiso   1.00
O999   O     0.09161   0.83333   0.78460   0.00000  Uiso   1.00
O1000  O     0.24172   0.83334   0.88207   0.00000  Uiso   1.00
C1001  C     0.49994   0.75406   0.83338   0.00000  Uiso   1.00
C1002  C     0.50092   0.68778   0.87587   0.00000  Uiso   1.00
C1003  C     0.50006   0.95724   0.83327   0.00000  Uiso   1.00
C1004  C     0.49994   0.70942   0.83340   0.00000  Uiso   1.00
C1005  C     0.46781   0.80774   0.68795   0.00000  Uiso   1.00
C1006  C     0.53219   0.85893   0.97871   0.00000  Uiso   1.00
C1007  C     0.46769   0.80762   0.97181   0.00000  Uiso   1.00
C1008  C     0.53231   0.85905   0.69486   0.00000  Uiso   1.00
C1009  C     0.43293   0.77971   0.94426   0.00000  Uiso   1.00
C1010  C     0.56707   0.88695   0.72241   0.00000  Uiso   1.00
C1011  C     0.50006   0.91261   0.83329   0.00000  Uiso   1.00
C1012  C     0.40131   0.83328   0.82132   0.00000  Uiso   1.00
C1013  C     0.59869   0.83339   0.84535   0.00000  Uiso   1.00
C1014  C     0.34607   0.83319   0.81468   0.00000  Uiso   1.00
C1015  C     0.65393   0.83348   0.85198   0.00000  Uiso   1.00
C1016  C     0.49901   0.68813   0.79086   0.00000  Uiso   1.00
C1017  C     0.50099   0.97854   0.87581   0.00000  Uiso   1.00
C1018  C     0.49908   0.97889   0.79079   0.00000  Uiso   1.00
Cu1019 Cu    0.50000   0.83334   0.88022   0.00000  Uiso   1.00
Cu1020 Cu    0.50000   0.83333   0.78645   0.00000  Uiso   1.00
H1021  H     0.65961   0.83284   0.77884   0.00000  Uiso   1.00
H1022  H     0.34039   0.83382   0.88783   0.00000  Uiso   1.00
H1023  H     0.49820   0.70427   0.75761   0.00000  Uiso   1.00
H1024  H     0.50180   0.96240   0.90905   0.00000  Uiso   1.00
H1025  H     0.49830   0.96303   0.75754   0.00000  Uiso   1.00
H1026  H     0.50170   0.70364   0.90912   0.00000  Uiso   1.00
H1027  H     0.44217   0.78727   0.70400   0.00000  Uiso   1.00
H1028  H     0.55783   0.87939   0.96267   0.00000  Uiso   1.00
N1029  N     0.50001   0.83334   0.95069   0.00000  Uiso   1.00
N1030  N     0.49999   0.83332   0.71597   0.00000  Uiso   1.00
N1031  N     0.40484   0.75715   0.92239   0.00000  Uiso   1.00
N1032  N     0.59516   0.90952   0.74428   0.00000  Uiso   1.00
O1033  O     0.50000   0.77322   0.87291   0.00000  Uiso   1.00
O1034  O     0.50000   0.89345   0.79375   0.00000  Uiso   1.00
O1035  O     0.50000   0.77321   0.79372   0.00000  Uiso   1.00
O1036  O     0.50000   0.89346   0.87294   0.00000  Uiso   1.00
O1037  O     0.42495   0.83334   0.86379   0.00000  Uiso   1.00
O1038  O     0.57505   0.83333   0.80288   0.00000  Uiso   1.00
O1039  O     0.42494   0.83333   0.78460   0.00000  Uiso   1.00
O1040  O     0.57506   0.83334   0.88207   0.00000  Uiso   1.00
C1041  C     0.83328   0.75406   0.83338   0.00000  Uiso   1.00
C1042  C     0.83425   0.68778   0.87587   0.00000  Uiso   1.00
C1043  C     0.83340   0.95724   0.83327   0.00000  Uiso   1.00
C1044  C     0.83327   0.70942   0.83340   0.00000  Uiso   1.00
C1045  C     0.80114   0.80774   0.68795   0.00000  Uiso   1.00
C1046  C     0.86552   0.85893   0.97871   0.00000  Uiso   1.00
C1047  C     0.80103   0.80762   0.97181   0.00000  Uiso   1.00
C1048  C     0.86564   0.85905   0.69486   0.00000  Uiso   1.00
C1049  C     0.76627   0.77971   0.94426   0.00000  Uiso   1.00
C1050  C     0.90040   0.88695   0.72241   0.00000  Uiso   1.00
C1051  C     0.83339   0.91261   0.83329   0.00000  Uiso   1.00
C1052  C     0.73465   0.83328   0.82132   0.00000  Uiso   1.00
C1053  C     0.93202   0.83339   0.84535   0.00000  Uiso   1.00
C1054  C     0.67940   0.83319   0.81468   0.00000  Uiso   1.00
C1055  C     0.98726   0.83348   0.85198   0.00000  Uiso   1.00
C1056  C     0.83235   0.68813   0.79086   0.00000  Uiso   1.00
C1057  C     0.83432   0.97854   0.87581   0.00000  Uiso   1.00
C1058  C     0.83241   0.97889   0.79079   0.00000  Uiso   1.00
Cu1059 Cu    0.83333   0.83334   0.88022   0.00000  Uiso   1.00
Cu1060 Cu    0.83333   0.83333   0.78645   0.00000  Uiso   1.00
H1061  H     0.99294   0.83284   0.77884   0.00000  Uiso   1.00
H1062  H     0.67373   0.83382   0.88783   0.00000  Uiso   1.00
H1063  H     0.83154   0.70427   0.75761   0.00000  Uiso   1.00
H1064  H     0.83513   0.96240   0.90905   0.00000  Uiso   1.00
H1065  H     0.83164   0.96303   0.75754   0.00000  Uiso   1.00
H1066  H     0.83503   0.70364   0.90912   0.00000  Uiso   1.00
H1067  H     0.77550   0.78727   0.70400   0.00000  Uiso   1.00
H1068  H     0.89116   0.87939   0.96267   0.00000  Uiso   1.00
N1069  N     0.83335   0.83334   0.95069   0.00000  Uiso   1.00
N1070  N     0.83332   0.83332   0.71597   0.00000  Uiso   1.00
N1071  N     0.73817   0.75715   0.92239   0.00000  Uiso   1.00
N1072  N     0.92849   0.90952   0.74428   0.00000  Uiso   1.00
O1073  O     0.83333   0.77322   0.87291   0.00000  Uiso   1.00
O1074  O     0.83334   0.89345   0.79375   0.00000  Uiso   1.00
O1075  O     0.83333   0.77321   0.79372   0.00000  Uiso   1.00
O1076  O     0.83334   0.89346   0.87294   0.00000  Uiso   1.00
O1077  O     0.75828   0.83334   0.86379   0.00000  Uiso   1.00
O1078  O     0.90839   0.83333   0.80288   0.00000  Uiso   1.00
O1079  O     0.75828   0.83333   0.78460   0.00000  Uiso   1.00
O1080  O     0.90839   0.83334   0.88207   0.00000  Uiso   1.00
loop_
_geom_bond_atom_site_label_1
_geom_bond_atom_site_label_2
_geom_bond_distance
_geom_bond_site_symmetry_2
_ccdc_geom_bond_type
C1     C4      1.450   .     S
C1     O33     1.295   .     A
C1     O35     1.293   .     A
C2     C4      1.400   .     A
C2     H26     1.083   .     S
C2     C257    1.384   1_545 S
C3     C17     1.402   .     A
C3     C11     1.450   .     S
C3     C18     1.400   .     A
C4     C16     1.402   .     A
C5     N30     1.362   .     A
C5     H27     1.083   .     S
C5     C727    1.418   1_554 S
C6     N29     1.362   .     A
C6     H28     1.083   .     S
C6     C368    1.418   .     S
C7     N29     1.377   .     A
C7     C9      1.438   .     S
C7     C365    1.418   .     S
C8     N30     1.377   .     A
C8     C10     1.438   .     S
C8     C726    1.418   1_554 S
C9     N31     1.158   .     T
C10    N32     1.158   .     T
C11    O36     1.293   .     A
C11    O34     1.295   .     A
C12    O39     1.290   .     A
C12    C14     1.434   .     S
C12    O37     1.290   .     A
C13    O38     1.290   .     A
C13    C15     1.434   .     S
C13    O40     1.290   .     A
C14    C95     1.334   1_455 S
C14    H101    1.087   1_455 S
C15    C54     1.334   .     S
C15    H62     1.087   .     S
C16    H23     1.083   .     S
C16    C258    1.384   1_545 S
C17    H24     1.083   .     S
C17    C122    1.384   .     S
C18    H25     1.083   .     S
C18    C136    1.384   .     S
Cu19   Cu20    2.687   .     S
Cu19   O36     1.964   .     S
Cu19   O40     1.959   .     S
Cu19   N29     2.020   .     S
Cu19   O33     1.966   .     S
Cu19   O37     1.959   .     S
Cu20   O38     1.959   .     S
Cu20   N30     2.020   .     S
Cu20   O34     1.966   .     S
Cu20   O39     1.959   .     S
Cu20   O35     1.964   .     S
H21    C54     1.087   .     S
H22    C95     1.087   1_455 S
C41    C44     1.450   .     S
C41    O73     1.295   .     A
C41    O75     1.293   .     A
C42    C44     1.400   .     A
C42    H66     1.083   .     S
C42    C297    1.384   1_545 S
C43    C57     1.402   .     A
C43    C51     1.450   .     S
C43    C58     1.400   .     A
C44    C56     1.402   .     A
C45    N70     1.362   .     A
C45    H67     1.083   .     S
C45    C767    1.418   1_554 S
C46    N69     1.362   .     A
C46    H68     1.083   .     S
C46    C408    1.418   .     S
C47    N69     1.377   .     A
C47    C49     1.438   .     S
C47    C405    1.418   .     S
C48    N70     1.377   .     A
C48    C50     1.438   .     S
C48    C766    1.418   1_554 S
C49    N71     1.158   .     T
C50    N72     1.158   .     T
C51    O76     1.293   .     A
C51    O74     1.295   .     A
C52    O79     1.290   .     A
C52    C54     1.434   .     S
C52    O77     1.290   .     A
C53    O78     1.290   .     A
C53    C55     1.434   .     S
C53    O80     1.290   .     A
C55    C94     1.334   .     S
C55    H102    1.087   .     S
C56    H63     1.083   .     S
C56    C298    1.384   1_545 S
C57    H64     1.083   .     S
C57    C162    1.384   .     S
C58    H65     1.083   .     S
C58    C176    1.384   .     S
Cu59   Cu60    2.687   .     S
Cu59   O76     1.964   .     S
Cu59   O80     1.959   .     S
Cu59   N69     2.020   .     S
Cu59   O73     1.966   .     S
Cu59   O77     1.959   .     S
Cu60   O78     1.959   .     S
Cu60   N70     2.020   .     S
Cu60   O74     1.966   .     S
Cu60   O79     1.959   .     S
Cu60   O75     1.964   .     S
H61    C94     1.087   .     S
C81    C84     1.450   .     S
C81    O113    1.295   .     A
C81    O115    1.293   .     A
C82    C84     1.400   .     A
C82    H106    1.083   .     S
C82    C337    1.384   1_545 S
C83    C97     1.402   .     A
C83    C91     1.450   .     S
C83    C98     1.400   .     A
C84    C96     1.402   .     A
C85    N110    1.362   .     A
C85    H107    1.083   .     S
C85    C807    1.418   1_554 S
C86    N109    1.362   .     A
C86    H108    1.083   .     S
C86    C448    1.418   .     S
C87    N109    1.377   .     A
C87    C89     1.438   .     S
C87    C445    1.418   .     S
C88    N110    1.377   .     A
C88    C90     1.438   .     S
C88    C806    1.418   1_554 S
C89    N111    1.158   .     T
C90    N112    1.158   .     T
C91    O116    1.293   .     A
C91    O114    1.295   .     A
C92    O119    1.290   .     A
C92    C94     1.434   .     S
C92    O117    1.290   .     A
C93    O118    1.290   .     A
C93    C95     1.434   .     S
C93    O120    1.290   .     A
C95    C14     1.334   1_655 S
C95    H22     1.087   1_655 S
C96    H103    1.083   .     S
C96    C338    1.384   1_545 S
C97    H104    1.083   .     S
C97    C202    1.384   .     S
C98    H105    1.083   .     S
C98    C216    1.384   .     S
Cu99   Cu100   2.687   .     S
Cu99   O116    1.964   .     S
Cu99   O120    1.959   .     S
Cu99   N109    2.020   .     S
Cu99   O113    1.966   .     S
Cu99   O117    1.959   .     S
Cu100  O118    1.959   .     S
Cu100  N110    2.020   .     S
Cu100  O114    1.966   .     S
Cu100  O119    1.959   .     S
Cu100  O115    1.964   .     S
H101   C14     1.087   1_655 S
C121   C124    1.450   .     S
C121   O153    1.295   .     A
C121   O155    1.293   .     A
C122   C124    1.400   .     A
C122   H146    1.083   .     S
C123   C137    1.402   .     A
C123   C131    1.450   .     S
C123   C138    1.400   .     A
C124   C136    1.402   .     A
C125   N150    1.362   .     A
C125   H147    1.083   .     S
C125   C847    1.418   1_554 S
C126   N149    1.362   .     A
C126   H148    1.083   .     S
C126   C488    1.418   .     S
C127   N149    1.377   .     A
C127   C129    1.438   .     S
C127   C485    1.418   .     S
C128   N150    1.377   .     A
C128   C130    1.438   .     S
C128   C846    1.418   1_554 S
C129   N151    1.158   .     T
C130   N152    1.158   .     T
C131   O156    1.293   .     A
C131   O154    1.295   .     A
C132   O159    1.290   .     A
C132   C134    1.434   .     S
C132   O157    1.290   .     A
C133   O158    1.290   .     A
C133   C135    1.434   .     S
C133   O160    1.290   .     A
C134   C215    1.334   1_455 S
C134   H221    1.087   1_455 S
C135   C174    1.334   .     S
C135   H182    1.087   .     S
C136   H143    1.083   .     S
C137   H144    1.083   .     S
C137   C242    1.384   .     S
C138   H145    1.083   .     S
C138   C256    1.384   .     S
Cu139  Cu140   2.687   .     S
Cu139  O156    1.964   .     S
Cu139  O160    1.959   .     S
Cu139  N149    2.020   .     S
Cu139  O153    1.966   .     S
Cu139  O157    1.959   .     S
Cu140  O158    1.959   .     S
Cu140  N150    2.020   .     S
Cu140  O154    1.966   .     S
Cu140  O159    1.959   .     S
Cu140  O155    1.964   .     S
H141   C174    1.087   .     S
H142   C215    1.087   1_455 S
C161   C164    1.450   .     S
C161   O193    1.295   .     A
C161   O195    1.293   .     A
C162   C164    1.400   .     A
C162   H186    1.083   .     S
C163   C177    1.402   .     A
C163   C171    1.450   .     S
C163   C178    1.400   .     A
C164   C176    1.402   .     A
C165   N190    1.362   .     A
C165   H187    1.083   .     S
C165   C887    1.418   1_554 S
C166   N189    1.362   .     A
C166   H188    1.083   .     S
C166   C528    1.418   .     S
C167   N189    1.377   .     A
C167   C169    1.438   .     S
C167   C525    1.418   .     S
C168   N190    1.377   .     A
C168   C170    1.438   .     S
C168   C886    1.418   1_554 S
C169   N191    1.158   .     T
C170   N192    1.158   .     T
C171   O196    1.293   .     A
C171   O194    1.295   .     A
C172   O199    1.290   .     A
C172   C174    1.434   .     S
C172   O197    1.290   .     A
C173   O198    1.290   .     A
C173   C175    1.434   .     S
C173   O200    1.290   .     A
C175   C214    1.334   .     S
C175   H222    1.087   .     S
C176   H183    1.083   .     S
C177   H184    1.083   .     S
C177   C282    1.384   .     S
C178   H185    1.083   .     S
C178   C296    1.384   .     S
Cu179  Cu180   2.687   .     S
Cu179  O196    1.964   .     S
Cu179  O200    1.959   .     S
Cu179  N189    2.020   .     S
Cu179  O193    1.966   .     S
Cu179  O197    1.959   .     S
Cu180  O198    1.959   .     S
Cu180  N190    2.020   .     S
Cu180  O194    1.966   .     S
Cu180  O199    1.959   .     S
Cu180  O195    1.964   .     S
H181   C214    1.087   .     S
C201   C204    1.450   .     S
C201   O233    1.295   .     A
C201   O235    1.293   .     A
C202   C204    1.400   .     A
C202   H226    1.083   .     S
C203   C217    1.402   .     A
C203   C211    1.450   .     S
C203   C218    1.400   .     A
C204   C216    1.402   .     A
C205   N230    1.362   .     A
C205   H227    1.083   .     S
C205   C927    1.418   1_554 S
C206   N229    1.362   .     A
C206   H228    1.083   .     S
C206   C568    1.418   .     S
C207   N229    1.377   .     A
C207   C209    1.438   .     S
C207   C565    1.418   .     S
C208   N230    1.377   .     A
C208   C210    1.438   .     S
C208   C926    1.418   1_554 S
C209   N231    1.158   .     T
C210   N232    1.158   .     T
C211   O236    1.293   .     A
C211   O234    1.295   .     A
C212   O239    1.290   .     A
C212   C214    1.434   .     S
C212   O237    1.290   .     A
C213   O238    1.290   .     A
C213   C215    1.434   .     S
C213   O240    1.290   .     A
C215   C134    1.334   1_655 S
C215   H142    1.087   1_655 S
C216   H223    1.083   .     S
C217   H224    1.083   .     S
C217   C322    1.384   .     S
C218   H225    1.083   .     S
C218   C336    1.384   .     S
Cu219  Cu220   2.687   .     S
Cu219  O236    1.964   .     S
Cu219  O240    1.959   .     S
Cu219  N229    2.020   .     S
Cu219  O233    1.966   .     S
Cu219  O237    1.959   .     S
Cu220  O238    1.959   .     S
Cu220  N230    2.020   .     S
Cu220  O234    1.966   .     S
Cu220  O239    1.959   .     S
Cu220  O235    1.964   .     S
H221   C134    1.087   1_655 S
C241   C244    1.450   .     S
C241   O273    1.295   .     A
C241   O275    1.293   .     A
C242   C244    1.400   .     A
C242   H266    1.083   .     S
C243   C257    1.402   .     A
C243   C251    1.450   .     S
C243   C258    1.400   .     A
C244   C256    1.402   .     A
C245   N270    1.362   .     A
C245   H267    1.083   .     S
C245   C967    1.418   1_554 S
C246   N269    1.362   .     A
C246   H268    1.083   .     S
C246   C608    1.418   .     S
C247   N269    1.377   .     A
C247   C249    1.438   .     S
C247   C605    1.418   .     S
C248   N270    1.377   .     A
C248   C250    1.438   .     S
C248   C966    1.418   1_554 S
C249   N271    1.158   .     T
C250   N272    1.158   .     T
C251   O276    1.293   .     A
C251   O274    1.295   .     A
C252   O279    1.290   .     A
C252   C254    1.434   .     S
C252   O277    1.290   .     A
C253   O278    1.290   .     A
C253   C255    1.434   .     S
C253   O280    1.290   .     A
C254   C335    1.334   1_455 S
C254   H341    1.087   1_455 S
C255   C294    1.334   .     S
C255   H302    1.087   .     S
C256   H263    1.083   .     S
C257   H264    1.083   .     S
C257   C2      1.384   1_565 S
C258   H265    1.083   .     S
C258   C16     1.384   1_565 S
Cu259  Cu260   2.687   .     S
Cu259  O276    1.964   .     S
Cu259  O280    1.959   .     S
Cu259  N269    2.020   .     S
Cu259  O273    1.966   .     S
Cu259  O277    1.959   .     S
Cu260  O278    1.959   .     S
Cu260  N270    2.020   .     S
Cu260  O274    1.966   .     S
Cu260  O279    1.959   .     S
Cu260  O275    1.964   .     S
H261   C294    1.087   .     S
H262   C335    1.087   1_455 S
C281   C284    1.450   .     S
C281   O313    1.295   .     A
C281   O315    1.293   .     A
C282   C284    1.400   .     A
C282   H306    1.083   .     S
C283   C297    1.402   .     A
C283   C291    1.450   .     S
C283   C298    1.400   .     A
C284   C296    1.402   .     A
C285   N310    1.362   .     A
C285   H307    1.083   .     S
C285   C1007   1.418   1_554 S
C286   N309    1.362   .     A
C286   H308    1.083   .     S
C286   C648    1.418   .     S
C287   N309    1.377   .     A
C287   C289    1.438   .     S
C287   C645    1.418   .     S
C288   N310    1.377   .     A
C288   C290    1.438   .     S
C288   C1006   1.418   1_554 S
C289   N311    1.158   .     T
C290   N312    1.158   .     T
C291   O316    1.293   .     A
C291   O314    1.295   .     A
C292   O319    1.290   .     A
C292   C294    1.434   .     S
C292   O317    1.290   .     A
C293   O318    1.290   .     A
C293   C295    1.434   .     S
C293   O320    1.290   .     A
C295   C334    1.334   .     S
C295   H342    1.087   .     S
C296   H303    1.083   .     S
C297   H304    1.083   .     S
C297   C42     1.384   1_565 S
C298   H305    1.083   .     S
C298   C56     1.384   1_565 S
Cu299  Cu300   2.687   .     S
Cu299  O316    1.964   .     S
Cu299  O320    1.959   .     S
Cu299  N309    2.020   .     S
Cu299  O313    1.966   .     S
Cu299  O317    1.959   .     S
Cu300  O318    1.959   .     S
Cu300  N310    2.020   .     S
Cu300  O314    1.966   .     S
Cu300  O319    1.959   .     S
Cu300  O315    1.964   .     S
H301   C334    1.087   .     S
C321   C324    1.450   .     S
C321   O353    1.295   .     A
C321   O355    1.293   .     A
C322   C324    1.400   .     A
C322   H346    1.083   .     S
C323   C337    1.402   .     A
C323   C331    1.450   .     S
C323   C338    1.400   .     A
C324   C336    1.402   .     A
C325   N350    1.362   .     A
C325   H347    1.083   .     S
C325   C1047   1.418   1_554 S
C326   N349    1.362   .     A
C326   H348    1.083   .     S
C326   C688    1.418   .     S
C327   N349    1.377   .     A
C327   C329    1.438   .     S
C327   C685    1.418   .     S
C328   N350    1.377   .     A
C328   C330    1.438   .     S
C328   C1046   1.418   1_554 S
C329   N351    1.158   .     T
C330   N352    1.158   .     T
C331   O356    1.293   .     A
C331   O354    1.295   .     A
C332   O359    1.290   .     A
C332   C334    1.434   .     S
C332   O357    1.290   .     A
C333   O358    1.290   .     A
C333   C335    1.434   .     S
C333   O360    1.290   .     A
C335   C254    1.334   1_655 S
C335   H262    1.087   1_655 S
C336   H343    1.083   .     S
C337   H344    1.083   .     S
C337   C82     1.384   1_565 S
C338   H345    1.083   .     S
C338   C96     1.384   1_565 S
Cu339  Cu340   2.687   .     S
Cu339  O356    1.964   .     S
Cu339  O360    1.959   .     S
Cu339  N349    2.020   .     S
Cu339  O353    1.966   .     S
Cu339  O357    1.959   .     S
Cu340  O358    1.959   .     S
Cu340  N350    2.020   .     S
Cu340  O354    1.966   .     S
Cu340  O359    1.959   .     S
Cu340  O355    1.964   .     S
H341   C254    1.087   1_655 S
C361   C364    1.450   .     S
C361   O393    1.295   .     A
C361   O395    1.293   .     A
C362   C364    1.400   .     A
C362   H386    1.083   .     S
C362   C617    1.384   1_545 S
C363   C377    1.402   .     A
C363   C371    1.450   .     S
C363   C378    1.400   .     A
C364   C376    1.402   .     A
C365   N390    1.362   .     A
C365   H387    1.083   .     S
C366   N389    1.362   .     A
C366   H388    1.083   .     S
C366   C728    1.418   .     S
C367   N389    1.377   .     A
C367   C369    1.438   .     S
C367   C725    1.418   .     S
C368   N390    1.377   .     A
C368   C370    1.438   .     S
C369   N391    1.158   .     T
C370   N392    1.158   .     T
C371   O396    1.293   .     A
C371   O394    1.295   .     A
C372   O399    1.290   .     A
C372   C374    1.434   .     S
C372   O397    1.290   .     A
C373   O398    1.290   .     A
C373   C375    1.434   .     S
C373   O400    1.290   .     A
C374   C455    1.334   1_455 S
C374   H461    1.087   1_455 S
C375   C414    1.334   .     S
C375   H422    1.087   .     S
C376   H383    1.083   .     S
C376   C618    1.384   1_545 S
C377   H384    1.083   .     S
C377   C482    1.384   .     S
C378   H385    1.083   .     S
C378   C496    1.384   .     S
Cu379  Cu380   2.687   .     S
Cu379  O396    1.964   .     S
Cu379  O400    1.959   .     S
Cu379  N389    2.020   .     S
Cu379  O393    1.966   .     S
Cu379  O397    1.959   .     S
Cu380  O398    1.959   .     S
Cu380  N390    2.020   .     S
Cu380  O394    1.966   .     S
Cu380  O399    1.959   .     S
Cu380  O395    1.964   .     S
H381   C414    1.087   .     S
H382   C455    1.087   1_455 S
C401   C404    1.450   .     S
C401   O433    1.295   .     A
C401   O435    1.293   .     A
C402   C404    1.400   .     A
C402   H426    1.083   .     S
C402   C657    1.384   1_545 S
C403   C417    1.402   .     A
C403   C411    1.450   .     S
C403   C418    1.400   .     A
C404   C416    1.402   .     A
C405   N430    1.362   .     A
C405   H427    1.083   .     S
C406   N429    1.362   .     A
C406   H428    1.083   .     S
C406   C768    1.418   .     S
C407   N429    1.377   .     A
C407   C409    1.438   .     S
C407   C765    1.418   .     S
C408   N430    1.377   .     A
C408   C410    1.438   .     S
C409   N431    1.158   .     T
C410   N432    1.158   .     T
C411   O436    1.293   .     A
C411   O434    1.295   .     A
C412   O439    1.290   .     A
C412   C414    1.434   .     S
C412   O437    1.290   .     A
C413   O438    1.290   .     A
C413   C415    1.434   .     S
C413   O440    1.290   .     A
C415   C454    1.334   .     S
C415   H462    1.087   .     S
C416   H423    1.083   .     S
C416   C658    1.384   1_545 S
C417   H424    1.083   .     S
C417   C522    1.384   .     S
C418   H425    1.083   .     S
C418   C536    1.384   .     S
Cu419  Cu420   2.687   .     S
Cu419  O436    1.964   .     S
Cu419  O440    1.959   .     S
Cu419  N429    2.020   .     S
Cu419  O433    1.966   .     S
Cu419  O437    1.959   .     S
Cu420  O438    1.959   .     S
Cu420  N430    2.020   .     S
Cu420  O434    1.966   .     S
Cu420  O439    1.959   .     S
Cu420  O435    1.964   .     S
H421   C454    1.087   .     S
C441   C444    1.450   .     S
C441   O473    1.295   .     A
C441   O475    1.293   .     A
C442   C444    1.400   .     A
C442   H466    1.083   .     S
C442   C697    1.384   1_545 S
C443   C457    1.402   .     A
C443   C451    1.450   .     S
C443   C458    1.400   .     A
C444   C456    1.402   .     A
C445   N470    1.362   .     A
C445   H467    1.083   .     S
C446   N469    1.362   .     A
C446   H468    1.083   .     S
C446   C808    1.418   .     S
C447   N469    1.377   .     A
C447   C449    1.438   .     S
C447   C805    1.418   .     S
C448   N470    1.377   .     A
C448   C450    1.438   .     S
C449   N471    1.158   .     T
C450   N472    1.158   .     T
C451   O476    1.293   .     A
C451   O474    1.295   .     A
C452   O479    1.290   .     A
C452   C454    1.434   .     S
C452   O477    1.290   .     A
C453   O478    1.290   .     A
C453   C455    1.434   .     S
C453   O480    1.290   .     A
C455   C374    1.334   1_655 S
C455   H382    1.087   1_655 S
C456   H463    1.083   .     S
C456   C698    1.384   1_545 S
C457   H464    1.083   .     S
C457   C562    1.384   .     S
C458   H465    1.083   .     S
C458   C576    1.384   .     S
Cu459  Cu460   2.687   .     S
Cu459  O476    1.964   .     S
Cu459  O480    1.959   .     S
Cu459  N469    2.020   .     S
Cu459  O473    1.966   .     S
Cu459  O477    1.959   .     S
Cu460  O478    1.959   .     S
Cu460  N470    2.020   .     S
Cu460  O474    1.966   .     S
Cu460  O479    1.959   .     S
Cu460  O475    1.964   .     S
H461   C374    1.087   1_655 S
C481   C484    1.450   .     S
C481   O513    1.295   .     A
C481   O515    1.293   .     A
C482   C484    1.400   .     A
C482   H506    1.083   .     S
C483   C497    1.402   .     A
C483   C491    1.450   .     S
C483   C498    1.400   .     A
C484   C496    1.402   .     A
C485   N510    1.362   .     A
C485   H507    1.083   .     S
C486   N509    1.362   .     A
C486   H508    1.083   .     S
C486   C848    1.418   .     S
C487   N509    1.377   .     A
C487   C489    1.438   .     S
C487   C845    1.418   .     S
C488   N510    1.377   .     A
C488   C490    1.438   .     S
C489   N511    1.158   .     T
C490   N512    1.158   .     T
C491   O516    1.293   .     A
C491   O514    1.295   .     A
C492   O519    1.290   .     A
C492   C494    1.434   .     S
C492   O517    1.290   .     A
C493   O518    1.290   .     A
C493   C495    1.434   .     S
C493   O520    1.290   .     A
C494   C575    1.334   1_455 S
C494   H581    1.087   1_455 S
C495   C534    1.334   .     S
C495   H542    1.087   .     S
C496   H503    1.083   .     S
C497   H504    1.083   .     S
C497   C602    1.384   .     S
C498   H505    1.083   .     S
C498   C616    1.384   .     S
Cu499  Cu500   2.687   .     S
Cu499  O516    1.964   .     S
Cu499  O520    1.959   .     S
Cu499  N509    2.020   .     S
Cu499  O513    1.966   .     S
Cu499  O517    1.959   .     S
Cu500  O518    1.959   .     S
Cu500  N510    2.020   .     S
Cu500  O514    1.966   .     S
Cu500  O519    1.959   .     S
Cu500  O515    1.964   .     S
H501   C534    1.087   .     S
H502   C575    1.087   1_455 S
C521   C524    1.450   .     S
C521   O553    1.295   .     A
C521   O555    1.293   .     A
C522   C524    1.400   .     A
C522   H546    1.083   .     S
C523   C537    1.402   .     A
C523   C531    1.450   .     S
C523   C538    1.400   .     A
C524   C536    1.402   .     A
C525   N550    1.362   .     A
C525   H547    1.083   .     S
C526   N549    1.362   .     A
C526   H548    1.083   .     S
C526   C888    1.418   .     S
C527   N549    1.377   .     A
C527   C529    1.438   .     S
C527   C885    1.418   .     S
C528   N550    1.377   .     A
C528   C530    1.438   .     S
C529   N551    1.158   .     T
C530   N552    1.158   .     T
C531   O556    1.293   .     A
C531   O554    1.295   .     A
C532   O559    1.290   .     A
C532   C534    1.434   .     S
C532   O557    1.290   .     A
C533   O558    1.290   .     A
C533   C535    1.434   .     S
C533   O560    1.290   .     A
C535   C574    1.334   .     S
C535   H582    1.087   .     S
C536   H543    1.083   .     S
C537   H544    1.083   .     S
C537   C642    1.384   .     S
C538   H545    1.083   .     S
C538   C656    1.384   .     S
Cu539  Cu540   2.687   .     S
Cu539  O556    1.964   .     S
Cu539  O560    1.959   .     S
Cu539  N549    2.020   .     S
Cu539  O553    1.966   .     S
Cu539  O557    1.959   .     S
Cu540  O558    1.959   .     S
Cu540  N550    2.020   .     S
Cu540  O554    1.966   .     S
Cu540  O559    1.959   .     S
Cu540  O555    1.964   .     S
H541   C574    1.087   .     S
C561   C564    1.450   .     S
C561   O593    1.295   .     A
C561   O595    1.293   .     A
C562   C564    1.400   .     A
C562   H586    1.083   .     S
C563   C577    1.402   .     A
C563   C571    1.450   .     S
C563   C578    1.400   .     A
C564   C576    1.402   .     A
C565   N590    1.362   .     A
C565   H587    1.083   .     S
C566   N589    1.362   .     A
C566   H588    1.083   .     S
C566   C928    1.418   .     S
C567   N589    1.377   .     A
C567   C569    1.438   .     S
C567   C925    1.418   .     S
C568   N590    1.377   .     A
C568   C570    1.438   .     S
C569   N591    1.158   .     T
C570   N592    1.158   .     T
C571   O596    1.293   .     A
C571   O594    1.295   .     A
C572   O599    1.290   .     A
C572   C574    1.434   .     S
C572   O597    1.290   .     A
C573   O598    1.290   .     A
C573   C575    1.434   .     S
C573   O600    1.290   .     A
C575   C494    1.334   1_655 S
C575   H502    1.087   1_655 S
C576   H583    1.083   .     S
C577   H584    1.083   .     S
C577   C682    1.384   .     S
C578   H585    1.083   .     S
C578   C696    1.384   .     S
Cu579  Cu580   2.687   .     S
Cu579  O596    1.964   .     S
Cu579  O600    1.959   .     S
Cu579  N589    2.020   .     S
Cu579  O593    1.966   .     S
Cu579  O597    1.959   .     S
Cu580  O598    1.959   .     S
Cu580  N590    2.020   .     S
Cu580  O594    1.966   .     S
Cu580  O599    1.959   .     S
Cu580  O595    1.964   .     S
H581   C494    1.087   1_655 S
C601   C604    1.450   .     S
C601   O633    1.295   .     A
C601   O635    1.293   .     A
C602   C604    1.400   .     A
C602   H626    1.083   .     S
C603   C617    1.402   .     A
C603   C611    1.450   .     S
C603   C618    1.400   .     A
C604   C616    1.402   .     A
C605   N630    1.362   .     A
C605   H627    1.083   .     S
C606   N629    1.362   .     A
C606   H628    1.083   .     S
C606   C968    1.418   .     S
C607   N629    1.377   .     A
C607   C609    1.438   .     S
C607   C965    1.418   .     S
C608   N630    1.377   .     A
C608   C610    1.438   .     S
C609   N631    1.158   .     T
C610   N632    1.158   .     T
C611   O636    1.293   .     A
C611   O634    1.295   .     A
C612   O639    1.290   .     A
C612   C614    1.434   .     S
C612   O637    1.290   .     A
C613   O638    1.290   .     A
C613   C615    1.434   .     S
C613   O640    1.290   .     A
C614   C695    1.334   1_455 S
C614   H701    1.087   1_455 S
C615   C654    1.334   .     S
C615   H662    1.087   .     S
C616   H623    1.083   .     S
C617   H624    1.083   .     S
C617   C362    1.384   1_565 S
C618   H625    1.083   .     S
C618   C376    1.384   1_565 S
Cu619  Cu620   2.687   .     S
Cu619  O636    1.964   .     S
Cu619  O640    1.959   .     S
Cu619  N629    2.020   .     S
Cu619  O633    1.966   .     S
Cu619  O637    1.959   .     S
Cu620  O638    1.959   .     S
Cu620  N630    2.020   .     S
Cu620  O634    1.966   .     S
Cu620  O639    1.959   .     S
Cu620  O635    1.964   .     S
H621   C654    1.087   .     S
H622   C695    1.087   1_455 S
C641   C644    1.450   .     S
C641   O673    1.295   .     A
C641   O675    1.293   .     A
C642   C644    1.400   .     A
C642   H666    1.083   .     S
C643   C657    1.402   .     A
C643   C651    1.450   .     S
C643   C658    1.400   .     A
C644   C656    1.402   .     A
C645   N670    1.362   .     A
C645   H667    1.083   .     S
C646   N669    1.362   .     A
C646   H668    1.083   .     S
C646   C1008   1.418   .     S
C647   N669    1.377   .     A
C647   C649    1.438   .     S
C647   C1005   1.418   .     S
C648   N670    1.377   .     A
C648   C650    1.438   .     S
C649   N671    1.158   .     T
C650   N672    1.158   .     T
C651   O676    1.293   .     A
C651   O674    1.295   .     A
C652   O679    1.290   .     A
C652   C654    1.434   .     S
C652   O677    1.290   .     A
C653   O678    1.290   .     A
C653   C655    1.434   .     S
C653   O680    1.290   .     A
C655   C694    1.334   .     S
C655   H702    1.087   .     S
C656   H663    1.083   .     S
C657   H664    1.083   .     S
C657   C402    1.384   1_565 S
C658   H665    1.083   .     S
C658   C416    1.384   1_565 S
Cu659  Cu660   2.687   .     S
Cu659  O676    1.964   .     S
Cu659  O680    1.959   .     S
Cu659  N669    2.020   .     S
Cu659  O673    1.966   .     S
Cu659  O677    1.959   .     S
Cu660  O678    1.959   .     S
Cu660  N670    2.020   .     S
Cu660  O674    1.966   .     S
Cu660  O679    1.959   .     S
Cu660  O675    1.964   .     S
H661   C694    1.087   .     S
C681   C684    1.450   .     S
C681   O713    1.295   .     A
C681   O715    1.293   .     A
C682   C684    1.400   .     A
C682   H706    1.083   .     S
C683   C697    1.402   .     A
C683   C691    1.450   .     S
C683   C698    1.400   .     A
C684   C696    1.402   .     A
C685   N710    1.362   .     A
C685   H707    1.083   .     S
C686   N709    1.362   .     A
C686   H708    1.083   .     S
C686   C1048   1.418   .     S
C687   N709    1.377   .     A
C687   C689    1.438   .     S
C687   C1045   1.418   .     S
C688   N710    1.377   .     A
C688   C690    1.438   .     S
C689   N711    1.158   .     T
C690   N712    1.158   .     T
C691   O716    1.293   .     A
C691   O714    1.295   .     A
C692   O719    1.290   .     A
C692   C694    1.434   .     S
C692   O717    1.290   .     A
C693   O718    1.290   .     A
C693   C695    1.434   .     S
C693   O720    1.290   .     A
C695   C614    1.334   1_655 S
C695   H622    1.087   1_655 S
C696   H703    1.083   .     S
C697   H704    1.083   .     S
C697   C442    1.384   1_565 S
C698   H705    1.083   .     S
C698   C456    1.384   1_565 S
Cu699  Cu700   2.687   .     S
Cu699  O716    1.964   .     S
Cu699  O720    1.959   .     S
Cu699  N709    2.020   .     S
Cu699  O713    1.966   .     S
Cu699  O717    1.959   .     S
Cu700  O718    1.959   .     S
Cu700  N710    2.020   .     S
Cu700  O714    1.966   .     S
Cu700  O719    1.959   .     S
Cu700  O715    1.964   .     S
H701   C614    1.087   1_655 S
C721   C724    1.450   .     S
C721   O753    1.295   .     A
C721   O755    1.293   .     A
C722   C724    1.400   .     A
C722   H746    1.083   .     S
C722   C977    1.384   1_545 S
C723   C737    1.402   .     A
C723   C731    1.450   .     S
C723   C738    1.400   .     A
C724   C736    1.402   .     A
C725   N750    1.362   .     A
C725   H747    1.083   .     S
C726   N749    1.362   .     A
C726   H748    1.083   .     S
C726   C8      1.418   1_556 S
C727   N749    1.377   .     A
C727   C729    1.438   .     S
C727   C5      1.418   1_556 S
C728   N750    1.377   .     A
C728   C730    1.438   .     S
C729   N751    1.158   .     T
C730   N752    1.158   .     T
C731   O756    1.293   .     A
C731   O754    1.295   .     A
C732   O759    1.290   .     A
C732   C734    1.434   .     S
C732   O757    1.290   .     A
C733   O758    1.290   .     A
C733   C735    1.434   .     S
C733   O760    1.290   .     A
C734   C815    1.334   1_455 S
C734   H821    1.087   1_455 S
C735   C774    1.334   .     S
C735   H782    1.087   .     S
C736   H743    1.083   .     S
C736   C978    1.384   1_545 S
C737   H744    1.083   .     S
C737   C842    1.384   .     S
C738   H745    1.083   .     S
C738   C856    1.384   .     S
Cu739  Cu740   2.687   .     S
Cu739  O756    1.964   .     S
Cu739  O760    1.959   .     S
Cu739  N749    2.020   .     S
Cu739  O753    1.966   .     S
Cu739  O757    1.959   .     S
Cu740  O758    1.959   .     S
Cu740  N750    2.020   .     S
Cu740  O754    1.966   .     S
Cu740  O759    1.959   .     S
Cu740  O755    1.964   .     S
H741   C774    1.087   .     S
H742   C815    1.087   1_455 S
C761   C764    1.450   .     S
C761   O793    1.295   .     A
C761   O795    1.293   .     A
C762   C764    1.400   .     A
C762   H786    1.083   .     S
C762   C1017   1.384   1_545 S
C763   C777    1.402   .     A
C763   C771    1.450   .     S
C763   C778    1.400   .     A
C764   C776    1.402   .     A
C765   N790    1.362   .     A
C765   H787    1.083   .     S
C766   N789    1.362   .     A
C766   H788    1.083   .     S
C766   C48     1.418   1_556 S
C767   N789    1.377   .     A
C767   C769    1.438   .     S
C767   C45     1.418   1_556 S
C768   N790    1.377   .     A
C768   C770    1.438   .     S
C769   N791    1.158   .     T
C770   N792    1.158   .     T
C771   O796    1.293   .     A
C771   O794    1.295   .     A
C772   O799    1.290   .     A
C772   C774    1.434   .     S
C772   O797    1.290   .     A
C773   O798    1.290   .     A
C773   C775    1.434   .     S
C773   O800    1.290   .     A
C775   C814    1.334   .     S
C775   H822    1.087   .     S
C776   H783    1.083   .     S
C776   C1018   1.384   1_545 S
C777   H784    1.083   .     S
C777   C882    1.384   .     S
C778   H785    1.083   .     S
C778   C896    1.384   .     S
Cu779  Cu780   2.687   .     S
Cu779  O796    1.964   .     S
Cu779  O800    1.959   .     S
Cu779  N789    2.020   .     S
Cu779  O793    1.966   .     S
Cu779  O797    1.959   .     S
Cu780  O798    1.959   .     S
Cu780  N790    2.020   .     S
Cu780  O794    1.966   .     S
Cu780  O799    1.959   .     S
Cu780  O795    1.964   .     S
H781   C814    1.087   .     S
C801   C804    1.450   .     S
C801   O833    1.295   .     A
C801   O835    1.293   .     A
C802   C804    1.400   .     A
C802   H826    1.083   .     S
C802   C1057   1.384   1_545 S
C803   C817    1.402   .     A
C803   C811    1.450   .     S
C803   C818    1.400   .     A
C804   C816    1.402   .     A
C805   N830    1.362   .     A
C805   H827    1.083   .     S
C806   N829    1.362   .     A
C806   H828    1.083   .     S
C806   C88     1.418   1_556 S
C807   N829    1.377   .     A
C807   C809    1.438   .     S
C807   C85     1.418   1_556 S
C808   N830    1.377   .     A
C808   C810    1.438   .     S
C809   N831    1.158   .     T
C810   N832    1.158   .     T
C811   O836    1.293   .     A
C811   O834    1.295   .     A
C812   O839    1.290   .     A
C812   C814    1.434   .     S
C812   O837    1.290   .     A
C813   O838    1.290   .     A
C813   C815    1.434   .     S
C813   O840    1.290   .     A
C815   C734    1.334   1_655 S
C815   H742    1.087   1_655 S
C816   H823    1.083   .     S
C816   C1058   1.384   1_545 S
C817   H824    1.083   .     S
C817   C922    1.384   .     S
C818   H825    1.083   .     S
C818   C936    1.384   .     S
Cu819  Cu820   2.687   .     S
Cu819  O836    1.964   .     S
Cu819  O840    1.959   .     S
Cu819  N829    2.020   .     S
Cu819  O833    1.966   .     S
Cu819  O837    1.959   .     S
Cu820  O838    1.959   .     S
Cu820  N830    2.020   .     S
Cu820  O834    1.966   .     S
Cu820  O839    1.959   .     S
Cu820  O835    1.964   .     S
H821   C734    1.087   1_655 S
C841   C844    1.450   .     S
C841   O873    1.295   .     A
C841   O875    1.293   .     A
C842   C844    1.400   .     A
C842   H866    1.083   .     S
C843   C857    1.402   .     A
C843   C851    1.450   .     S
C843   C858    1.400   .     A
C844   C856    1.402   .     A
C845   N870    1.362   .     A
C845   H867    1.083   .     S
C846   N869    1.362   .     A
C846   H868    1.083   .     S
C846   C128    1.418   1_556 S
C847   N869    1.377   .     A
C847   C849    1.438   .     S
C847   C125    1.418   1_556 S
C848   N870    1.377   .     A
C848   C850    1.438   .     S
C849   N871    1.158   .     T
C850   N872    1.158   .     T
C851   O876    1.293   .     A
C851   O874    1.295   .     A
C852   O879    1.290   .     A
C852   C854    1.434   .     S
C852   O877    1.290   .     A
C853   O878    1.290   .     A
C853   C855    1.434   .     S
C853   O880    1.290   .     A
C854   C935    1.334   1_455 S
C854   H941    1.087   1_455 S
C855   C894    1.334   .     S
C855   H902    1.087   .     S
C856   H863    1.083   .     S
C857   H864    1.083   .     S
C857   C962    1.384   .     S
C858   H865    1.083   .     S
C858   C976    1.384   .     S
Cu859  Cu860   2.687   .     S
Cu859  O876    1.964   .     S
Cu859  O880    1.959   .     S
Cu859  N869    2.020   .     S
Cu859  O873    1.966   .     S
Cu859  O877    1.959   .     S
Cu860  O878    1.959   .     S
Cu860  N870    2.020   .     S
Cu860  O874    1.966   .     S
Cu860  O879    1.959   .     S
Cu860  O875    1.964   .     S
H861   C894    1.087   .     S
H862   C935    1.087   1_455 S
C881   C884    1.450   .     S
C881   O913    1.295   .     A
C881   O915    1.293   .     A
C882   C884    1.400   .     A
C882   H906    1.083   .     S
C883   C897    1.402   .     A
C883   C891    1.450   .     S
C883   C898    1.400   .     A
C884   C896    1.402   .     A
C885   N910    1.362   .     A
C885   H907    1.083   .     S
C886   N909    1.362   .     A
C886   H908    1.083   .     S
C886   C168    1.418   1_556 S
C887   N909    1.377   .     A
C887   C889    1.438   .     S
C887   C165    1.418   1_556 S
C888   N910    1.377   .     A
C888   C890    1.438   .     S
C889   N911    1.158   .     T
C890   N912    1.158   .     T
C891   O916    1.293   .     A
C891   O914    1.295   .     A
C892   O919    1.290   .     A
C892   C894    1.434   .     S
C892   O917    1.290   .     A
C893   O918    1.290   .     A
C893   C895    1.434   .     S
C893   O920    1.290   .     A
C895   C934    1.334   .     S
C895   H942    1.087   .     S
C896   H903    1.083   .     S
C897   H904    1.083   .     S
C897   C1002   1.384   .     S
C898   H905    1.083   .     S
C898   C1016   1.384   .     S
Cu899  Cu900   2.687   .     S
Cu899  O916    1.964   .     S
Cu899  O920    1.959   .     S
Cu899  N909    2.020   .     S
Cu899  O913    1.966   .     S
Cu899  O917    1.959   .     S
Cu900  O918    1.959   .     S
Cu900  N910    2.020   .     S
Cu900  O914    1.966   .     S
Cu900  O919    1.959   .     S
Cu900  O915    1.964   .     S
H901   C934    1.087   .     S
C921   C924    1.450   .     S
C921   O953    1.295   .     A
C921   O955    1.293   .     A
C922   C924    1.400   .     A
C922   H946    1.083   .     S
C923   C937    1.402   .     A
C923   C931    1.450   .     S
C923   C938    1.400   .     A
C924   C936    1.402   .     A
C925   N950    1.362   .     A
C925   H947    1.083   .     S
C926   N949    1.362   .     A
C926   H948    1.083   .     S
C926   C208    1.418   1_556 S
C927   N949    1.377   .     A
C927   C929    1.438   .     S
C927   C205    1.418   1_556 S
C928   N950    1.377   .     A
C928   C930    1.438   .     S
C929   N951    1.158   .     T
C930   N952    1.158   .     T
C931   O956    1.293   .     A
C931   O954    1.295   .     A
C932   O959    1.290   .     A
C932   C934    1.434   .     S
C932   O957    1.290   .     A
C933   O958    1.290   .     A
C933   C935    1.434   .     S
C933   O960    1.290   .     A
C935   C854    1.334   1_655 S
C935   H862    1.087   1_655 S
C936   H943    1.083   .     S
C937   H944    1.083   .     S
C937   C1042   1.384   .     S
C938   H945    1.083   .     S
C938   C1056   1.384   .     S
Cu939  Cu940   2.687   .     S
Cu939  O956    1.964   .     S
Cu939  O960    1.959   .     S
Cu939  N949    2.020   .     S
Cu939  O953    1.966   .     S
Cu939  O957    1.959   .     S
Cu940  O958    1.959   .     S
Cu940  N950    2.020   .     S
Cu940  O954    1.966   .     S
Cu940  O959    1.959   .     S
Cu940  O955    1.964   .     S
H941   C854    1.087   1_655 S
C961   C964    1.450   .     S
C961   O993    1.295   .     A
C961   O995    1.293   .     A
C962   C964    1.400   .     A
C962   H986    1.083   .     S
C963   C977    1.402   .     A
C963   C971    1.450   .     S
C963   C978    1.400   .     A
C964   C976    1.402   .     A
C965   N990    1.362   .     A
C965   H987    1.083   .     S
C966   N989    1.362   .     A
C966   H988    1.083   .     S
C966   C248    1.418   1_556 S
C967   N989    1.377   .     A
C967   C969    1.438   .     S
C967   C245    1.418   1_556 S
C968   N990    1.377   .     A
C968   C970    1.438   .     S
C969   N991    1.158   .     T
C970   N992    1.158   .     T
C971   O996    1.293   .     A
C971   O994    1.295   .     A
C972   O999    1.290   .     A
C972   C974    1.434   .     S
C972   O997    1.290   .     A
C973   O998    1.290   .     A
C973   C975    1.434   .     S
C973   O1000   1.290   .     A
C974   C1055   1.334   1_455 S
C974   H1061   1.087   1_455 S
C975   C1014   1.334   .     S
C975   H1022   1.087   .     S
C976   H983    1.083   .     S
C977   H984    1.083   .     S
C977   C722    1.384   1_565 S
C978   H985    1.083   .     S
C978   C736    1.384   1_565 S
Cu979  Cu980   2.687   .     S
Cu979  O996    1.964   .     S
Cu979  O1000   1.959   .     S
Cu979  N989    2.020   .     S
Cu979  O993    1.966   .     S
Cu979  O997    1.959   .     S
Cu980  O998    1.959   .     S
Cu980  N990    2.020   .     S
Cu980  O994    1.966   .     S
Cu980  O999    1.959   .     S
Cu980  O995    1.964   .     S
H981   C1014   1.087   .     S
H982   C1055   1.087   1_455 S
C1001  C1004   1.450   .     S
C1001  O1033   1.295   .     A
C1001  O1035   1.293   .     A
C1002  C1004   1.400   .     A
C1002  H1026   1.083   .     S
C1003  C1017   1.402   .     A
C1003  C1011   1.450   .     S
C1003  C1018   1.400   .     A
C1004  C1016   1.402   .     A
C1005  N1030   1.362   .     A
C1005  H1027   1.083   .     S
C1006  N1029   1.362   .     A
C1006  H1028   1.083   .     S
C1006  C288    1.418   1_556 S
C1007  N1029   1.377   .     A
C1007  C1009   1.438   .     S
C1007  C285    1.418   1_556 S
C1008  N1030   1.377   .     A
C1008  C1010   1.438   .     S
C1009  N1031   1.158   .     T
C1010  N1032   1.158   .     T
C1011  O1036   1.293   .     A
C1011  O1034   1.295   .     A
C1012  O1039   1.290   .     A
C1012  C1014   1.434   .     S
C1012  O1037   1.290   .     A
C1013  O1038   1.290   .     A
C1013  C1015   1.434   .     S
C1013  O1040   1.290   .     A
C1015  C1054   1.334   .     S
C1015  H1062   1.087   .     S
C1016  H1023   1.083   .     S
C1017  H1024   1.083   .     S
C1017  C762    1.384   1_565 S
C1018  H1025   1.083   .     S
C1018  C776    1.384   1_565 S
Cu1019 Cu1020  2.687   .     S
Cu1019 O1036   1.964   .     S
Cu1019 O1040   1.959   .     S
Cu1019 N1029   2.020   .     S
Cu1019 O1033   1.966   .     S
Cu1019 O1037   1.959   .     S
Cu1020 O1038   1.959   .     S
Cu1020 N1030   2.020   .     S
Cu1020 O1034   1.966   .     S
Cu1020 O1039   1.959   .     S
Cu1020 O1035   1.964   .     S
H1021  C1054   1.087   .     S
C1041  C1044   1.450   .     S
C1041  O1073   1.295   .     A
C1041  O1075   1.293   .     A
C1042  C1044   1.400   .     A
C1042  H1066   1.083   .     S
C1043  C1057   1.402   .     A
C1043  C1051   1.450   .     S
C1043  C1058   1.400   .     A
C1044  C1056   1.402   .     A
C1045  N1070   1.362   .     A
C1045  H1067   1.083   .     S
C1046  N1069   1.362   .     A
C1046  H1068   1.083   .     S
C1046  C328    1.418   1_556 S
C1047  N1069   1.377   .     A
C1047  C1049   1.438   .     S
C1047  C325    1.418   1_556 S
C1048  N1070   1.377   .     A
C1048  C1050   1.438   .     S
C1049  N1071   1.158   .     T
C1050  N1072   1.158   .     T
C1051  O1076   1.293   .     A
C1051  O1074   1.295   .     A
C1052  O1079   1.290   .     A
C1052  C1054   1.434   .     S
C1052  O1077   1.290   .     A
C1053  O1078   1.290   .     A
C1053  C1055   1.434   .     S
C1053  O1080   1.290   .     A
C1055  C974    1.334   1_655 S
C1055  H982    1.087   1_655 S
C1056  H1063   1.083   .     S
C1057  H1064   1.083   .     S
C1057  C802    1.384   1_565 S
C1058  H1065   1.083   .     S
C1058  C816    1.384   1_565 S
Cu1059 Cu1060  2.687   .     S
Cu1059 O1076   1.964   .     S
Cu1059 O1080   1.959   .     S
Cu1059 N1069   2.020   .     S
Cu1059 O1073   1.966   .     S
Cu1059 O1077   1.959   .     S
Cu1060 O1078   1.959   .     S
Cu1060 N1070   2.020   .     S
Cu1060 O1074   1.966   .     S
Cu1060 O1079   1.959   .     S
Cu1060 O1075   1.964   .     S
H1061  C974    1.087   1_655 S
