data_str_m3_o1_o1_pcu_sym.46
_audit_creation_date              2020-01-03
_audit_creation_method            'Materials Studio'
_symmetry_space_group_name_H-M    'P1'
_symmetry_Int_Tables_number       1
_symmetry_cell_setting            triclinic
loop_
_symmetry_equiv_pos_as_xyz
  x,y,z
_cell_length_a                    29.4913
_cell_length_b                    30.3006
_cell_length_c                    29.2956
_cell_angle_alpha                 89.5925
_cell_angle_beta                  88.7676
_cell_angle_gamma                 89.3884
loop_
_atom_site_label
_atom_site_type_symbol
_atom_site_fract_x
_atom_site_fract_y
_atom_site_fract_z
_atom_site_U_iso_or_equiv
_atom_site_adp_type
_atom_site_occupancy
C1     C     0.05723   0.18606   0.16660   0.00000  Uiso   1.00
C2     C     0.47851   0.21756   0.30996   0.00000  Uiso   1.00
C3     C     0.47816   0.21782   0.02463   0.00000  Uiso   1.00
C4     C     0.02179   0.28233   0.30862   0.00000  Uiso   1.00
C5     C     0.23245   0.03505   0.02414   0.00000  Uiso   1.00
C6     C     0.26725   0.46481   0.30919   0.00000  Uiso   1.00
C7     C     0.26745   0.46491   0.02393   0.00000  Uiso   1.00
C8     C     0.23177   0.03472   0.30945   0.00000  Uiso   1.00
C9     C     0.36939   0.16564   0.12745   0.00000  Uiso   1.00
C10    C     0.08739   0.37927   0.18946   0.00000  Uiso   1.00
C11    C     0.13740   0.33107   0.14205   0.00000  Uiso   1.00
C12    C     0.43843   0.31047   0.16697   0.00000  Uiso   1.00
C13    C     0.37318   0.15904   0.20959   0.00000  Uiso   1.00
C14    C     0.08684   0.11927   0.20971   0.00000  Uiso   1.00
C15    C     0.39568   0.36854   0.12453   0.00000  Uiso   1.00
C16    C     0.39861   0.37235   0.20925   0.00000  Uiso   1.00
C17    C     0.09161   0.11976   0.12495   0.00000  Uiso   1.00
C18    C     0.17051   0.36409   0.14180   0.00000  Uiso   1.00
C19    C     0.35547   0.11654   0.20856   0.00000  Uiso   1.00
C20    C     0.35020   0.12351   0.12438   0.00000  Uiso   1.00
C21    C     0.12510   0.40262   0.20116   0.00000  Uiso   1.00
C22    C     0.38032   0.41522   0.20665   0.00000  Uiso   1.00
C23    C     0.43309   0.19922   0.16724   0.00000  Uiso   1.00
C24    C     0.11581   0.07969   0.12756   0.00000  Uiso   1.00
C25    C     0.11532   0.08162   0.20962   0.00000  Uiso   1.00
C26    C     0.37836   0.41156   0.12414   0.00000  Uiso   1.00
C27    C     0.09529   0.34080   0.16427   0.00000  Uiso   1.00
C28    C     0.38930   0.17716   0.16852   0.00000  Uiso   1.00
C29    C     0.40813   0.34935   0.16730   0.00000  Uiso   1.00
C30    C     0.08021   0.14229   0.16697   0.00000  Uiso   1.00
C31    C     0.34151   0.09920   0.16585   0.00000  Uiso   1.00
C32    C     0.16249   0.40094   0.17035   0.00000  Uiso   1.00
C33    C     0.13763   0.07037   0.16841   0.00000  Uiso   1.00
C34    C     0.06093   0.30897   0.16598   0.00000  Uiso   1.00
C35    C     0.36171   0.42880   0.16531   0.00000  Uiso   1.00
C36    C     0.36629   0.20002   0.08927   0.00000  Uiso   1.00
C37    C     0.31703   0.21204   0.07907   0.00000  Uiso   1.00
C38    C     0.03969   0.39588   0.20239   0.00000  Uiso   1.00
C39    C     0.01242   0.40677   0.15987   0.00000  Uiso   1.00
C40    C     0.14714   0.28545   0.12155   0.00000  Uiso   1.00
C41    C     0.15935   0.25206   0.15872   0.00000  Uiso   1.00
C42    C     0.37011   0.18678   0.25281   0.00000  Uiso   1.00
C43    C     0.32150   0.20319   0.26147   0.00000  Uiso   1.00
C44    C     0.06556   0.13424   0.25552   0.00000  Uiso   1.00
C45    C     0.31742   0.45060   0.16617   0.00000  Uiso   1.00
C46    C     0.09659   0.16589   0.28040   0.00000  Uiso   1.00
C47    C     0.39005   0.34106   0.08151   0.00000  Uiso   1.00
C48    C     0.42935   0.34537   0.04681   0.00000  Uiso   1.00
C49    C     0.40206   0.35047   0.25642   0.00000  Uiso   1.00
C50    C     0.36891   0.31226   0.26173   0.00000  Uiso   1.00
C51    C     0.08031   0.13706   0.07740   0.00000  Uiso   1.00
C52    C     0.03150   0.12624   0.06521   0.00000  Uiso   1.00
C53    C     0.21553   0.35823   0.11569   0.00000  Uiso   1.00
C54    C     0.21021   0.36729   0.06465   0.00000  Uiso   1.00
C55    C     0.36252   0.08735   0.25050   0.00000  Uiso   1.00
C56    C     0.18270   0.04984   0.16724   0.00000  Uiso   1.00
C57    C     0.32426   0.09116   0.28631   0.00000  Uiso   1.00
C58    C     0.34589   0.10322   0.07705   0.00000  Uiso   1.00
C59    C     0.38017   0.06553   0.07022   0.00000  Uiso   1.00
C60    C     0.12829   0.41979   0.24977   0.00000  Uiso   1.00
C61    C     0.16163   0.39208   0.27753   0.00000  Uiso   1.00
C62    C     0.38156   0.44769   0.24620   0.00000  Uiso   1.00
C63    C     0.43015   0.45822   0.25937   0.00000  Uiso   1.00
C64    C     0.11402   0.04423   0.09047   0.00000  Uiso   1.00
C65    C     0.09391   0.00144   0.10955   0.00000  Uiso   1.00
C66    C     0.11557   0.04964   0.25012   0.00000  Uiso   1.00
C67    C     0.19155   0.43825   0.16752   0.00000  Uiso   1.00
C68    C     0.07263   0.02159   0.25088   0.00000  Uiso   1.00
C69    C     0.38152   0.44059   0.08150   0.00000  Uiso   1.00
C70    C     0.42997   0.45709   0.07414   0.00000  Uiso   1.00
C71    C     0.31127   0.06061   0.16623   0.00000  Uiso   1.00
C72    C     0.02217   0.28207   0.02335   0.00000  Uiso   1.00
H73    H     0.03968   0.30780   0.04102   0.00000  Uiso   1.00
H74    H     0.31623   0.23860   0.05277   0.00000  Uiso   1.00
H75    H     0.29849   0.18326   0.06598   0.00000  Uiso   1.00
H76    H     0.38238   0.23119   0.09942   0.00000  Uiso   1.00
H77    H     0.38447   0.18917   0.05781   0.00000  Uiso   1.00
H78    H     0.03089   0.43090   0.13795   0.00000  Uiso   1.00
H79    H     0.00607   0.37681   0.13963   0.00000  Uiso   1.00
H80    H     0.47918   0.42150   0.17008   0.00000  Uiso   1.00
H81    H     0.02126   0.37158   0.22412   0.00000  Uiso   1.00
H82    H     0.04065   0.42692   0.22207   0.00000  Uiso   1.00
H83    H     0.13157   0.24937   0.18470   0.00000  Uiso   1.00
H84    H     0.46198   0.19125   0.29233   0.00000  Uiso   1.00
H85    H     0.16521   0.21907   0.14327   0.00000  Uiso   1.00
H86    H     0.19080   0.26226   0.17580   0.00000  Uiso   1.00
H87    H     0.11811   0.27330   0.10214   0.00000  Uiso   1.00
H88    H     0.17503   0.28546   0.09580   0.00000  Uiso   1.00
H89    H     0.31151   0.22644   0.23387   0.00000  Uiso   1.00
H90    H     0.29707   0.17569   0.26247   0.00000  Uiso   1.00
H91    H     0.31931   0.22081   0.29457   0.00000  Uiso   1.00
H92    H     0.38270   0.16842   0.28288   0.00000  Uiso   1.00
H93    H     0.39081   0.21683   0.25019   0.00000  Uiso   1.00
H94    H     0.10861   0.19300   0.25771   0.00000  Uiso   1.00
H95    H     0.46107   0.19184   0.04319   0.00000  Uiso   1.00
H96    H     0.07806   0.18051   0.31010   0.00000  Uiso   1.00
H97    H     0.12678   0.14772   0.29300   0.00000  Uiso   1.00
H98    H     0.03073   0.14750   0.25175   0.00000  Uiso   1.00
H99    H     0.05826   0.10675   0.27931   0.00000  Uiso   1.00
H100   H     0.46244   0.34781   0.06383   0.00000  Uiso   1.00
H101   H     0.43005   0.31617   0.02416   0.00000  Uiso   1.00
H102   H     0.42492   0.37492   0.02491   0.00000  Uiso   1.00
H103   H     0.38486   0.30595   0.09056   0.00000  Uiso   1.00
H104   H     0.35788   0.35028   0.06462   0.00000  Uiso   1.00
H105   H     0.37176   0.28928   0.23257   0.00000  Uiso   1.00
H106   H     0.03895   0.30836   0.28997   0.00000  Uiso   1.00
H107   H     0.37572   0.29376   0.29376   0.00000  Uiso   1.00
H108   H     0.33356   0.32528   0.26345   0.00000  Uiso   1.00
H109   H     0.43729   0.34063   0.26436   0.00000  Uiso   1.00
H110   H     0.39310   0.37298   0.28462   0.00000  Uiso   1.00
H111   H     0.00695   0.14280   0.08869   0.00000  Uiso   1.00
H112   H     0.02508   0.13696   0.02964   0.00000  Uiso   1.00
H113   H     0.02536   0.09025   0.06763   0.00000  Uiso   1.00
H114   H     0.08798   0.17247   0.07279   0.00000  Uiso   1.00
H115   H     0.10351   0.12264   0.05103   0.00000  Uiso   1.00
H116   H     0.18468   0.34537   0.04969   0.00000  Uiso   1.00
H117   H     0.21910   0.06337   0.04239   0.00000  Uiso   1.00
H118   H     0.19925   0.40198   0.05889   0.00000  Uiso   1.00
H119   H     0.24321   0.36168   0.04654   0.00000  Uiso   1.00
H120   H     0.24212   0.38020   0.12862   0.00000  Uiso   1.00
H121   H     0.22998   0.32475   0.12141   0.00000  Uiso   1.00
H122   H     0.29089   0.09592   0.27024   0.00000  Uiso   1.00
H123   H     0.32356   0.06078   0.30765   0.00000  Uiso   1.00
H124   H     0.32969   0.11940   0.30912   0.00000  Uiso   1.00
H125   H     0.36736   0.05260   0.24020   0.00000  Uiso   1.00
H126   H     0.39520   0.09527   0.26665   0.00000  Uiso   1.00
H127   H     0.37930   0.04219   0.09946   0.00000  Uiso   1.00
H128   H     0.28052   0.43649   0.29090   0.00000  Uiso   1.00
H129   H     0.37278   0.04730   0.03857   0.00000  Uiso   1.00
H130   H     0.41499   0.07904   0.06709   0.00000  Uiso   1.00
H131   H     0.31075   0.09324   0.07003   0.00000  Uiso   1.00
H132   H     0.35330   0.12683   0.04924   0.00000  Uiso   1.00
H133   H     0.14965   0.35751   0.28037   0.00000  Uiso   1.00
H134   H     0.19612   0.39193   0.26166   0.00000  Uiso   1.00
H135   H     0.16379   0.40592   0.31239   0.00000  Uiso   1.00
H136   H     0.13794   0.45466   0.25010   0.00000  Uiso   1.00
H137   H     0.09545   0.41795   0.26875   0.00000  Uiso   1.00
H138   H     0.44885   0.47288   0.22974   0.00000  Uiso   1.00
H139   H     0.28137   0.43690   0.04210   0.00000  Uiso   1.00
H140   H     0.42944   0.48258   0.28752   0.00000  Uiso   1.00
H141   H     0.44865   0.42831   0.27105   0.00000  Uiso   1.00
H142   H     0.36598   0.47958   0.23630   0.00000  Uiso   1.00
H143   H     0.36153   0.43592   0.27622   0.00000  Uiso   1.00
H144   H     0.11486   0.48772   0.13733   0.00000  Uiso   1.00
H145   H     0.05899   0.00776   0.12312   0.00000  Uiso   1.00
H146   H     0.09242   0.47651   0.08203   0.00000  Uiso   1.00
H147   H     0.09247   0.05366   0.06158   0.00000  Uiso   1.00
H148   H     0.14773   0.03737   0.07490   0.00000  Uiso   1.00
H149   H     0.07276   0.00008   0.22035   0.00000  Uiso   1.00
H150   H     0.21741   0.06256   0.29133   0.00000  Uiso   1.00
H151   H     0.07171   0.00058   0.28207   0.00000  Uiso   1.00
H152   H     0.04120   0.04195   0.25042   0.00000  Uiso   1.00
H153   H     0.14416   0.02623   0.24889   0.00000  Uiso   1.00
H154   H     0.11968   0.06708   0.28290   0.00000  Uiso   1.00
H155   H     0.43922   0.47896   0.10269   0.00000  Uiso   1.00
H156   H     0.45482   0.42945   0.07255   0.00000  Uiso   1.00
H157   H     0.43238   0.47622   0.04174   0.00000  Uiso   1.00
H158   H     0.36977   0.42332   0.05081   0.00000  Uiso   1.00
H159   H     0.35994   0.47047   0.08445   0.00000  Uiso   1.00
H160   H     0.29940   0.22426   0.11049   0.00000  Uiso   1.00
N161   N     0.00000   0.25000   0.28573   0.00000  Uiso   1.00
N162   N     0.00000   0.25000   0.04760   0.00000  Uiso   1.00
N163   N     0.25000   0.00000   0.28573   0.00000  Uiso   1.00
N164   N     0.25000   0.00000   0.04760   0.00000  Uiso   1.00
O165   O     0.04581   0.20419   0.20487   0.00000  Uiso   1.00
O166   O     0.20420   0.04581   0.12846   0.00000  Uiso   1.00
O167   O     0.20420   0.04581   0.20487   0.00000  Uiso   1.00
O168   O     0.29581   0.45419   0.12846   0.00000  Uiso   1.00
O169   O     0.20420   0.45419   0.12846   0.00000  Uiso   1.00
O170   O     0.29581   0.04581   0.20487   0.00000  Uiso   1.00
O171   O     0.29581   0.04581   0.12846   0.00000  Uiso   1.00
O172   O     0.20420   0.45419   0.20487   0.00000  Uiso   1.00
O173   O     0.45420   0.29581   0.12846   0.00000  Uiso   1.00
O174   O     0.45420   0.29581   0.20487   0.00000  Uiso   1.00
O175   O     0.04581   0.20419   0.12846   0.00000  Uiso   1.00
O176   O     0.45420   0.20419   0.12846   0.00000  Uiso   1.00
O177   O     0.04581   0.29581   0.20487   0.00000  Uiso   1.00
O178   O     0.04581   0.29581   0.12846   0.00000  Uiso   1.00
O179   O     0.45420   0.20419   0.20487   0.00000  Uiso   1.00
O180   O     0.29581   0.45419   0.20487   0.00000  Uiso   1.00
Zn181  Zn    0.00000   0.25000   0.21771   0.00000  Uiso   1.00
Zn182  Zn    0.00000   0.25000   0.11563   0.00000  Uiso   1.00
Zn183  Zn    0.25000   0.00000   0.21771   0.00000  Uiso   1.00
Zn184  Zn    0.25000   0.00000   0.11563   0.00000  Uiso   1.00
C185   C     0.55723   0.18606   0.16660   0.00000  Uiso   1.00
C186   C     0.97851   0.21756   0.30996   0.00000  Uiso   1.00
C187   C     0.97816   0.21782   0.02463   0.00000  Uiso   1.00
C188   C     0.52179   0.28233   0.30862   0.00000  Uiso   1.00
C189   C     0.73245   0.03505   0.02414   0.00000  Uiso   1.00
C190   C     0.76725   0.46481   0.30919   0.00000  Uiso   1.00
C191   C     0.76745   0.46491   0.02393   0.00000  Uiso   1.00
C192   C     0.73177   0.03472   0.30945   0.00000  Uiso   1.00
C193   C     0.86939   0.16564   0.12745   0.00000  Uiso   1.00
C194   C     0.58739   0.37927   0.18946   0.00000  Uiso   1.00
C195   C     0.63740   0.33107   0.14205   0.00000  Uiso   1.00
C196   C     0.93843   0.31047   0.16697   0.00000  Uiso   1.00
C197   C     0.87318   0.15904   0.20959   0.00000  Uiso   1.00
C198   C     0.58684   0.11927   0.20971   0.00000  Uiso   1.00
C199   C     0.89568   0.36854   0.12453   0.00000  Uiso   1.00
C200   C     0.89861   0.37235   0.20925   0.00000  Uiso   1.00
C201   C     0.59161   0.11976   0.12495   0.00000  Uiso   1.00
C202   C     0.67051   0.36409   0.14180   0.00000  Uiso   1.00
C203   C     0.85547   0.11654   0.20856   0.00000  Uiso   1.00
C204   C     0.85020   0.12351   0.12438   0.00000  Uiso   1.00
C205   C     0.62510   0.40262   0.20116   0.00000  Uiso   1.00
C206   C     0.88032   0.41522   0.20665   0.00000  Uiso   1.00
C207   C     0.93309   0.19922   0.16724   0.00000  Uiso   1.00
C208   C     0.61581   0.07969   0.12756   0.00000  Uiso   1.00
C209   C     0.61532   0.08162   0.20962   0.00000  Uiso   1.00
C210   C     0.87836   0.41156   0.12414   0.00000  Uiso   1.00
C211   C     0.59529   0.34080   0.16427   0.00000  Uiso   1.00
C212   C     0.88930   0.17716   0.16852   0.00000  Uiso   1.00
C213   C     0.90813   0.34935   0.16730   0.00000  Uiso   1.00
C214   C     0.58021   0.14229   0.16697   0.00000  Uiso   1.00
C215   C     0.84151   0.09920   0.16585   0.00000  Uiso   1.00
C216   C     0.66249   0.40094   0.17035   0.00000  Uiso   1.00
C217   C     0.63763   0.07037   0.16841   0.00000  Uiso   1.00
C218   C     0.56093   0.30897   0.16598   0.00000  Uiso   1.00
C219   C     0.86171   0.42880   0.16531   0.00000  Uiso   1.00
C220   C     0.86629   0.20002   0.08927   0.00000  Uiso   1.00
C221   C     0.81703   0.21204   0.07907   0.00000  Uiso   1.00
C222   C     0.53969   0.39588   0.20239   0.00000  Uiso   1.00
C223   C     0.51242   0.40677   0.15987   0.00000  Uiso   1.00
C224   C     0.64714   0.28545   0.12155   0.00000  Uiso   1.00
C225   C     0.65935   0.25206   0.15872   0.00000  Uiso   1.00
C226   C     0.87011   0.18678   0.25281   0.00000  Uiso   1.00
C227   C     0.82150   0.20319   0.26147   0.00000  Uiso   1.00
C228   C     0.56556   0.13424   0.25552   0.00000  Uiso   1.00
C229   C     0.81742   0.45060   0.16617   0.00000  Uiso   1.00
C230   C     0.59659   0.16589   0.28040   0.00000  Uiso   1.00
C231   C     0.89005   0.34106   0.08151   0.00000  Uiso   1.00
C232   C     0.92935   0.34537   0.04681   0.00000  Uiso   1.00
C233   C     0.90206   0.35047   0.25642   0.00000  Uiso   1.00
C234   C     0.86891   0.31226   0.26173   0.00000  Uiso   1.00
C235   C     0.58031   0.13706   0.07740   0.00000  Uiso   1.00
C236   C     0.53150   0.12624   0.06521   0.00000  Uiso   1.00
C237   C     0.71553   0.35823   0.11569   0.00000  Uiso   1.00
C238   C     0.71021   0.36729   0.06465   0.00000  Uiso   1.00
C239   C     0.86252   0.08735   0.25050   0.00000  Uiso   1.00
C240   C     0.68270   0.04984   0.16724   0.00000  Uiso   1.00
C241   C     0.82426   0.09116   0.28631   0.00000  Uiso   1.00
C242   C     0.84589   0.10322   0.07705   0.00000  Uiso   1.00
C243   C     0.88017   0.06553   0.07022   0.00000  Uiso   1.00
C244   C     0.62829   0.41979   0.24977   0.00000  Uiso   1.00
C245   C     0.66163   0.39208   0.27753   0.00000  Uiso   1.00
C246   C     0.88156   0.44769   0.24620   0.00000  Uiso   1.00
C247   C     0.93015   0.45822   0.25937   0.00000  Uiso   1.00
C248   C     0.61402   0.04423   0.09047   0.00000  Uiso   1.00
C249   C     0.59391   0.00144   0.10955   0.00000  Uiso   1.00
C250   C     0.61557   0.04964   0.25012   0.00000  Uiso   1.00
C251   C     0.69155   0.43825   0.16752   0.00000  Uiso   1.00
C252   C     0.57263   0.02159   0.25088   0.00000  Uiso   1.00
C253   C     0.88152   0.44059   0.08150   0.00000  Uiso   1.00
C254   C     0.92997   0.45709   0.07414   0.00000  Uiso   1.00
C255   C     0.81127   0.06061   0.16623   0.00000  Uiso   1.00
C256   C     0.52217   0.28207   0.02335   0.00000  Uiso   1.00
H257   H     0.53968   0.30780   0.04102   0.00000  Uiso   1.00
H258   H     0.81623   0.23860   0.05277   0.00000  Uiso   1.00
H259   H     0.79849   0.18326   0.06598   0.00000  Uiso   1.00
H260   H     0.88238   0.23119   0.09942   0.00000  Uiso   1.00
H261   H     0.88447   0.18917   0.05781   0.00000  Uiso   1.00
H262   H     0.53089   0.43090   0.13795   0.00000  Uiso   1.00
H263   H     0.50607   0.37681   0.13963   0.00000  Uiso   1.00
H264   H     0.97918   0.42150   0.17008   0.00000  Uiso   1.00
H265   H     0.52126   0.37158   0.22412   0.00000  Uiso   1.00
H266   H     0.54065   0.42692   0.22207   0.00000  Uiso   1.00
H267   H     0.63157   0.24937   0.18470   0.00000  Uiso   1.00
H268   H     0.96198   0.19125   0.29233   0.00000  Uiso   1.00
H269   H     0.66521   0.21907   0.14327   0.00000  Uiso   1.00
H270   H     0.69080   0.26226   0.17580   0.00000  Uiso   1.00
H271   H     0.61811   0.27330   0.10214   0.00000  Uiso   1.00
H272   H     0.67503   0.28546   0.09580   0.00000  Uiso   1.00
H273   H     0.81151   0.22644   0.23387   0.00000  Uiso   1.00
H274   H     0.79707   0.17569   0.26247   0.00000  Uiso   1.00
H275   H     0.81931   0.22081   0.29457   0.00000  Uiso   1.00
H276   H     0.88270   0.16842   0.28288   0.00000  Uiso   1.00
H277   H     0.89081   0.21683   0.25019   0.00000  Uiso   1.00
H278   H     0.60861   0.19300   0.25771   0.00000  Uiso   1.00
H279   H     0.96107   0.19184   0.04319   0.00000  Uiso   1.00
H280   H     0.57806   0.18051   0.31010   0.00000  Uiso   1.00
H281   H     0.62678   0.14772   0.29300   0.00000  Uiso   1.00
H282   H     0.53073   0.14750   0.25175   0.00000  Uiso   1.00
H283   H     0.55826   0.10675   0.27931   0.00000  Uiso   1.00
H284   H     0.96244   0.34781   0.06383   0.00000  Uiso   1.00
H285   H     0.93005   0.31617   0.02416   0.00000  Uiso   1.00
H286   H     0.92492   0.37492   0.02491   0.00000  Uiso   1.00
H287   H     0.88486   0.30595   0.09056   0.00000  Uiso   1.00
H288   H     0.85788   0.35028   0.06462   0.00000  Uiso   1.00
H289   H     0.87176   0.28928   0.23257   0.00000  Uiso   1.00
H290   H     0.53895   0.30836   0.28997   0.00000  Uiso   1.00
H291   H     0.87572   0.29376   0.29376   0.00000  Uiso   1.00
H292   H     0.83356   0.32528   0.26345   0.00000  Uiso   1.00
H293   H     0.93729   0.34063   0.26436   0.00000  Uiso   1.00
H294   H     0.89310   0.37298   0.28462   0.00000  Uiso   1.00
H295   H     0.50695   0.14280   0.08869   0.00000  Uiso   1.00
H296   H     0.52508   0.13696   0.02964   0.00000  Uiso   1.00
H297   H     0.52536   0.09025   0.06763   0.00000  Uiso   1.00
H298   H     0.58798   0.17247   0.07279   0.00000  Uiso   1.00
H299   H     0.60351   0.12264   0.05103   0.00000  Uiso   1.00
H300   H     0.68468   0.34537   0.04969   0.00000  Uiso   1.00
H301   H     0.71910   0.06337   0.04239   0.00000  Uiso   1.00
H302   H     0.69925   0.40198   0.05889   0.00000  Uiso   1.00
H303   H     0.74321   0.36168   0.04654   0.00000  Uiso   1.00
H304   H     0.74212   0.38020   0.12862   0.00000  Uiso   1.00
H305   H     0.72998   0.32475   0.12141   0.00000  Uiso   1.00
H306   H     0.79089   0.09592   0.27024   0.00000  Uiso   1.00
H307   H     0.82356   0.06078   0.30765   0.00000  Uiso   1.00
H308   H     0.82969   0.11940   0.30912   0.00000  Uiso   1.00
H309   H     0.86736   0.05260   0.24020   0.00000  Uiso   1.00
H310   H     0.89520   0.09527   0.26665   0.00000  Uiso   1.00
H311   H     0.87930   0.04219   0.09946   0.00000  Uiso   1.00
H312   H     0.78052   0.43649   0.29090   0.00000  Uiso   1.00
H313   H     0.87278   0.04730   0.03857   0.00000  Uiso   1.00
H314   H     0.91499   0.07904   0.06709   0.00000  Uiso   1.00
H315   H     0.81075   0.09324   0.07003   0.00000  Uiso   1.00
H316   H     0.85330   0.12683   0.04924   0.00000  Uiso   1.00
H317   H     0.64965   0.35751   0.28037   0.00000  Uiso   1.00
H318   H     0.69612   0.39193   0.26166   0.00000  Uiso   1.00
H319   H     0.66379   0.40592   0.31239   0.00000  Uiso   1.00
H320   H     0.63794   0.45466   0.25010   0.00000  Uiso   1.00
H321   H     0.59545   0.41795   0.26875   0.00000  Uiso   1.00
H322   H     0.94885   0.47288   0.22974   0.00000  Uiso   1.00
H323   H     0.78137   0.43690   0.04210   0.00000  Uiso   1.00
H324   H     0.92944   0.48258   0.28752   0.00000  Uiso   1.00
H325   H     0.94865   0.42831   0.27105   0.00000  Uiso   1.00
H326   H     0.86598   0.47958   0.23630   0.00000  Uiso   1.00
H327   H     0.86153   0.43592   0.27622   0.00000  Uiso   1.00
H328   H     0.61486   0.48772   0.13733   0.00000  Uiso   1.00
H329   H     0.55899   0.00776   0.12312   0.00000  Uiso   1.00
H330   H     0.59242   0.47651   0.08203   0.00000  Uiso   1.00
H331   H     0.59247   0.05366   0.06158   0.00000  Uiso   1.00
H332   H     0.64773   0.03737   0.07490   0.00000  Uiso   1.00
H333   H     0.57276   0.00008   0.22035   0.00000  Uiso   1.00
H334   H     0.71741   0.06256   0.29133   0.00000  Uiso   1.00
H335   H     0.57171   0.00058   0.28207   0.00000  Uiso   1.00
H336   H     0.54120   0.04195   0.25042   0.00000  Uiso   1.00
H337   H     0.64416   0.02623   0.24889   0.00000  Uiso   1.00
H338   H     0.61968   0.06708   0.28290   0.00000  Uiso   1.00
H339   H     0.93922   0.47896   0.10269   0.00000  Uiso   1.00
H340   H     0.95482   0.42945   0.07255   0.00000  Uiso   1.00
H341   H     0.93238   0.47622   0.04174   0.00000  Uiso   1.00
H342   H     0.86977   0.42332   0.05081   0.00000  Uiso   1.00
H343   H     0.85994   0.47047   0.08445   0.00000  Uiso   1.00
H344   H     0.79940   0.22426   0.11049   0.00000  Uiso   1.00
N345   N     0.50000   0.25000   0.28573   0.00000  Uiso   1.00
N346   N     0.50000   0.25000   0.04760   0.00000  Uiso   1.00
N347   N     0.75000   0.00000   0.28573   0.00000  Uiso   1.00
N348   N     0.75000   0.00000   0.04760   0.00000  Uiso   1.00
O349   O     0.54581   0.20419   0.20487   0.00000  Uiso   1.00
O350   O     0.70420   0.04581   0.12846   0.00000  Uiso   1.00
O351   O     0.70420   0.04581   0.20487   0.00000  Uiso   1.00
O352   O     0.79581   0.45419   0.12846   0.00000  Uiso   1.00
O353   O     0.70420   0.45419   0.12846   0.00000  Uiso   1.00
O354   O     0.79581   0.04581   0.20487   0.00000  Uiso   1.00
O355   O     0.79581   0.04581   0.12846   0.00000  Uiso   1.00
O356   O     0.70420   0.45419   0.20487   0.00000  Uiso   1.00
O357   O     0.95420   0.29581   0.12846   0.00000  Uiso   1.00
O358   O     0.95420   0.29581   0.20487   0.00000  Uiso   1.00
O359   O     0.54581   0.20419   0.12846   0.00000  Uiso   1.00
O360   O     0.95420   0.20419   0.12846   0.00000  Uiso   1.00
O361   O     0.54581   0.29581   0.20487   0.00000  Uiso   1.00
O362   O     0.54581   0.29581   0.12846   0.00000  Uiso   1.00
O363   O     0.95420   0.20419   0.20487   0.00000  Uiso   1.00
O364   O     0.79581   0.45419   0.20487   0.00000  Uiso   1.00
Zn365  Zn    0.50000   0.25000   0.21771   0.00000  Uiso   1.00
Zn366  Zn    0.50000   0.25000   0.11563   0.00000  Uiso   1.00
Zn367  Zn    0.75000   0.00000   0.21771   0.00000  Uiso   1.00
Zn368  Zn    0.75000   0.00000   0.11563   0.00000  Uiso   1.00
C369   C     0.05723   0.68606   0.16660   0.00000  Uiso   1.00
C370   C     0.47851   0.71756   0.30996   0.00000  Uiso   1.00
C371   C     0.47816   0.71782   0.02463   0.00000  Uiso   1.00
C372   C     0.02179   0.78233   0.30862   0.00000  Uiso   1.00
C373   C     0.23245   0.53505   0.02414   0.00000  Uiso   1.00
C374   C     0.26725   0.96481   0.30919   0.00000  Uiso   1.00
C375   C     0.26745   0.96491   0.02393   0.00000  Uiso   1.00
C376   C     0.23177   0.53472   0.30945   0.00000  Uiso   1.00
C377   C     0.36939   0.66564   0.12745   0.00000  Uiso   1.00
C378   C     0.08739   0.87927   0.18946   0.00000  Uiso   1.00
C379   C     0.13740   0.83107   0.14205   0.00000  Uiso   1.00
C380   C     0.43843   0.81047   0.16697   0.00000  Uiso   1.00
C381   C     0.37318   0.65904   0.20959   0.00000  Uiso   1.00
C382   C     0.08684   0.61927   0.20971   0.00000  Uiso   1.00
C383   C     0.39568   0.86854   0.12453   0.00000  Uiso   1.00
C384   C     0.39861   0.87235   0.20925   0.00000  Uiso   1.00
C385   C     0.09161   0.61976   0.12495   0.00000  Uiso   1.00
C386   C     0.17051   0.86409   0.14180   0.00000  Uiso   1.00
C387   C     0.35547   0.61654   0.20856   0.00000  Uiso   1.00
C388   C     0.35020   0.62351   0.12438   0.00000  Uiso   1.00
C389   C     0.12510   0.90262   0.20116   0.00000  Uiso   1.00
C390   C     0.38032   0.91522   0.20665   0.00000  Uiso   1.00
C391   C     0.43309   0.69922   0.16724   0.00000  Uiso   1.00
C392   C     0.11581   0.57969   0.12756   0.00000  Uiso   1.00
C393   C     0.11532   0.58162   0.20962   0.00000  Uiso   1.00
C394   C     0.37836   0.91156   0.12414   0.00000  Uiso   1.00
C395   C     0.09529   0.84080   0.16427   0.00000  Uiso   1.00
C396   C     0.38930   0.67716   0.16852   0.00000  Uiso   1.00
C397   C     0.40813   0.84935   0.16730   0.00000  Uiso   1.00
C398   C     0.08021   0.64229   0.16697   0.00000  Uiso   1.00
C399   C     0.34151   0.59920   0.16585   0.00000  Uiso   1.00
C400   C     0.16249   0.90094   0.17035   0.00000  Uiso   1.00
C401   C     0.13763   0.57037   0.16841   0.00000  Uiso   1.00
C402   C     0.06093   0.80897   0.16598   0.00000  Uiso   1.00
C403   C     0.36171   0.92880   0.16531   0.00000  Uiso   1.00
C404   C     0.36629   0.70002   0.08927   0.00000  Uiso   1.00
C405   C     0.31703   0.71204   0.07907   0.00000  Uiso   1.00
C406   C     0.03969   0.89588   0.20239   0.00000  Uiso   1.00
C407   C     0.01242   0.90677   0.15987   0.00000  Uiso   1.00
C408   C     0.14714   0.78545   0.12155   0.00000  Uiso   1.00
C409   C     0.15935   0.75206   0.15872   0.00000  Uiso   1.00
C410   C     0.37011   0.68678   0.25281   0.00000  Uiso   1.00
C411   C     0.32150   0.70319   0.26147   0.00000  Uiso   1.00
C412   C     0.06556   0.63424   0.25552   0.00000  Uiso   1.00
C413   C     0.31742   0.95060   0.16617   0.00000  Uiso   1.00
C414   C     0.09659   0.66589   0.28040   0.00000  Uiso   1.00
C415   C     0.39005   0.84106   0.08151   0.00000  Uiso   1.00
C416   C     0.42935   0.84537   0.04681   0.00000  Uiso   1.00
C417   C     0.40206   0.85047   0.25642   0.00000  Uiso   1.00
C418   C     0.36891   0.81226   0.26173   0.00000  Uiso   1.00
C419   C     0.08031   0.63706   0.07740   0.00000  Uiso   1.00
C420   C     0.03150   0.62624   0.06521   0.00000  Uiso   1.00
C421   C     0.21553   0.85823   0.11569   0.00000  Uiso   1.00
C422   C     0.21021   0.86729   0.06465   0.00000  Uiso   1.00
C423   C     0.36252   0.58735   0.25050   0.00000  Uiso   1.00
C424   C     0.18270   0.54984   0.16724   0.00000  Uiso   1.00
C425   C     0.32426   0.59116   0.28631   0.00000  Uiso   1.00
C426   C     0.34589   0.60322   0.07705   0.00000  Uiso   1.00
C427   C     0.38017   0.56553   0.07022   0.00000  Uiso   1.00
C428   C     0.12829   0.91979   0.24977   0.00000  Uiso   1.00
C429   C     0.16163   0.89208   0.27753   0.00000  Uiso   1.00
C430   C     0.38156   0.94769   0.24620   0.00000  Uiso   1.00
C431   C     0.43015   0.95822   0.25937   0.00000  Uiso   1.00
C432   C     0.11402   0.54423   0.09047   0.00000  Uiso   1.00
C433   C     0.09391   0.50144   0.10955   0.00000  Uiso   1.00
C434   C     0.11557   0.54964   0.25012   0.00000  Uiso   1.00
C435   C     0.19155   0.93825   0.16752   0.00000  Uiso   1.00
C436   C     0.07263   0.52159   0.25088   0.00000  Uiso   1.00
C437   C     0.38152   0.94059   0.08150   0.00000  Uiso   1.00
C438   C     0.42997   0.95709   0.07414   0.00000  Uiso   1.00
C439   C     0.31127   0.56061   0.16623   0.00000  Uiso   1.00
C440   C     0.02217   0.78207   0.02335   0.00000  Uiso   1.00
H441   H     0.03968   0.80780   0.04102   0.00000  Uiso   1.00
H442   H     0.31623   0.73860   0.05277   0.00000  Uiso   1.00
H443   H     0.29849   0.68326   0.06598   0.00000  Uiso   1.00
H444   H     0.38238   0.73119   0.09942   0.00000  Uiso   1.00
H445   H     0.38447   0.68917   0.05781   0.00000  Uiso   1.00
H446   H     0.03089   0.93090   0.13795   0.00000  Uiso   1.00
H447   H     0.00607   0.87681   0.13963   0.00000  Uiso   1.00
H448   H     0.47918   0.92150   0.17008   0.00000  Uiso   1.00
H449   H     0.02126   0.87158   0.22412   0.00000  Uiso   1.00
H450   H     0.04065   0.92692   0.22207   0.00000  Uiso   1.00
H451   H     0.13157   0.74937   0.18470   0.00000  Uiso   1.00
H452   H     0.46198   0.69125   0.29233   0.00000  Uiso   1.00
H453   H     0.16521   0.71907   0.14327   0.00000  Uiso   1.00
H454   H     0.19080   0.76226   0.17580   0.00000  Uiso   1.00
H455   H     0.11811   0.77330   0.10214   0.00000  Uiso   1.00
H456   H     0.17503   0.78546   0.09580   0.00000  Uiso   1.00
H457   H     0.31151   0.72644   0.23387   0.00000  Uiso   1.00
H458   H     0.29707   0.67569   0.26247   0.00000  Uiso   1.00
H459   H     0.31931   0.72081   0.29457   0.00000  Uiso   1.00
H460   H     0.38270   0.66842   0.28288   0.00000  Uiso   1.00
H461   H     0.39081   0.71683   0.25019   0.00000  Uiso   1.00
H462   H     0.10861   0.69300   0.25771   0.00000  Uiso   1.00
H463   H     0.46107   0.69184   0.04319   0.00000  Uiso   1.00
H464   H     0.07806   0.68051   0.31010   0.00000  Uiso   1.00
H465   H     0.12678   0.64772   0.29300   0.00000  Uiso   1.00
H466   H     0.03073   0.64750   0.25175   0.00000  Uiso   1.00
H467   H     0.05826   0.60675   0.27931   0.00000  Uiso   1.00
H468   H     0.46244   0.84781   0.06383   0.00000  Uiso   1.00
H469   H     0.43005   0.81617   0.02416   0.00000  Uiso   1.00
H470   H     0.42492   0.87492   0.02491   0.00000  Uiso   1.00
H471   H     0.38486   0.80595   0.09056   0.00000  Uiso   1.00
H472   H     0.35788   0.85028   0.06462   0.00000  Uiso   1.00
H473   H     0.37176   0.78928   0.23257   0.00000  Uiso   1.00
H474   H     0.03895   0.80836   0.28997   0.00000  Uiso   1.00
H475   H     0.37572   0.79376   0.29376   0.00000  Uiso   1.00
H476   H     0.33356   0.82528   0.26345   0.00000  Uiso   1.00
H477   H     0.43729   0.84063   0.26436   0.00000  Uiso   1.00
H478   H     0.39310   0.87298   0.28462   0.00000  Uiso   1.00
H479   H     0.00695   0.64280   0.08869   0.00000  Uiso   1.00
H480   H     0.02508   0.63696   0.02964   0.00000  Uiso   1.00
H481   H     0.02536   0.59025   0.06763   0.00000  Uiso   1.00
H482   H     0.08798   0.67247   0.07279   0.00000  Uiso   1.00
H483   H     0.10351   0.62264   0.05103   0.00000  Uiso   1.00
H484   H     0.18468   0.84537   0.04969   0.00000  Uiso   1.00
H485   H     0.21910   0.56337   0.04239   0.00000  Uiso   1.00
H486   H     0.19925   0.90198   0.05889   0.00000  Uiso   1.00
H487   H     0.24321   0.86168   0.04654   0.00000  Uiso   1.00
H488   H     0.24212   0.88020   0.12862   0.00000  Uiso   1.00
H489   H     0.22998   0.82475   0.12141   0.00000  Uiso   1.00
H490   H     0.29089   0.59592   0.27024   0.00000  Uiso   1.00
H491   H     0.32356   0.56078   0.30765   0.00000  Uiso   1.00
H492   H     0.32969   0.61940   0.30912   0.00000  Uiso   1.00
H493   H     0.36736   0.55260   0.24020   0.00000  Uiso   1.00
H494   H     0.39520   0.59527   0.26665   0.00000  Uiso   1.00
H495   H     0.37930   0.54219   0.09946   0.00000  Uiso   1.00
H496   H     0.28052   0.93649   0.29090   0.00000  Uiso   1.00
H497   H     0.37278   0.54730   0.03857   0.00000  Uiso   1.00
H498   H     0.41499   0.57904   0.06709   0.00000  Uiso   1.00
H499   H     0.31075   0.59324   0.07003   0.00000  Uiso   1.00
H500   H     0.35330   0.62683   0.04924   0.00000  Uiso   1.00
H501   H     0.14965   0.85751   0.28037   0.00000  Uiso   1.00
H502   H     0.19612   0.89193   0.26166   0.00000  Uiso   1.00
H503   H     0.16379   0.90592   0.31239   0.00000  Uiso   1.00
H504   H     0.13794   0.95466   0.25010   0.00000  Uiso   1.00
H505   H     0.09545   0.91795   0.26875   0.00000  Uiso   1.00
H506   H     0.44885   0.97288   0.22974   0.00000  Uiso   1.00
H507   H     0.28137   0.93690   0.04210   0.00000  Uiso   1.00
H508   H     0.42944   0.98258   0.28752   0.00000  Uiso   1.00
H509   H     0.44865   0.92831   0.27105   0.00000  Uiso   1.00
H510   H     0.36598   0.97958   0.23630   0.00000  Uiso   1.00
H511   H     0.36153   0.93592   0.27622   0.00000  Uiso   1.00
H512   H     0.11486   0.98772   0.13733   0.00000  Uiso   1.00
H513   H     0.05899   0.50776   0.12312   0.00000  Uiso   1.00
H514   H     0.09242   0.97651   0.08203   0.00000  Uiso   1.00
H515   H     0.09247   0.55366   0.06158   0.00000  Uiso   1.00
H516   H     0.14773   0.53737   0.07490   0.00000  Uiso   1.00
H517   H     0.07276   0.50008   0.22035   0.00000  Uiso   1.00
H518   H     0.21741   0.56256   0.29133   0.00000  Uiso   1.00
H519   H     0.07171   0.50058   0.28207   0.00000  Uiso   1.00
H520   H     0.04120   0.54195   0.25042   0.00000  Uiso   1.00
H521   H     0.14416   0.52623   0.24889   0.00000  Uiso   1.00
H522   H     0.11968   0.56708   0.28290   0.00000  Uiso   1.00
H523   H     0.43922   0.97896   0.10269   0.00000  Uiso   1.00
H524   H     0.45482   0.92945   0.07255   0.00000  Uiso   1.00
H525   H     0.43238   0.97622   0.04174   0.00000  Uiso   1.00
H526   H     0.36977   0.92332   0.05081   0.00000  Uiso   1.00
H527   H     0.35994   0.97047   0.08445   0.00000  Uiso   1.00
H528   H     0.29940   0.72426   0.11049   0.00000  Uiso   1.00
N529   N     0.00000   0.75000   0.28573   0.00000  Uiso   1.00
N530   N     0.00000   0.75000   0.04760   0.00000  Uiso   1.00
N531   N     0.25000   0.50000   0.28573   0.00000  Uiso   1.00
N532   N     0.25000   0.50000   0.04760   0.00000  Uiso   1.00
O533   O     0.04581   0.70419   0.20487   0.00000  Uiso   1.00
O534   O     0.20420   0.54581   0.12846   0.00000  Uiso   1.00
O535   O     0.20420   0.54581   0.20487   0.00000  Uiso   1.00
O536   O     0.29581   0.95419   0.12846   0.00000  Uiso   1.00
O537   O     0.20420   0.95419   0.12846   0.00000  Uiso   1.00
O538   O     0.29581   0.54581   0.20487   0.00000  Uiso   1.00
O539   O     0.29581   0.54581   0.12846   0.00000  Uiso   1.00
O540   O     0.20420   0.95419   0.20487   0.00000  Uiso   1.00
O541   O     0.45420   0.79581   0.12846   0.00000  Uiso   1.00
O542   O     0.45420   0.79581   0.20487   0.00000  Uiso   1.00
O543   O     0.04581   0.70419   0.12846   0.00000  Uiso   1.00
O544   O     0.45420   0.70419   0.12846   0.00000  Uiso   1.00
O545   O     0.04581   0.79581   0.20487   0.00000  Uiso   1.00
O546   O     0.04581   0.79581   0.12846   0.00000  Uiso   1.00
O547   O     0.45420   0.70419   0.20487   0.00000  Uiso   1.00
O548   O     0.29581   0.95419   0.20487   0.00000  Uiso   1.00
Zn549  Zn    0.00000   0.75000   0.21771   0.00000  Uiso   1.00
Zn550  Zn    0.00000   0.75000   0.11563   0.00000  Uiso   1.00
Zn551  Zn    0.25000   0.50000   0.21771   0.00000  Uiso   1.00
Zn552  Zn    0.25000   0.50000   0.11563   0.00000  Uiso   1.00
C553   C     0.55723   0.68606   0.16660   0.00000  Uiso   1.00
C554   C     0.97851   0.71756   0.30996   0.00000  Uiso   1.00
C555   C     0.97816   0.71782   0.02463   0.00000  Uiso   1.00
C556   C     0.52179   0.78233   0.30862   0.00000  Uiso   1.00
C557   C     0.73245   0.53505   0.02414   0.00000  Uiso   1.00
C558   C     0.76725   0.96481   0.30919   0.00000  Uiso   1.00
C559   C     0.76745   0.96491   0.02393   0.00000  Uiso   1.00
C560   C     0.73177   0.53472   0.30945   0.00000  Uiso   1.00
C561   C     0.86939   0.66564   0.12745   0.00000  Uiso   1.00
C562   C     0.58739   0.87927   0.18946   0.00000  Uiso   1.00
C563   C     0.63740   0.83107   0.14205   0.00000  Uiso   1.00
C564   C     0.93843   0.81047   0.16697   0.00000  Uiso   1.00
C565   C     0.87318   0.65904   0.20959   0.00000  Uiso   1.00
C566   C     0.58684   0.61927   0.20971   0.00000  Uiso   1.00
C567   C     0.89568   0.86854   0.12453   0.00000  Uiso   1.00
C568   C     0.89861   0.87235   0.20925   0.00000  Uiso   1.00
C569   C     0.59161   0.61976   0.12495   0.00000  Uiso   1.00
C570   C     0.67051   0.86409   0.14180   0.00000  Uiso   1.00
C571   C     0.85547   0.61654   0.20856   0.00000  Uiso   1.00
C572   C     0.85020   0.62351   0.12438   0.00000  Uiso   1.00
C573   C     0.62510   0.90262   0.20116   0.00000  Uiso   1.00
C574   C     0.88032   0.91522   0.20665   0.00000  Uiso   1.00
C575   C     0.93309   0.69922   0.16724   0.00000  Uiso   1.00
C576   C     0.61581   0.57969   0.12756   0.00000  Uiso   1.00
C577   C     0.61532   0.58162   0.20962   0.00000  Uiso   1.00
C578   C     0.87836   0.91156   0.12414   0.00000  Uiso   1.00
C579   C     0.59529   0.84080   0.16427   0.00000  Uiso   1.00
C580   C     0.88930   0.67716   0.16852   0.00000  Uiso   1.00
C581   C     0.90813   0.84935   0.16730   0.00000  Uiso   1.00
C582   C     0.58021   0.64229   0.16697   0.00000  Uiso   1.00
C583   C     0.84151   0.59920   0.16585   0.00000  Uiso   1.00
C584   C     0.66249   0.90094   0.17035   0.00000  Uiso   1.00
C585   C     0.63763   0.57037   0.16841   0.00000  Uiso   1.00
C586   C     0.56093   0.80897   0.16598   0.00000  Uiso   1.00
C587   C     0.86171   0.92880   0.16531   0.00000  Uiso   1.00
C588   C     0.86629   0.70002   0.08927   0.00000  Uiso   1.00
C589   C     0.81703   0.71204   0.07907   0.00000  Uiso   1.00
C590   C     0.53969   0.89588   0.20239   0.00000  Uiso   1.00
C591   C     0.51242   0.90677   0.15987   0.00000  Uiso   1.00
C592   C     0.64714   0.78545   0.12155   0.00000  Uiso   1.00
C593   C     0.65935   0.75206   0.15872   0.00000  Uiso   1.00
C594   C     0.87011   0.68678   0.25281   0.00000  Uiso   1.00
C595   C     0.82150   0.70319   0.26147   0.00000  Uiso   1.00
C596   C     0.56556   0.63424   0.25552   0.00000  Uiso   1.00
C597   C     0.81742   0.95060   0.16617   0.00000  Uiso   1.00
C598   C     0.59659   0.66589   0.28040   0.00000  Uiso   1.00
C599   C     0.89005   0.84106   0.08151   0.00000  Uiso   1.00
C600   C     0.92935   0.84537   0.04681   0.00000  Uiso   1.00
C601   C     0.90206   0.85047   0.25642   0.00000  Uiso   1.00
C602   C     0.86891   0.81226   0.26173   0.00000  Uiso   1.00
C603   C     0.58031   0.63706   0.07740   0.00000  Uiso   1.00
C604   C     0.53150   0.62624   0.06521   0.00000  Uiso   1.00
C605   C     0.71553   0.85823   0.11569   0.00000  Uiso   1.00
C606   C     0.71021   0.86729   0.06465   0.00000  Uiso   1.00
C607   C     0.86252   0.58735   0.25050   0.00000  Uiso   1.00
C608   C     0.68270   0.54984   0.16724   0.00000  Uiso   1.00
C609   C     0.82426   0.59116   0.28631   0.00000  Uiso   1.00
C610   C     0.84589   0.60322   0.07705   0.00000  Uiso   1.00
C611   C     0.88017   0.56553   0.07022   0.00000  Uiso   1.00
C612   C     0.62829   0.91979   0.24977   0.00000  Uiso   1.00
C613   C     0.66163   0.89208   0.27753   0.00000  Uiso   1.00
C614   C     0.88156   0.94769   0.24620   0.00000  Uiso   1.00
C615   C     0.93015   0.95822   0.25937   0.00000  Uiso   1.00
C616   C     0.61402   0.54423   0.09047   0.00000  Uiso   1.00
C617   C     0.59391   0.50144   0.10955   0.00000  Uiso   1.00
C618   C     0.61557   0.54964   0.25012   0.00000  Uiso   1.00
C619   C     0.69155   0.93825   0.16752   0.00000  Uiso   1.00
C620   C     0.57263   0.52159   0.25088   0.00000  Uiso   1.00
C621   C     0.88152   0.94059   0.08150   0.00000  Uiso   1.00
C622   C     0.92997   0.95709   0.07414   0.00000  Uiso   1.00
C623   C     0.81127   0.56061   0.16623   0.00000  Uiso   1.00
C624   C     0.52217   0.78207   0.02335   0.00000  Uiso   1.00
H625   H     0.53968   0.80780   0.04102   0.00000  Uiso   1.00
H626   H     0.81623   0.73860   0.05277   0.00000  Uiso   1.00
H627   H     0.79849   0.68326   0.06598   0.00000  Uiso   1.00
H628   H     0.88238   0.73119   0.09942   0.00000  Uiso   1.00
H629   H     0.88447   0.68917   0.05781   0.00000  Uiso   1.00
H630   H     0.53089   0.93090   0.13795   0.00000  Uiso   1.00
H631   H     0.50607   0.87681   0.13963   0.00000  Uiso   1.00
H632   H     0.97918   0.92150   0.17008   0.00000  Uiso   1.00
H633   H     0.52126   0.87158   0.22412   0.00000  Uiso   1.00
H634   H     0.54065   0.92692   0.22207   0.00000  Uiso   1.00
H635   H     0.63157   0.74937   0.18470   0.00000  Uiso   1.00
H636   H     0.96198   0.69125   0.29233   0.00000  Uiso   1.00
H637   H     0.66521   0.71907   0.14327   0.00000  Uiso   1.00
H638   H     0.69080   0.76226   0.17580   0.00000  Uiso   1.00
H639   H     0.61811   0.77330   0.10214   0.00000  Uiso   1.00
H640   H     0.67503   0.78546   0.09580   0.00000  Uiso   1.00
H641   H     0.81151   0.72644   0.23387   0.00000  Uiso   1.00
H642   H     0.79707   0.67569   0.26247   0.00000  Uiso   1.00
H643   H     0.81931   0.72081   0.29457   0.00000  Uiso   1.00
H644   H     0.88270   0.66842   0.28288   0.00000  Uiso   1.00
H645   H     0.89081   0.71683   0.25019   0.00000  Uiso   1.00
H646   H     0.60861   0.69300   0.25771   0.00000  Uiso   1.00
H647   H     0.96107   0.69184   0.04319   0.00000  Uiso   1.00
H648   H     0.57806   0.68051   0.31010   0.00000  Uiso   1.00
H649   H     0.62678   0.64772   0.29300   0.00000  Uiso   1.00
H650   H     0.53073   0.64750   0.25175   0.00000  Uiso   1.00
H651   H     0.55826   0.60675   0.27931   0.00000  Uiso   1.00
H652   H     0.96244   0.84781   0.06383   0.00000  Uiso   1.00
H653   H     0.93005   0.81617   0.02416   0.00000  Uiso   1.00
H654   H     0.92492   0.87492   0.02491   0.00000  Uiso   1.00
H655   H     0.88486   0.80595   0.09056   0.00000  Uiso   1.00
H656   H     0.85788   0.85028   0.06462   0.00000  Uiso   1.00
H657   H     0.87176   0.78928   0.23257   0.00000  Uiso   1.00
H658   H     0.53895   0.80836   0.28997   0.00000  Uiso   1.00
H659   H     0.87572   0.79376   0.29376   0.00000  Uiso   1.00
H660   H     0.83356   0.82528   0.26345   0.00000  Uiso   1.00
H661   H     0.93729   0.84063   0.26436   0.00000  Uiso   1.00
H662   H     0.89310   0.87298   0.28462   0.00000  Uiso   1.00
H663   H     0.50695   0.64280   0.08869   0.00000  Uiso   1.00
H664   H     0.52508   0.63696   0.02964   0.00000  Uiso   1.00
H665   H     0.52536   0.59025   0.06763   0.00000  Uiso   1.00
H666   H     0.58798   0.67247   0.07279   0.00000  Uiso   1.00
H667   H     0.60351   0.62264   0.05103   0.00000  Uiso   1.00
H668   H     0.68468   0.84537   0.04969   0.00000  Uiso   1.00
H669   H     0.71910   0.56337   0.04239   0.00000  Uiso   1.00
H670   H     0.69925   0.90198   0.05889   0.00000  Uiso   1.00
H671   H     0.74321   0.86168   0.04654   0.00000  Uiso   1.00
H672   H     0.74212   0.88020   0.12862   0.00000  Uiso   1.00
H673   H     0.72998   0.82475   0.12141   0.00000  Uiso   1.00
H674   H     0.79089   0.59592   0.27024   0.00000  Uiso   1.00
H675   H     0.82356   0.56078   0.30765   0.00000  Uiso   1.00
H676   H     0.82969   0.61940   0.30912   0.00000  Uiso   1.00
H677   H     0.86736   0.55260   0.24020   0.00000  Uiso   1.00
H678   H     0.89520   0.59527   0.26665   0.00000  Uiso   1.00
H679   H     0.87930   0.54219   0.09946   0.00000  Uiso   1.00
H680   H     0.78052   0.93649   0.29090   0.00000  Uiso   1.00
H681   H     0.87278   0.54730   0.03857   0.00000  Uiso   1.00
H682   H     0.91499   0.57904   0.06709   0.00000  Uiso   1.00
H683   H     0.81075   0.59324   0.07003   0.00000  Uiso   1.00
H684   H     0.85330   0.62683   0.04924   0.00000  Uiso   1.00
H685   H     0.64965   0.85751   0.28037   0.00000  Uiso   1.00
H686   H     0.69612   0.89193   0.26166   0.00000  Uiso   1.00
H687   H     0.66379   0.90592   0.31239   0.00000  Uiso   1.00
H688   H     0.63794   0.95466   0.25010   0.00000  Uiso   1.00
H689   H     0.59545   0.91795   0.26875   0.00000  Uiso   1.00
H690   H     0.94885   0.97288   0.22974   0.00000  Uiso   1.00
H691   H     0.78137   0.93690   0.04210   0.00000  Uiso   1.00
H692   H     0.92944   0.98258   0.28752   0.00000  Uiso   1.00
H693   H     0.94865   0.92831   0.27105   0.00000  Uiso   1.00
H694   H     0.86598   0.97958   0.23630   0.00000  Uiso   1.00
H695   H     0.86153   0.93592   0.27622   0.00000  Uiso   1.00
H696   H     0.61486   0.98772   0.13733   0.00000  Uiso   1.00
H697   H     0.55899   0.50776   0.12312   0.00000  Uiso   1.00
H698   H     0.59242   0.97651   0.08203   0.00000  Uiso   1.00
H699   H     0.59247   0.55366   0.06158   0.00000  Uiso   1.00
H700   H     0.64773   0.53737   0.07490   0.00000  Uiso   1.00
H701   H     0.57276   0.50008   0.22035   0.00000  Uiso   1.00
H702   H     0.71741   0.56256   0.29133   0.00000  Uiso   1.00
H703   H     0.57171   0.50058   0.28207   0.00000  Uiso   1.00
H704   H     0.54120   0.54195   0.25042   0.00000  Uiso   1.00
H705   H     0.64416   0.52623   0.24889   0.00000  Uiso   1.00
H706   H     0.61968   0.56708   0.28290   0.00000  Uiso   1.00
H707   H     0.93922   0.97896   0.10269   0.00000  Uiso   1.00
H708   H     0.95482   0.92945   0.07255   0.00000  Uiso   1.00
H709   H     0.93238   0.97622   0.04174   0.00000  Uiso   1.00
H710   H     0.86977   0.92332   0.05081   0.00000  Uiso   1.00
H711   H     0.85994   0.97047   0.08445   0.00000  Uiso   1.00
H712   H     0.79940   0.72426   0.11049   0.00000  Uiso   1.00
N713   N     0.50000   0.75000   0.28573   0.00000  Uiso   1.00
N714   N     0.50000   0.75000   0.04760   0.00000  Uiso   1.00
N715   N     0.75000   0.50000   0.28573   0.00000  Uiso   1.00
N716   N     0.75000   0.50000   0.04760   0.00000  Uiso   1.00
O717   O     0.54581   0.70419   0.20487   0.00000  Uiso   1.00
O718   O     0.70420   0.54581   0.12846   0.00000  Uiso   1.00
O719   O     0.70420   0.54581   0.20487   0.00000  Uiso   1.00
O720   O     0.79581   0.95419   0.12846   0.00000  Uiso   1.00
O721   O     0.70420   0.95419   0.12846   0.00000  Uiso   1.00
O722   O     0.79581   0.54581   0.20487   0.00000  Uiso   1.00
O723   O     0.79581   0.54581   0.12846   0.00000  Uiso   1.00
O724   O     0.70420   0.95419   0.20487   0.00000  Uiso   1.00
O725   O     0.95420   0.79581   0.12846   0.00000  Uiso   1.00
O726   O     0.95420   0.79581   0.20487   0.00000  Uiso   1.00
O727   O     0.54581   0.70419   0.12846   0.00000  Uiso   1.00
O728   O     0.95420   0.70419   0.12846   0.00000  Uiso   1.00
O729   O     0.54581   0.79581   0.20487   0.00000  Uiso   1.00
O730   O     0.54581   0.79581   0.12846   0.00000  Uiso   1.00
O731   O     0.95420   0.70419   0.20487   0.00000  Uiso   1.00
O732   O     0.79581   0.95419   0.20487   0.00000  Uiso   1.00
Zn733  Zn    0.50000   0.75000   0.21771   0.00000  Uiso   1.00
Zn734  Zn    0.50000   0.75000   0.11563   0.00000  Uiso   1.00
Zn735  Zn    0.75000   0.50000   0.21771   0.00000  Uiso   1.00
Zn736  Zn    0.75000   0.50000   0.11563   0.00000  Uiso   1.00
C737   C     0.05723   0.18606   0.49993   0.00000  Uiso   1.00
C738   C     0.47851   0.21756   0.64330   0.00000  Uiso   1.00
C739   C     0.47816   0.21782   0.35796   0.00000  Uiso   1.00
C740   C     0.02179   0.28233   0.64196   0.00000  Uiso   1.00
C741   C     0.23245   0.03505   0.35747   0.00000  Uiso   1.00
C742   C     0.26725   0.46481   0.64253   0.00000  Uiso   1.00
C743   C     0.26745   0.46491   0.35726   0.00000  Uiso   1.00
C744   C     0.23177   0.03472   0.64278   0.00000  Uiso   1.00
C745   C     0.36939   0.16564   0.46078   0.00000  Uiso   1.00
C746   C     0.08739   0.37927   0.52279   0.00000  Uiso   1.00
C747   C     0.13740   0.33107   0.47539   0.00000  Uiso   1.00
C748   C     0.43843   0.31047   0.50030   0.00000  Uiso   1.00
C749   C     0.37318   0.15904   0.54292   0.00000  Uiso   1.00
C750   C     0.08684   0.11927   0.54305   0.00000  Uiso   1.00
C751   C     0.39568   0.36854   0.45787   0.00000  Uiso   1.00
C752   C     0.39861   0.37235   0.54258   0.00000  Uiso   1.00
C753   C     0.09161   0.11976   0.45828   0.00000  Uiso   1.00
C754   C     0.17051   0.36409   0.47513   0.00000  Uiso   1.00
C755   C     0.35547   0.11654   0.54190   0.00000  Uiso   1.00
C756   C     0.35020   0.12351   0.45772   0.00000  Uiso   1.00
C757   C     0.12510   0.40262   0.53449   0.00000  Uiso   1.00
C758   C     0.38032   0.41522   0.53998   0.00000  Uiso   1.00
C759   C     0.43309   0.19922   0.50057   0.00000  Uiso   1.00
C760   C     0.11581   0.07969   0.46089   0.00000  Uiso   1.00
C761   C     0.11532   0.08162   0.54295   0.00000  Uiso   1.00
C762   C     0.37836   0.41156   0.45747   0.00000  Uiso   1.00
C763   C     0.09529   0.34080   0.49760   0.00000  Uiso   1.00
C764   C     0.38930   0.17716   0.50185   0.00000  Uiso   1.00
C765   C     0.40813   0.34935   0.50064   0.00000  Uiso   1.00
C766   C     0.08021   0.14229   0.50030   0.00000  Uiso   1.00
C767   C     0.34151   0.09920   0.49919   0.00000  Uiso   1.00
C768   C     0.16249   0.40094   0.50368   0.00000  Uiso   1.00
C769   C     0.13763   0.07037   0.50174   0.00000  Uiso   1.00
C770   C     0.06093   0.30897   0.49932   0.00000  Uiso   1.00
C771   C     0.36171   0.42880   0.49864   0.00000  Uiso   1.00
C772   C     0.36629   0.20002   0.42260   0.00000  Uiso   1.00
C773   C     0.31703   0.21204   0.41240   0.00000  Uiso   1.00
C774   C     0.03969   0.39588   0.53572   0.00000  Uiso   1.00
C775   C     0.01242   0.40677   0.49320   0.00000  Uiso   1.00
C776   C     0.14714   0.28545   0.45489   0.00000  Uiso   1.00
C777   C     0.15935   0.25206   0.49206   0.00000  Uiso   1.00
C778   C     0.37011   0.18678   0.58614   0.00000  Uiso   1.00
C779   C     0.32150   0.20319   0.59480   0.00000  Uiso   1.00
C780   C     0.06556   0.13424   0.58885   0.00000  Uiso   1.00
C781   C     0.31742   0.45060   0.49951   0.00000  Uiso   1.00
C782   C     0.09659   0.16589   0.61373   0.00000  Uiso   1.00
C783   C     0.39005   0.34106   0.41484   0.00000  Uiso   1.00
C784   C     0.42935   0.34537   0.38015   0.00000  Uiso   1.00
C785   C     0.40206   0.35047   0.58975   0.00000  Uiso   1.00
C786   C     0.36891   0.31226   0.59507   0.00000  Uiso   1.00
C787   C     0.08031   0.13706   0.41073   0.00000  Uiso   1.00
C788   C     0.03150   0.12624   0.39854   0.00000  Uiso   1.00
C789   C     0.21553   0.35823   0.44902   0.00000  Uiso   1.00
C790   C     0.21021   0.36729   0.39799   0.00000  Uiso   1.00
C791   C     0.36252   0.08735   0.58383   0.00000  Uiso   1.00
C792   C     0.18270   0.04984   0.50058   0.00000  Uiso   1.00
C793   C     0.32426   0.09116   0.61965   0.00000  Uiso   1.00
C794   C     0.34589   0.10322   0.41038   0.00000  Uiso   1.00
C795   C     0.38017   0.06553   0.40355   0.00000  Uiso   1.00
C796   C     0.12829   0.41979   0.58311   0.00000  Uiso   1.00
C797   C     0.16163   0.39208   0.61086   0.00000  Uiso   1.00
C798   C     0.38156   0.44769   0.57953   0.00000  Uiso   1.00
C799   C     0.43015   0.45822   0.59270   0.00000  Uiso   1.00
C800   C     0.11402   0.04423   0.42381   0.00000  Uiso   1.00
C801   C     0.09391   0.00144   0.44289   0.00000  Uiso   1.00
C802   C     0.11557   0.04964   0.58345   0.00000  Uiso   1.00
C803   C     0.19155   0.43825   0.50085   0.00000  Uiso   1.00
C804   C     0.07263   0.02159   0.58421   0.00000  Uiso   1.00
C805   C     0.38152   0.44059   0.41484   0.00000  Uiso   1.00
C806   C     0.42997   0.45709   0.40748   0.00000  Uiso   1.00
C807   C     0.31127   0.06061   0.49956   0.00000  Uiso   1.00
C808   C     0.02217   0.28207   0.35668   0.00000  Uiso   1.00
H809   H     0.03968   0.30780   0.37435   0.00000  Uiso   1.00
H810   H     0.31623   0.23860   0.38610   0.00000  Uiso   1.00
H811   H     0.29849   0.18326   0.39932   0.00000  Uiso   1.00
H812   H     0.38238   0.23119   0.43275   0.00000  Uiso   1.00
H813   H     0.38447   0.18917   0.39114   0.00000  Uiso   1.00
H814   H     0.03089   0.43090   0.47129   0.00000  Uiso   1.00
H815   H     0.00607   0.37681   0.47296   0.00000  Uiso   1.00
H816   H     0.47918   0.42150   0.50341   0.00000  Uiso   1.00
H817   H     0.02126   0.37158   0.55746   0.00000  Uiso   1.00
H818   H     0.04065   0.42692   0.55540   0.00000  Uiso   1.00
H819   H     0.13157   0.24937   0.51803   0.00000  Uiso   1.00
H820   H     0.46198   0.19125   0.62566   0.00000  Uiso   1.00
H821   H     0.16521   0.21907   0.47660   0.00000  Uiso   1.00
H822   H     0.19080   0.26226   0.50913   0.00000  Uiso   1.00
H823   H     0.11811   0.27330   0.43548   0.00000  Uiso   1.00
H824   H     0.17503   0.28546   0.42913   0.00000  Uiso   1.00
H825   H     0.31151   0.22644   0.56720   0.00000  Uiso   1.00
H826   H     0.29707   0.17569   0.59580   0.00000  Uiso   1.00
H827   H     0.31931   0.22081   0.62790   0.00000  Uiso   1.00
H828   H     0.38270   0.16842   0.61621   0.00000  Uiso   1.00
H829   H     0.39081   0.21683   0.58352   0.00000  Uiso   1.00
H830   H     0.10861   0.19300   0.59105   0.00000  Uiso   1.00
H831   H     0.46107   0.19184   0.37652   0.00000  Uiso   1.00
H832   H     0.07806   0.18051   0.64344   0.00000  Uiso   1.00
H833   H     0.12678   0.14772   0.62634   0.00000  Uiso   1.00
H834   H     0.03073   0.14750   0.58508   0.00000  Uiso   1.00
H835   H     0.05826   0.10675   0.61264   0.00000  Uiso   1.00
H836   H     0.46244   0.34781   0.39716   0.00000  Uiso   1.00
H837   H     0.43005   0.31617   0.35749   0.00000  Uiso   1.00
H838   H     0.42492   0.37492   0.35824   0.00000  Uiso   1.00
H839   H     0.38486   0.30595   0.42389   0.00000  Uiso   1.00
H840   H     0.35788   0.35028   0.39795   0.00000  Uiso   1.00
H841   H     0.37176   0.28928   0.56591   0.00000  Uiso   1.00
H842   H     0.03895   0.30836   0.62330   0.00000  Uiso   1.00
H843   H     0.37572   0.29376   0.62709   0.00000  Uiso   1.00
H844   H     0.33356   0.32528   0.59679   0.00000  Uiso   1.00
H845   H     0.43729   0.34063   0.59769   0.00000  Uiso   1.00
H846   H     0.39310   0.37298   0.61795   0.00000  Uiso   1.00
H847   H     0.00695   0.14280   0.42203   0.00000  Uiso   1.00
H848   H     0.02508   0.13696   0.36297   0.00000  Uiso   1.00
H849   H     0.02536   0.09025   0.40096   0.00000  Uiso   1.00
H850   H     0.08798   0.17247   0.40612   0.00000  Uiso   1.00
H851   H     0.10351   0.12264   0.38437   0.00000  Uiso   1.00
H852   H     0.18468   0.34537   0.38302   0.00000  Uiso   1.00
H853   H     0.21910   0.06337   0.37572   0.00000  Uiso   1.00
H854   H     0.19925   0.40198   0.39222   0.00000  Uiso   1.00
H855   H     0.24321   0.36168   0.37988   0.00000  Uiso   1.00
H856   H     0.24212   0.38020   0.46195   0.00000  Uiso   1.00
H857   H     0.22998   0.32475   0.45474   0.00000  Uiso   1.00
H858   H     0.29089   0.09592   0.60357   0.00000  Uiso   1.00
H859   H     0.32356   0.06078   0.64098   0.00000  Uiso   1.00
H860   H     0.32969   0.11940   0.64245   0.00000  Uiso   1.00
H861   H     0.36736   0.05260   0.57354   0.00000  Uiso   1.00
H862   H     0.39520   0.09527   0.59998   0.00000  Uiso   1.00
H863   H     0.37930   0.04219   0.43280   0.00000  Uiso   1.00
H864   H     0.28052   0.43649   0.62423   0.00000  Uiso   1.00
H865   H     0.37278   0.04730   0.37190   0.00000  Uiso   1.00
H866   H     0.41499   0.07904   0.40043   0.00000  Uiso   1.00
H867   H     0.31075   0.09324   0.40336   0.00000  Uiso   1.00
H868   H     0.35330   0.12683   0.38258   0.00000  Uiso   1.00
H869   H     0.14965   0.35751   0.61370   0.00000  Uiso   1.00
H870   H     0.19612   0.39193   0.59500   0.00000  Uiso   1.00
H871   H     0.16379   0.40592   0.64572   0.00000  Uiso   1.00
H872   H     0.13794   0.45466   0.58343   0.00000  Uiso   1.00
H873   H     0.09545   0.41795   0.60209   0.00000  Uiso   1.00
H874   H     0.44885   0.47288   0.56307   0.00000  Uiso   1.00
H875   H     0.28137   0.43690   0.37544   0.00000  Uiso   1.00
H876   H     0.42944   0.48258   0.62085   0.00000  Uiso   1.00
H877   H     0.44865   0.42831   0.60439   0.00000  Uiso   1.00
H878   H     0.36598   0.47958   0.56964   0.00000  Uiso   1.00
H879   H     0.36153   0.43592   0.60955   0.00000  Uiso   1.00
H880   H     0.11486   0.48772   0.47066   0.00000  Uiso   1.00
H881   H     0.05899   0.00776   0.45646   0.00000  Uiso   1.00
H882   H     0.09242   0.47651   0.41537   0.00000  Uiso   1.00
H883   H     0.09247   0.05366   0.39491   0.00000  Uiso   1.00
H884   H     0.14773   0.03737   0.40823   0.00000  Uiso   1.00
H885   H     0.07276   0.00008   0.55368   0.00000  Uiso   1.00
H886   H     0.21741   0.06256   0.62466   0.00000  Uiso   1.00
H887   H     0.07171   0.00058   0.61541   0.00000  Uiso   1.00
H888   H     0.04120   0.04195   0.58375   0.00000  Uiso   1.00
H889   H     0.14416   0.02623   0.58222   0.00000  Uiso   1.00
H890   H     0.11968   0.06708   0.61623   0.00000  Uiso   1.00
H891   H     0.43922   0.47896   0.43603   0.00000  Uiso   1.00
H892   H     0.45482   0.42945   0.40589   0.00000  Uiso   1.00
H893   H     0.43238   0.47622   0.37508   0.00000  Uiso   1.00
H894   H     0.36977   0.42332   0.38415   0.00000  Uiso   1.00
H895   H     0.35994   0.47047   0.41778   0.00000  Uiso   1.00
H896   H     0.29940   0.22426   0.44382   0.00000  Uiso   1.00
N897   N     0.00000   0.25000   0.61907   0.00000  Uiso   1.00
N898   N     0.00000   0.25000   0.38093   0.00000  Uiso   1.00
N899   N     0.25000   0.00000   0.61907   0.00000  Uiso   1.00
N900   N     0.25000   0.00000   0.38093   0.00000  Uiso   1.00
O901   O     0.04581   0.20419   0.53821   0.00000  Uiso   1.00
O902   O     0.20420   0.04581   0.46179   0.00000  Uiso   1.00
O903   O     0.20420   0.04581   0.53821   0.00000  Uiso   1.00
O904   O     0.29581   0.45419   0.46179   0.00000  Uiso   1.00
O905   O     0.20420   0.45419   0.46179   0.00000  Uiso   1.00
O906   O     0.29581   0.04581   0.53821   0.00000  Uiso   1.00
O907   O     0.29581   0.04581   0.46179   0.00000  Uiso   1.00
O908   O     0.20420   0.45419   0.53821   0.00000  Uiso   1.00
O909   O     0.45420   0.29581   0.46179   0.00000  Uiso   1.00
O910   O     0.45420   0.29581   0.53821   0.00000  Uiso   1.00
O911   O     0.04581   0.20419   0.46179   0.00000  Uiso   1.00
O912   O     0.45420   0.20419   0.46179   0.00000  Uiso   1.00
O913   O     0.04581   0.29581   0.53821   0.00000  Uiso   1.00
O914   O     0.04581   0.29581   0.46179   0.00000  Uiso   1.00
O915   O     0.45420   0.20419   0.53821   0.00000  Uiso   1.00
O916   O     0.29581   0.45419   0.53821   0.00000  Uiso   1.00
Zn917  Zn    0.00000   0.25000   0.55104   0.00000  Uiso   1.00
Zn918  Zn    0.00000   0.25000   0.44896   0.00000  Uiso   1.00
Zn919  Zn    0.25000   0.00000   0.55104   0.00000  Uiso   1.00
Zn920  Zn    0.25000   0.00000   0.44896   0.00000  Uiso   1.00
C921   C     0.55723   0.18606   0.49993   0.00000  Uiso   1.00
C922   C     0.97851   0.21756   0.64330   0.00000  Uiso   1.00
C923   C     0.97816   0.21782   0.35796   0.00000  Uiso   1.00
C924   C     0.52179   0.28233   0.64196   0.00000  Uiso   1.00
C925   C     0.73245   0.03505   0.35747   0.00000  Uiso   1.00
C926   C     0.76725   0.46481   0.64253   0.00000  Uiso   1.00
C927   C     0.76745   0.46491   0.35726   0.00000  Uiso   1.00
C928   C     0.73177   0.03472   0.64278   0.00000  Uiso   1.00
C929   C     0.86939   0.16564   0.46078   0.00000  Uiso   1.00
C930   C     0.58739   0.37927   0.52279   0.00000  Uiso   1.00
C931   C     0.63740   0.33107   0.47539   0.00000  Uiso   1.00
C932   C     0.93843   0.31047   0.50030   0.00000  Uiso   1.00
C933   C     0.87318   0.15904   0.54292   0.00000  Uiso   1.00
C934   C     0.58684   0.11927   0.54305   0.00000  Uiso   1.00
C935   C     0.89568   0.36854   0.45787   0.00000  Uiso   1.00
C936   C     0.89861   0.37235   0.54258   0.00000  Uiso   1.00
C937   C     0.59161   0.11976   0.45828   0.00000  Uiso   1.00
C938   C     0.67051   0.36409   0.47513   0.00000  Uiso   1.00
C939   C     0.85547   0.11654   0.54190   0.00000  Uiso   1.00
C940   C     0.85020   0.12351   0.45772   0.00000  Uiso   1.00
C941   C     0.62510   0.40262   0.53449   0.00000  Uiso   1.00
C942   C     0.88032   0.41522   0.53998   0.00000  Uiso   1.00
C943   C     0.93309   0.19922   0.50057   0.00000  Uiso   1.00
C944   C     0.61581   0.07969   0.46089   0.00000  Uiso   1.00
C945   C     0.61532   0.08162   0.54295   0.00000  Uiso   1.00
C946   C     0.87836   0.41156   0.45747   0.00000  Uiso   1.00
C947   C     0.59529   0.34080   0.49760   0.00000  Uiso   1.00
C948   C     0.88930   0.17716   0.50185   0.00000  Uiso   1.00
C949   C     0.90813   0.34935   0.50064   0.00000  Uiso   1.00
C950   C     0.58021   0.14229   0.50030   0.00000  Uiso   1.00
C951   C     0.84151   0.09920   0.49919   0.00000  Uiso   1.00
C952   C     0.66249   0.40094   0.50368   0.00000  Uiso   1.00
C953   C     0.63763   0.07037   0.50174   0.00000  Uiso   1.00
C954   C     0.56093   0.30897   0.49932   0.00000  Uiso   1.00
C955   C     0.86171   0.42880   0.49864   0.00000  Uiso   1.00
C956   C     0.86629   0.20002   0.42260   0.00000  Uiso   1.00
C957   C     0.81703   0.21204   0.41240   0.00000  Uiso   1.00
C958   C     0.53969   0.39588   0.53572   0.00000  Uiso   1.00
C959   C     0.51242   0.40677   0.49320   0.00000  Uiso   1.00
C960   C     0.64714   0.28545   0.45489   0.00000  Uiso   1.00
C961   C     0.65935   0.25206   0.49206   0.00000  Uiso   1.00
C962   C     0.87011   0.18678   0.58614   0.00000  Uiso   1.00
C963   C     0.82150   0.20319   0.59480   0.00000  Uiso   1.00
C964   C     0.56556   0.13424   0.58885   0.00000  Uiso   1.00
C965   C     0.81742   0.45060   0.49951   0.00000  Uiso   1.00
C966   C     0.59659   0.16589   0.61373   0.00000  Uiso   1.00
C967   C     0.89005   0.34106   0.41484   0.00000  Uiso   1.00
C968   C     0.92935   0.34537   0.38015   0.00000  Uiso   1.00
C969   C     0.90206   0.35047   0.58975   0.00000  Uiso   1.00
C970   C     0.86891   0.31226   0.59507   0.00000  Uiso   1.00
C971   C     0.58031   0.13706   0.41073   0.00000  Uiso   1.00
C972   C     0.53150   0.12624   0.39854   0.00000  Uiso   1.00
C973   C     0.71553   0.35823   0.44902   0.00000  Uiso   1.00
C974   C     0.71021   0.36729   0.39799   0.00000  Uiso   1.00
C975   C     0.86252   0.08735   0.58383   0.00000  Uiso   1.00
C976   C     0.68270   0.04984   0.50058   0.00000  Uiso   1.00
C977   C     0.82426   0.09116   0.61965   0.00000  Uiso   1.00
C978   C     0.84589   0.10322   0.41038   0.00000  Uiso   1.00
C979   C     0.88017   0.06553   0.40355   0.00000  Uiso   1.00
C980   C     0.62829   0.41979   0.58311   0.00000  Uiso   1.00
C981   C     0.66163   0.39208   0.61086   0.00000  Uiso   1.00
C982   C     0.88156   0.44769   0.57953   0.00000  Uiso   1.00
C983   C     0.93015   0.45822   0.59270   0.00000  Uiso   1.00
C984   C     0.61402   0.04423   0.42381   0.00000  Uiso   1.00
C985   C     0.59391   0.00144   0.44289   0.00000  Uiso   1.00
C986   C     0.61557   0.04964   0.58345   0.00000  Uiso   1.00
C987   C     0.69155   0.43825   0.50085   0.00000  Uiso   1.00
C988   C     0.57263   0.02159   0.58421   0.00000  Uiso   1.00
C989   C     0.88152   0.44059   0.41484   0.00000  Uiso   1.00
C990   C     0.92997   0.45709   0.40748   0.00000  Uiso   1.00
C991   C     0.81127   0.06061   0.49956   0.00000  Uiso   1.00
C992   C     0.52217   0.28207   0.35668   0.00000  Uiso   1.00
H993   H     0.53968   0.30780   0.37435   0.00000  Uiso   1.00
H994   H     0.81623   0.23860   0.38610   0.00000  Uiso   1.00
H995   H     0.79849   0.18326   0.39932   0.00000  Uiso   1.00
H996   H     0.88238   0.23119   0.43275   0.00000  Uiso   1.00
H997   H     0.88447   0.18917   0.39114   0.00000  Uiso   1.00
H998   H     0.53089   0.43090   0.47129   0.00000  Uiso   1.00
H999   H     0.50607   0.37681   0.47296   0.00000  Uiso   1.00
H1000  H     0.97918   0.42150   0.50341   0.00000  Uiso   1.00
H1001  H     0.52126   0.37158   0.55746   0.00000  Uiso   1.00
H1002  H     0.54065   0.42692   0.55540   0.00000  Uiso   1.00
H1003  H     0.63157   0.24937   0.51803   0.00000  Uiso   1.00
H1004  H     0.96198   0.19125   0.62566   0.00000  Uiso   1.00
H1005  H     0.66521   0.21907   0.47660   0.00000  Uiso   1.00
H1006  H     0.69080   0.26226   0.50913   0.00000  Uiso   1.00
H1007  H     0.61811   0.27330   0.43548   0.00000  Uiso   1.00
H1008  H     0.67503   0.28546   0.42913   0.00000  Uiso   1.00
H1009  H     0.81151   0.22644   0.56720   0.00000  Uiso   1.00
H1010  H     0.79707   0.17569   0.59580   0.00000  Uiso   1.00
H1011  H     0.81931   0.22081   0.62790   0.00000  Uiso   1.00
H1012  H     0.88270   0.16842   0.61621   0.00000  Uiso   1.00
H1013  H     0.89081   0.21683   0.58352   0.00000  Uiso   1.00
H1014  H     0.60861   0.19300   0.59105   0.00000  Uiso   1.00
H1015  H     0.96107   0.19184   0.37652   0.00000  Uiso   1.00
H1016  H     0.57806   0.18051   0.64344   0.00000  Uiso   1.00
H1017  H     0.62678   0.14772   0.62634   0.00000  Uiso   1.00
H1018  H     0.53073   0.14750   0.58508   0.00000  Uiso   1.00
H1019  H     0.55826   0.10675   0.61264   0.00000  Uiso   1.00
H1020  H     0.96244   0.34781   0.39716   0.00000  Uiso   1.00
H1021  H     0.93005   0.31617   0.35749   0.00000  Uiso   1.00
H1022  H     0.92492   0.37492   0.35824   0.00000  Uiso   1.00
H1023  H     0.88486   0.30595   0.42389   0.00000  Uiso   1.00
H1024  H     0.85788   0.35028   0.39795   0.00000  Uiso   1.00
H1025  H     0.87176   0.28928   0.56591   0.00000  Uiso   1.00
H1026  H     0.53895   0.30836   0.62330   0.00000  Uiso   1.00
H1027  H     0.87572   0.29376   0.62709   0.00000  Uiso   1.00
H1028  H     0.83356   0.32528   0.59679   0.00000  Uiso   1.00
H1029  H     0.93729   0.34063   0.59769   0.00000  Uiso   1.00
H1030  H     0.89310   0.37298   0.61795   0.00000  Uiso   1.00
H1031  H     0.50695   0.14280   0.42203   0.00000  Uiso   1.00
H1032  H     0.52508   0.13696   0.36297   0.00000  Uiso   1.00
H1033  H     0.52536   0.09025   0.40096   0.00000  Uiso   1.00
H1034  H     0.58798   0.17247   0.40612   0.00000  Uiso   1.00
H1035  H     0.60351   0.12264   0.38437   0.00000  Uiso   1.00
H1036  H     0.68468   0.34537   0.38302   0.00000  Uiso   1.00
H1037  H     0.71910   0.06337   0.37572   0.00000  Uiso   1.00
H1038  H     0.69925   0.40198   0.39222   0.00000  Uiso   1.00
H1039  H     0.74321   0.36168   0.37988   0.00000  Uiso   1.00
H1040  H     0.74212   0.38020   0.46195   0.00000  Uiso   1.00
H1041  H     0.72998   0.32475   0.45474   0.00000  Uiso   1.00
H1042  H     0.79089   0.09592   0.60357   0.00000  Uiso   1.00
H1043  H     0.82356   0.06078   0.64098   0.00000  Uiso   1.00
H1044  H     0.82969   0.11940   0.64245   0.00000  Uiso   1.00
H1045  H     0.86736   0.05260   0.57354   0.00000  Uiso   1.00
H1046  H     0.89520   0.09527   0.59998   0.00000  Uiso   1.00
H1047  H     0.87930   0.04219   0.43280   0.00000  Uiso   1.00
H1048  H     0.78052   0.43649   0.62423   0.00000  Uiso   1.00
H1049  H     0.87278   0.04730   0.37190   0.00000  Uiso   1.00
H1050  H     0.91499   0.07904   0.40043   0.00000  Uiso   1.00
H1051  H     0.81075   0.09324   0.40336   0.00000  Uiso   1.00
H1052  H     0.85330   0.12683   0.38258   0.00000  Uiso   1.00
H1053  H     0.64965   0.35751   0.61370   0.00000  Uiso   1.00
H1054  H     0.69612   0.39193   0.59500   0.00000  Uiso   1.00
H1055  H     0.66379   0.40592   0.64572   0.00000  Uiso   1.00
H1056  H     0.63794   0.45466   0.58343   0.00000  Uiso   1.00
H1057  H     0.59545   0.41795   0.60209   0.00000  Uiso   1.00
H1058  H     0.94885   0.47288   0.56307   0.00000  Uiso   1.00
H1059  H     0.78137   0.43690   0.37544   0.00000  Uiso   1.00
H1060  H     0.92944   0.48258   0.62085   0.00000  Uiso   1.00
H1061  H     0.94865   0.42831   0.60439   0.00000  Uiso   1.00
H1062  H     0.86598   0.47958   0.56964   0.00000  Uiso   1.00
H1063  H     0.86153   0.43592   0.60955   0.00000  Uiso   1.00
H1064  H     0.61486   0.48772   0.47066   0.00000  Uiso   1.00
H1065  H     0.55899   0.00776   0.45646   0.00000  Uiso   1.00
H1066  H     0.59242   0.47651   0.41537   0.00000  Uiso   1.00
H1067  H     0.59247   0.05366   0.39491   0.00000  Uiso   1.00
H1068  H     0.64773   0.03737   0.40823   0.00000  Uiso   1.00
H1069  H     0.57276   0.00008   0.55368   0.00000  Uiso   1.00
H1070  H     0.71741   0.06256   0.62466   0.00000  Uiso   1.00
H1071  H     0.57171   0.00058   0.61541   0.00000  Uiso   1.00
H1072  H     0.54120   0.04195   0.58375   0.00000  Uiso   1.00
H1073  H     0.64416   0.02623   0.58222   0.00000  Uiso   1.00
H1074  H     0.61968   0.06708   0.61623   0.00000  Uiso   1.00
H1075  H     0.93922   0.47896   0.43603   0.00000  Uiso   1.00
H1076  H     0.95482   0.42945   0.40589   0.00000  Uiso   1.00
H1077  H     0.93238   0.47622   0.37508   0.00000  Uiso   1.00
H1078  H     0.86977   0.42332   0.38415   0.00000  Uiso   1.00
H1079  H     0.85994   0.47047   0.41778   0.00000  Uiso   1.00
H1080  H     0.79940   0.22426   0.44382   0.00000  Uiso   1.00
N1081  N     0.50000   0.25000   0.61907   0.00000  Uiso   1.00
N1082  N     0.50000   0.25000   0.38093   0.00000  Uiso   1.00
N1083  N     0.75000   0.00000   0.61907   0.00000  Uiso   1.00
N1084  N     0.75000   0.00000   0.38093   0.00000  Uiso   1.00
O1085  O     0.54581   0.20419   0.53821   0.00000  Uiso   1.00
O1086  O     0.70420   0.04581   0.46179   0.00000  Uiso   1.00
O1087  O     0.70420   0.04581   0.53821   0.00000  Uiso   1.00
O1088  O     0.79581   0.45419   0.46179   0.00000  Uiso   1.00
O1089  O     0.70420   0.45419   0.46179   0.00000  Uiso   1.00
O1090  O     0.79581   0.04581   0.53821   0.00000  Uiso   1.00
O1091  O     0.79581   0.04581   0.46179   0.00000  Uiso   1.00
O1092  O     0.70420   0.45419   0.53821   0.00000  Uiso   1.00
O1093  O     0.95420   0.29581   0.46179   0.00000  Uiso   1.00
O1094  O     0.95420   0.29581   0.53821   0.00000  Uiso   1.00
O1095  O     0.54581   0.20419   0.46179   0.00000  Uiso   1.00
O1096  O     0.95420   0.20419   0.46179   0.00000  Uiso   1.00
O1097  O     0.54581   0.29581   0.53821   0.00000  Uiso   1.00
O1098  O     0.54581   0.29581   0.46179   0.00000  Uiso   1.00
O1099  O     0.95420   0.20419   0.53821   0.00000  Uiso   1.00
O1100  O     0.79581   0.45419   0.53821   0.00000  Uiso   1.00
Zn1101 Zn    0.50000   0.25000   0.55104   0.00000  Uiso   1.00
Zn1102 Zn    0.50000   0.25000   0.44896   0.00000  Uiso   1.00
Zn1103 Zn    0.75000   0.00000   0.55104   0.00000  Uiso   1.00
Zn1104 Zn    0.75000   0.00000   0.44896   0.00000  Uiso   1.00
C1105  C     0.05723   0.68606   0.49993   0.00000  Uiso   1.00
C1106  C     0.47851   0.71756   0.64330   0.00000  Uiso   1.00
C1107  C     0.47816   0.71782   0.35796   0.00000  Uiso   1.00
C1108  C     0.02179   0.78233   0.64196   0.00000  Uiso   1.00
C1109  C     0.23245   0.53505   0.35747   0.00000  Uiso   1.00
C1110  C     0.26725   0.96481   0.64253   0.00000  Uiso   1.00
C1111  C     0.26745   0.96491   0.35726   0.00000  Uiso   1.00
C1112  C     0.23177   0.53472   0.64278   0.00000  Uiso   1.00
C1113  C     0.36939   0.66564   0.46078   0.00000  Uiso   1.00
C1114  C     0.08739   0.87927   0.52279   0.00000  Uiso   1.00
C1115  C     0.13740   0.83107   0.47539   0.00000  Uiso   1.00
C1116  C     0.43843   0.81047   0.50030   0.00000  Uiso   1.00
C1117  C     0.37318   0.65904   0.54292   0.00000  Uiso   1.00
C1118  C     0.08684   0.61927   0.54305   0.00000  Uiso   1.00
C1119  C     0.39568   0.86854   0.45787   0.00000  Uiso   1.00
C1120  C     0.39861   0.87235   0.54258   0.00000  Uiso   1.00
C1121  C     0.09161   0.61976   0.45828   0.00000  Uiso   1.00
C1122  C     0.17051   0.86409   0.47513   0.00000  Uiso   1.00
C1123  C     0.35547   0.61654   0.54190   0.00000  Uiso   1.00
C1124  C     0.35020   0.62351   0.45772   0.00000  Uiso   1.00
C1125  C     0.12510   0.90262   0.53449   0.00000  Uiso   1.00
C1126  C     0.38032   0.91522   0.53998   0.00000  Uiso   1.00
C1127  C     0.43309   0.69922   0.50057   0.00000  Uiso   1.00
C1128  C     0.11581   0.57969   0.46089   0.00000  Uiso   1.00
C1129  C     0.11532   0.58162   0.54295   0.00000  Uiso   1.00
C1130  C     0.37836   0.91156   0.45747   0.00000  Uiso   1.00
C1131  C     0.09529   0.84080   0.49760   0.00000  Uiso   1.00
C1132  C     0.38930   0.67716   0.50185   0.00000  Uiso   1.00
C1133  C     0.40813   0.84935   0.50064   0.00000  Uiso   1.00
C1134  C     0.08021   0.64229   0.50030   0.00000  Uiso   1.00
C1135  C     0.34151   0.59920   0.49919   0.00000  Uiso   1.00
C1136  C     0.16249   0.90094   0.50368   0.00000  Uiso   1.00
C1137  C     0.13763   0.57037   0.50174   0.00000  Uiso   1.00
C1138  C     0.06093   0.80897   0.49932   0.00000  Uiso   1.00
C1139  C     0.36171   0.92880   0.49864   0.00000  Uiso   1.00
C1140  C     0.36629   0.70002   0.42260   0.00000  Uiso   1.00
C1141  C     0.31703   0.71204   0.41240   0.00000  Uiso   1.00
C1142  C     0.03969   0.89588   0.53572   0.00000  Uiso   1.00
C1143  C     0.01242   0.90677   0.49320   0.00000  Uiso   1.00
C1144  C     0.14714   0.78545   0.45489   0.00000  Uiso   1.00
C1145  C     0.15935   0.75206   0.49206   0.00000  Uiso   1.00
C1146  C     0.37011   0.68678   0.58614   0.00000  Uiso   1.00
C1147  C     0.32150   0.70319   0.59480   0.00000  Uiso   1.00
C1148  C     0.06556   0.63424   0.58885   0.00000  Uiso   1.00
C1149  C     0.31742   0.95060   0.49951   0.00000  Uiso   1.00
C1150  C     0.09659   0.66589   0.61373   0.00000  Uiso   1.00
C1151  C     0.39005   0.84106   0.41484   0.00000  Uiso   1.00
C1152  C     0.42935   0.84537   0.38015   0.00000  Uiso   1.00
C1153  C     0.40206   0.85047   0.58975   0.00000  Uiso   1.00
C1154  C     0.36891   0.81226   0.59507   0.00000  Uiso   1.00
C1155  C     0.08031   0.63706   0.41073   0.00000  Uiso   1.00
C1156  C     0.03150   0.62624   0.39854   0.00000  Uiso   1.00
C1157  C     0.21553   0.85823   0.44902   0.00000  Uiso   1.00
C1158  C     0.21021   0.86729   0.39799   0.00000  Uiso   1.00
C1159  C     0.36252   0.58735   0.58383   0.00000  Uiso   1.00
C1160  C     0.18270   0.54984   0.50058   0.00000  Uiso   1.00
C1161  C     0.32426   0.59116   0.61965   0.00000  Uiso   1.00
C1162  C     0.34589   0.60322   0.41038   0.00000  Uiso   1.00
C1163  C     0.38017   0.56553   0.40355   0.00000  Uiso   1.00
C1164  C     0.12829   0.91979   0.58311   0.00000  Uiso   1.00
C1165  C     0.16163   0.89208   0.61086   0.00000  Uiso   1.00
C1166  C     0.38156   0.94769   0.57953   0.00000  Uiso   1.00
C1167  C     0.43015   0.95822   0.59270   0.00000  Uiso   1.00
C1168  C     0.11402   0.54423   0.42381   0.00000  Uiso   1.00
C1169  C     0.09391   0.50144   0.44289   0.00000  Uiso   1.00
C1170  C     0.11557   0.54964   0.58345   0.00000  Uiso   1.00
C1171  C     0.19155   0.93825   0.50085   0.00000  Uiso   1.00
C1172  C     0.07263   0.52159   0.58421   0.00000  Uiso   1.00
C1173  C     0.38152   0.94059   0.41484   0.00000  Uiso   1.00
C1174  C     0.42997   0.95709   0.40748   0.00000  Uiso   1.00
C1175  C     0.31127   0.56061   0.49956   0.00000  Uiso   1.00
C1176  C     0.02217   0.78207   0.35668   0.00000  Uiso   1.00
H1177  H     0.03968   0.80780   0.37435   0.00000  Uiso   1.00
H1178  H     0.31623   0.73860   0.38610   0.00000  Uiso   1.00
H1179  H     0.29849   0.68326   0.39932   0.00000  Uiso   1.00
H1180  H     0.38238   0.73119   0.43275   0.00000  Uiso   1.00
H1181  H     0.38447   0.68917   0.39114   0.00000  Uiso   1.00
H1182  H     0.03089   0.93090   0.47129   0.00000  Uiso   1.00
H1183  H     0.00607   0.87681   0.47296   0.00000  Uiso   1.00
H1184  H     0.47918   0.92150   0.50341   0.00000  Uiso   1.00
H1185  H     0.02126   0.87158   0.55746   0.00000  Uiso   1.00
H1186  H     0.04065   0.92692   0.55540   0.00000  Uiso   1.00
H1187  H     0.13157   0.74937   0.51803   0.00000  Uiso   1.00
H1188  H     0.46198   0.69125   0.62566   0.00000  Uiso   1.00
H1189  H     0.16521   0.71907   0.47660   0.00000  Uiso   1.00
H1190  H     0.19080   0.76226   0.50913   0.00000  Uiso   1.00
H1191  H     0.11811   0.77330   0.43548   0.00000  Uiso   1.00
H1192  H     0.17503   0.78546   0.42913   0.00000  Uiso   1.00
H1193  H     0.31151   0.72644   0.56720   0.00000  Uiso   1.00
H1194  H     0.29707   0.67569   0.59580   0.00000  Uiso   1.00
H1195  H     0.31931   0.72081   0.62790   0.00000  Uiso   1.00
H1196  H     0.38270   0.66842   0.61621   0.00000  Uiso   1.00
H1197  H     0.39081   0.71683   0.58352   0.00000  Uiso   1.00
H1198  H     0.10861   0.69300   0.59105   0.00000  Uiso   1.00
H1199  H     0.46107   0.69184   0.37652   0.00000  Uiso   1.00
H1200  H     0.07806   0.68051   0.64344   0.00000  Uiso   1.00
H1201  H     0.12678   0.64772   0.62634   0.00000  Uiso   1.00
H1202  H     0.03073   0.64750   0.58508   0.00000  Uiso   1.00
H1203  H     0.05826   0.60675   0.61264   0.00000  Uiso   1.00
H1204  H     0.46244   0.84781   0.39716   0.00000  Uiso   1.00
H1205  H     0.43005   0.81617   0.35749   0.00000  Uiso   1.00
H1206  H     0.42492   0.87492   0.35824   0.00000  Uiso   1.00
H1207  H     0.38486   0.80595   0.42389   0.00000  Uiso   1.00
H1208  H     0.35788   0.85028   0.39795   0.00000  Uiso   1.00
H1209  H     0.37176   0.78928   0.56591   0.00000  Uiso   1.00
H1210  H     0.03895   0.80836   0.62330   0.00000  Uiso   1.00
H1211  H     0.37572   0.79376   0.62709   0.00000  Uiso   1.00
H1212  H     0.33356   0.82528   0.59679   0.00000  Uiso   1.00
H1213  H     0.43729   0.84063   0.59769   0.00000  Uiso   1.00
H1214  H     0.39310   0.87298   0.61795   0.00000  Uiso   1.00
H1215  H     0.00695   0.64280   0.42203   0.00000  Uiso   1.00
H1216  H     0.02508   0.63696   0.36297   0.00000  Uiso   1.00
H1217  H     0.02536   0.59025   0.40096   0.00000  Uiso   1.00
H1218  H     0.08798   0.67247   0.40612   0.00000  Uiso   1.00
H1219  H     0.10351   0.62264   0.38437   0.00000  Uiso   1.00
H1220  H     0.18468   0.84537   0.38302   0.00000  Uiso   1.00
H1221  H     0.21910   0.56337   0.37572   0.00000  Uiso   1.00
H1222  H     0.19925   0.90198   0.39222   0.00000  Uiso   1.00
H1223  H     0.24321   0.86168   0.37988   0.00000  Uiso   1.00
H1224  H     0.24212   0.88020   0.46195   0.00000  Uiso   1.00
H1225  H     0.22998   0.82475   0.45474   0.00000  Uiso   1.00
H1226  H     0.29089   0.59592   0.60357   0.00000  Uiso   1.00
H1227  H     0.32356   0.56078   0.64098   0.00000  Uiso   1.00
H1228  H     0.32969   0.61940   0.64245   0.00000  Uiso   1.00
H1229  H     0.36736   0.55260   0.57354   0.00000  Uiso   1.00
H1230  H     0.39520   0.59527   0.59998   0.00000  Uiso   1.00
H1231  H     0.37930   0.54219   0.43280   0.00000  Uiso   1.00
H1232  H     0.28052   0.93649   0.62423   0.00000  Uiso   1.00
H1233  H     0.37278   0.54730   0.37190   0.00000  Uiso   1.00
H1234  H     0.41499   0.57904   0.40043   0.00000  Uiso   1.00
H1235  H     0.31075   0.59324   0.40336   0.00000  Uiso   1.00
H1236  H     0.35330   0.62683   0.38258   0.00000  Uiso   1.00
H1237  H     0.14965   0.85751   0.61370   0.00000  Uiso   1.00
H1238  H     0.19612   0.89193   0.59500   0.00000  Uiso   1.00
H1239  H     0.16379   0.90592   0.64572   0.00000  Uiso   1.00
H1240  H     0.13794   0.95466   0.58343   0.00000  Uiso   1.00
H1241  H     0.09545   0.91795   0.60209   0.00000  Uiso   1.00
H1242  H     0.44885   0.97288   0.56307   0.00000  Uiso   1.00
H1243  H     0.28137   0.93690   0.37544   0.00000  Uiso   1.00
H1244  H     0.42944   0.98258   0.62085   0.00000  Uiso   1.00
H1245  H     0.44865   0.92831   0.60439   0.00000  Uiso   1.00
H1246  H     0.36598   0.97958   0.56964   0.00000  Uiso   1.00
H1247  H     0.36153   0.93592   0.60955   0.00000  Uiso   1.00
H1248  H     0.11486   0.98772   0.47066   0.00000  Uiso   1.00
H1249  H     0.05899   0.50776   0.45646   0.00000  Uiso   1.00
H1250  H     0.09242   0.97651   0.41537   0.00000  Uiso   1.00
H1251  H     0.09247   0.55366   0.39491   0.00000  Uiso   1.00
H1252  H     0.14773   0.53737   0.40823   0.00000  Uiso   1.00
H1253  H     0.07276   0.50008   0.55368   0.00000  Uiso   1.00
H1254  H     0.21741   0.56256   0.62466   0.00000  Uiso   1.00
H1255  H     0.07171   0.50058   0.61541   0.00000  Uiso   1.00
H1256  H     0.04120   0.54195   0.58375   0.00000  Uiso   1.00
H1257  H     0.14416   0.52623   0.58222   0.00000  Uiso   1.00
H1258  H     0.11968   0.56708   0.61623   0.00000  Uiso   1.00
H1259  H     0.43922   0.97896   0.43603   0.00000  Uiso   1.00
H1260  H     0.45482   0.92945   0.40589   0.00000  Uiso   1.00
H1261  H     0.43238   0.97622   0.37508   0.00000  Uiso   1.00
H1262  H     0.36977   0.92332   0.38415   0.00000  Uiso   1.00
H1263  H     0.35994   0.97047   0.41778   0.00000  Uiso   1.00
H1264  H     0.29940   0.72426   0.44382   0.00000  Uiso   1.00
N1265  N     0.00000   0.75000   0.61907   0.00000  Uiso   1.00
N1266  N     0.00000   0.75000   0.38093   0.00000  Uiso   1.00
N1267  N     0.25000   0.50000   0.61907   0.00000  Uiso   1.00
N1268  N     0.25000   0.50000   0.38093   0.00000  Uiso   1.00
O1269  O     0.04581   0.70419   0.53821   0.00000  Uiso   1.00
O1270  O     0.20420   0.54581   0.46179   0.00000  Uiso   1.00
O1271  O     0.20420   0.54581   0.53821   0.00000  Uiso   1.00
O1272  O     0.29581   0.95419   0.46179   0.00000  Uiso   1.00
O1273  O     0.20420   0.95419   0.46179   0.00000  Uiso   1.00
O1274  O     0.29581   0.54581   0.53821   0.00000  Uiso   1.00
O1275  O     0.29581   0.54581   0.46179   0.00000  Uiso   1.00
O1276  O     0.20420   0.95419   0.53821   0.00000  Uiso   1.00
O1277  O     0.45420   0.79581   0.46179   0.00000  Uiso   1.00
O1278  O     0.45420   0.79581   0.53821   0.00000  Uiso   1.00
O1279  O     0.04581   0.70419   0.46179   0.00000  Uiso   1.00
O1280  O     0.45420   0.70419   0.46179   0.00000  Uiso   1.00
O1281  O     0.04581   0.79581   0.53821   0.00000  Uiso   1.00
O1282  O     0.04581   0.79581   0.46179   0.00000  Uiso   1.00
O1283  O     0.45420   0.70419   0.53821   0.00000  Uiso   1.00
O1284  O     0.29581   0.95419   0.53821   0.00000  Uiso   1.00
Zn1285 Zn    0.00000   0.75000   0.55104   0.00000  Uiso   1.00
Zn1286 Zn    0.00000   0.75000   0.44896   0.00000  Uiso   1.00
Zn1287 Zn    0.25000   0.50000   0.55104   0.00000  Uiso   1.00
Zn1288 Zn    0.25000   0.50000   0.44896   0.00000  Uiso   1.00
C1289  C     0.55723   0.68606   0.49993   0.00000  Uiso   1.00
C1290  C     0.97851   0.71756   0.64330   0.00000  Uiso   1.00
C1291  C     0.97816   0.71782   0.35796   0.00000  Uiso   1.00
C1292  C     0.52179   0.78233   0.64196   0.00000  Uiso   1.00
C1293  C     0.73245   0.53505   0.35747   0.00000  Uiso   1.00
C1294  C     0.76725   0.96481   0.64253   0.00000  Uiso   1.00
C1295  C     0.76745   0.96491   0.35726   0.00000  Uiso   1.00
C1296  C     0.73177   0.53472   0.64278   0.00000  Uiso   1.00
C1297  C     0.86939   0.66564   0.46078   0.00000  Uiso   1.00
C1298  C     0.58739   0.87927   0.52279   0.00000  Uiso   1.00
C1299  C     0.63740   0.83107   0.47539   0.00000  Uiso   1.00
C1300  C     0.93843   0.81047   0.50030   0.00000  Uiso   1.00
C1301  C     0.87318   0.65904   0.54292   0.00000  Uiso   1.00
C1302  C     0.58684   0.61927   0.54305   0.00000  Uiso   1.00
C1303  C     0.89568   0.86854   0.45787   0.00000  Uiso   1.00
C1304  C     0.89861   0.87235   0.54258   0.00000  Uiso   1.00
C1305  C     0.59161   0.61976   0.45828   0.00000  Uiso   1.00
C1306  C     0.67051   0.86409   0.47513   0.00000  Uiso   1.00
C1307  C     0.85547   0.61654   0.54190   0.00000  Uiso   1.00
C1308  C     0.85020   0.62351   0.45772   0.00000  Uiso   1.00
C1309  C     0.62510   0.90262   0.53449   0.00000  Uiso   1.00
C1310  C     0.88032   0.91522   0.53998   0.00000  Uiso   1.00
C1311  C     0.93309   0.69922   0.50057   0.00000  Uiso   1.00
C1312  C     0.61581   0.57969   0.46089   0.00000  Uiso   1.00
C1313  C     0.61532   0.58162   0.54295   0.00000  Uiso   1.00
C1314  C     0.87836   0.91156   0.45747   0.00000  Uiso   1.00
C1315  C     0.59529   0.84080   0.49760   0.00000  Uiso   1.00
C1316  C     0.88930   0.67716   0.50185   0.00000  Uiso   1.00
C1317  C     0.90813   0.84935   0.50064   0.00000  Uiso   1.00
C1318  C     0.58021   0.64229   0.50030   0.00000  Uiso   1.00
C1319  C     0.84151   0.59920   0.49919   0.00000  Uiso   1.00
C1320  C     0.66249   0.90094   0.50368   0.00000  Uiso   1.00
C1321  C     0.63763   0.57037   0.50174   0.00000  Uiso   1.00
C1322  C     0.56093   0.80897   0.49932   0.00000  Uiso   1.00
C1323  C     0.86171   0.92880   0.49864   0.00000  Uiso   1.00
C1324  C     0.86629   0.70002   0.42260   0.00000  Uiso   1.00
C1325  C     0.81703   0.71204   0.41240   0.00000  Uiso   1.00
C1326  C     0.53969   0.89588   0.53572   0.00000  Uiso   1.00
C1327  C     0.51242   0.90677   0.49320   0.00000  Uiso   1.00
C1328  C     0.64714   0.78545   0.45489   0.00000  Uiso   1.00
C1329  C     0.65935   0.75206   0.49206   0.00000  Uiso   1.00
C1330  C     0.87011   0.68678   0.58614   0.00000  Uiso   1.00
C1331  C     0.82150   0.70319   0.59480   0.00000  Uiso   1.00
C1332  C     0.56556   0.63424   0.58885   0.00000  Uiso   1.00
C1333  C     0.81742   0.95060   0.49951   0.00000  Uiso   1.00
C1334  C     0.59659   0.66589   0.61373   0.00000  Uiso   1.00
C1335  C     0.89005   0.84106   0.41484   0.00000  Uiso   1.00
C1336  C     0.92935   0.84537   0.38015   0.00000  Uiso   1.00
C1337  C     0.90206   0.85047   0.58975   0.00000  Uiso   1.00
C1338  C     0.86891   0.81226   0.59507   0.00000  Uiso   1.00
C1339  C     0.58031   0.63706   0.41073   0.00000  Uiso   1.00
C1340  C     0.53150   0.62624   0.39854   0.00000  Uiso   1.00
C1341  C     0.71553   0.85823   0.44902   0.00000  Uiso   1.00
C1342  C     0.71021   0.86729   0.39799   0.00000  Uiso   1.00
C1343  C     0.86252   0.58735   0.58383   0.00000  Uiso   1.00
C1344  C     0.68270   0.54984   0.50058   0.00000  Uiso   1.00
C1345  C     0.82426   0.59116   0.61965   0.00000  Uiso   1.00
C1346  C     0.84589   0.60322   0.41038   0.00000  Uiso   1.00
C1347  C     0.88017   0.56553   0.40355   0.00000  Uiso   1.00
C1348  C     0.62829   0.91979   0.58311   0.00000  Uiso   1.00
C1349  C     0.66163   0.89208   0.61086   0.00000  Uiso   1.00
C1350  C     0.88156   0.94769   0.57953   0.00000  Uiso   1.00
C1351  C     0.93015   0.95822   0.59270   0.00000  Uiso   1.00
C1352  C     0.61402   0.54423   0.42381   0.00000  Uiso   1.00
C1353  C     0.59391   0.50144   0.44289   0.00000  Uiso   1.00
C1354  C     0.61557   0.54964   0.58345   0.00000  Uiso   1.00
C1355  C     0.69155   0.93825   0.50085   0.00000  Uiso   1.00
C1356  C     0.57263   0.52159   0.58421   0.00000  Uiso   1.00
C1357  C     0.88152   0.94059   0.41484   0.00000  Uiso   1.00
C1358  C     0.92997   0.95709   0.40748   0.00000  Uiso   1.00
C1359  C     0.81127   0.56061   0.49956   0.00000  Uiso   1.00
C1360  C     0.52217   0.78207   0.35668   0.00000  Uiso   1.00
H1361  H     0.53968   0.80780   0.37435   0.00000  Uiso   1.00
H1362  H     0.81623   0.73860   0.38610   0.00000  Uiso   1.00
H1363  H     0.79849   0.68326   0.39932   0.00000  Uiso   1.00
H1364  H     0.88238   0.73119   0.43275   0.00000  Uiso   1.00
H1365  H     0.88447   0.68917   0.39114   0.00000  Uiso   1.00
H1366  H     0.53089   0.93090   0.47129   0.00000  Uiso   1.00
H1367  H     0.50607   0.87681   0.47296   0.00000  Uiso   1.00
H1368  H     0.97918   0.92150   0.50341   0.00000  Uiso   1.00
H1369  H     0.52126   0.87158   0.55746   0.00000  Uiso   1.00
H1370  H     0.54065   0.92692   0.55540   0.00000  Uiso   1.00
H1371  H     0.63157   0.74937   0.51803   0.00000  Uiso   1.00
H1372  H     0.96198   0.69125   0.62566   0.00000  Uiso   1.00
H1373  H     0.66521   0.71907   0.47660   0.00000  Uiso   1.00
H1374  H     0.69080   0.76226   0.50913   0.00000  Uiso   1.00
H1375  H     0.61811   0.77330   0.43548   0.00000  Uiso   1.00
H1376  H     0.67503   0.78546   0.42913   0.00000  Uiso   1.00
H1377  H     0.81151   0.72644   0.56720   0.00000  Uiso   1.00
H1378  H     0.79707   0.67569   0.59580   0.00000  Uiso   1.00
H1379  H     0.81931   0.72081   0.62790   0.00000  Uiso   1.00
H1380  H     0.88270   0.66842   0.61621   0.00000  Uiso   1.00
H1381  H     0.89081   0.71683   0.58352   0.00000  Uiso   1.00
H1382  H     0.60861   0.69300   0.59105   0.00000  Uiso   1.00
H1383  H     0.96107   0.69184   0.37652   0.00000  Uiso   1.00
H1384  H     0.57806   0.68051   0.64344   0.00000  Uiso   1.00
H1385  H     0.62678   0.64772   0.62634   0.00000  Uiso   1.00
H1386  H     0.53073   0.64750   0.58508   0.00000  Uiso   1.00
H1387  H     0.55826   0.60675   0.61264   0.00000  Uiso   1.00
H1388  H     0.96244   0.84781   0.39716   0.00000  Uiso   1.00
H1389  H     0.93005   0.81617   0.35749   0.00000  Uiso   1.00
H1390  H     0.92492   0.87492   0.35824   0.00000  Uiso   1.00
H1391  H     0.88486   0.80595   0.42389   0.00000  Uiso   1.00
H1392  H     0.85788   0.85028   0.39795   0.00000  Uiso   1.00
H1393  H     0.87176   0.78928   0.56591   0.00000  Uiso   1.00
H1394  H     0.53895   0.80836   0.62330   0.00000  Uiso   1.00
H1395  H     0.87572   0.79376   0.62709   0.00000  Uiso   1.00
H1396  H     0.83356   0.82528   0.59679   0.00000  Uiso   1.00
H1397  H     0.93729   0.84063   0.59769   0.00000  Uiso   1.00
H1398  H     0.89310   0.87298   0.61795   0.00000  Uiso   1.00
H1399  H     0.50695   0.64280   0.42203   0.00000  Uiso   1.00
H1400  H     0.52508   0.63696   0.36297   0.00000  Uiso   1.00
H1401  H     0.52536   0.59025   0.40096   0.00000  Uiso   1.00
H1402  H     0.58798   0.67247   0.40612   0.00000  Uiso   1.00
H1403  H     0.60351   0.62264   0.38437   0.00000  Uiso   1.00
H1404  H     0.68468   0.84537   0.38302   0.00000  Uiso   1.00
H1405  H     0.71910   0.56337   0.37572   0.00000  Uiso   1.00
H1406  H     0.69925   0.90198   0.39222   0.00000  Uiso   1.00
H1407  H     0.74321   0.86168   0.37988   0.00000  Uiso   1.00
H1408  H     0.74212   0.88020   0.46195   0.00000  Uiso   1.00
H1409  H     0.72998   0.82475   0.45474   0.00000  Uiso   1.00
H1410  H     0.79089   0.59592   0.60357   0.00000  Uiso   1.00
H1411  H     0.82356   0.56078   0.64098   0.00000  Uiso   1.00
H1412  H     0.82969   0.61940   0.64245   0.00000  Uiso   1.00
H1413  H     0.86736   0.55260   0.57354   0.00000  Uiso   1.00
H1414  H     0.89520   0.59527   0.59998   0.00000  Uiso   1.00
H1415  H     0.87930   0.54219   0.43280   0.00000  Uiso   1.00
H1416  H     0.78052   0.93649   0.62423   0.00000  Uiso   1.00
H1417  H     0.87278   0.54730   0.37190   0.00000  Uiso   1.00
H1418  H     0.91499   0.57904   0.40043   0.00000  Uiso   1.00
H1419  H     0.81075   0.59324   0.40336   0.00000  Uiso   1.00
H1420  H     0.85330   0.62683   0.38258   0.00000  Uiso   1.00
H1421  H     0.64965   0.85751   0.61370   0.00000  Uiso   1.00
H1422  H     0.69612   0.89193   0.59500   0.00000  Uiso   1.00
H1423  H     0.66379   0.90592   0.64572   0.00000  Uiso   1.00
H1424  H     0.63794   0.95466   0.58343   0.00000  Uiso   1.00
H1425  H     0.59545   0.91795   0.60209   0.00000  Uiso   1.00
H1426  H     0.94885   0.97288   0.56307   0.00000  Uiso   1.00
H1427  H     0.78137   0.93690   0.37544   0.00000  Uiso   1.00
H1428  H     0.92944   0.98258   0.62085   0.00000  Uiso   1.00
H1429  H     0.94865   0.92831   0.60439   0.00000  Uiso   1.00
H1430  H     0.86598   0.97958   0.56964   0.00000  Uiso   1.00
H1431  H     0.86153   0.93592   0.60955   0.00000  Uiso   1.00
H1432  H     0.61486   0.98772   0.47066   0.00000  Uiso   1.00
H1433  H     0.55899   0.50776   0.45646   0.00000  Uiso   1.00
H1434  H     0.59242   0.97651   0.41537   0.00000  Uiso   1.00
H1435  H     0.59247   0.55366   0.39491   0.00000  Uiso   1.00
H1436  H     0.64773   0.53737   0.40823   0.00000  Uiso   1.00
H1437  H     0.57276   0.50008   0.55368   0.00000  Uiso   1.00
H1438  H     0.71741   0.56256   0.62466   0.00000  Uiso   1.00
H1439  H     0.57171   0.50058   0.61541   0.00000  Uiso   1.00
H1440  H     0.54120   0.54195   0.58375   0.00000  Uiso   1.00
H1441  H     0.64416   0.52623   0.58222   0.00000  Uiso   1.00
H1442  H     0.61968   0.56708   0.61623   0.00000  Uiso   1.00
H1443  H     0.93922   0.97896   0.43603   0.00000  Uiso   1.00
H1444  H     0.95482   0.92945   0.40589   0.00000  Uiso   1.00
H1445  H     0.93238   0.97622   0.37508   0.00000  Uiso   1.00
H1446  H     0.86977   0.92332   0.38415   0.00000  Uiso   1.00
H1447  H     0.85994   0.97047   0.41778   0.00000  Uiso   1.00
H1448  H     0.79940   0.72426   0.44382   0.00000  Uiso   1.00
N1449  N     0.50000   0.75000   0.61907   0.00000  Uiso   1.00
N1450  N     0.50000   0.75000   0.38093   0.00000  Uiso   1.00
N1451  N     0.75000   0.50000   0.61907   0.00000  Uiso   1.00
N1452  N     0.75000   0.50000   0.38093   0.00000  Uiso   1.00
O1453  O     0.54581   0.70419   0.53821   0.00000  Uiso   1.00
O1454  O     0.70420   0.54581   0.46179   0.00000  Uiso   1.00
O1455  O     0.70420   0.54581   0.53821   0.00000  Uiso   1.00
O1456  O     0.79581   0.95419   0.46179   0.00000  Uiso   1.00
O1457  O     0.70420   0.95419   0.46179   0.00000  Uiso   1.00
O1458  O     0.79581   0.54581   0.53821   0.00000  Uiso   1.00
O1459  O     0.79581   0.54581   0.46179   0.00000  Uiso   1.00
O1460  O     0.70420   0.95419   0.53821   0.00000  Uiso   1.00
O1461  O     0.95420   0.79581   0.46179   0.00000  Uiso   1.00
O1462  O     0.95420   0.79581   0.53821   0.00000  Uiso   1.00
O1463  O     0.54581   0.70419   0.46179   0.00000  Uiso   1.00
O1464  O     0.95420   0.70419   0.46179   0.00000  Uiso   1.00
O1465  O     0.54581   0.79581   0.53821   0.00000  Uiso   1.00
O1466  O     0.54581   0.79581   0.46179   0.00000  Uiso   1.00
O1467  O     0.95420   0.70419   0.53821   0.00000  Uiso   1.00
O1468  O     0.79581   0.95419   0.53821   0.00000  Uiso   1.00
Zn1469 Zn    0.50000   0.75000   0.55104   0.00000  Uiso   1.00
Zn1470 Zn    0.50000   0.75000   0.44896   0.00000  Uiso   1.00
Zn1471 Zn    0.75000   0.50000   0.55104   0.00000  Uiso   1.00
Zn1472 Zn    0.75000   0.50000   0.44896   0.00000  Uiso   1.00
C1473  C     0.05723   0.18606   0.83326   0.00000  Uiso   1.00
C1474  C     0.47851   0.21756   0.97663   0.00000  Uiso   1.00
C1475  C     0.47816   0.21782   0.69130   0.00000  Uiso   1.00
C1476  C     0.02179   0.28233   0.97529   0.00000  Uiso   1.00
C1477  C     0.23245   0.03505   0.69081   0.00000  Uiso   1.00
C1478  C     0.26725   0.46481   0.97586   0.00000  Uiso   1.00
C1479  C     0.26745   0.46491   0.69060   0.00000  Uiso   1.00
C1480  C     0.23177   0.03472   0.97611   0.00000  Uiso   1.00
C1481  C     0.36939   0.16564   0.79411   0.00000  Uiso   1.00
C1482  C     0.08739   0.37927   0.85612   0.00000  Uiso   1.00
C1483  C     0.13740   0.33107   0.80872   0.00000  Uiso   1.00
C1484  C     0.43843   0.31047   0.83363   0.00000  Uiso   1.00
C1485  C     0.37318   0.15904   0.87626   0.00000  Uiso   1.00
C1486  C     0.08684   0.11927   0.87638   0.00000  Uiso   1.00
C1487  C     0.39568   0.36854   0.79120   0.00000  Uiso   1.00
C1488  C     0.39861   0.37235   0.87591   0.00000  Uiso   1.00
C1489  C     0.09161   0.11976   0.79162   0.00000  Uiso   1.00
C1490  C     0.17051   0.36409   0.80847   0.00000  Uiso   1.00
C1491  C     0.35547   0.11654   0.87523   0.00000  Uiso   1.00
C1492  C     0.35020   0.12351   0.79105   0.00000  Uiso   1.00
C1493  C     0.12510   0.40262   0.86783   0.00000  Uiso   1.00
C1494  C     0.38032   0.41522   0.87331   0.00000  Uiso   1.00
C1495  C     0.43309   0.19922   0.83391   0.00000  Uiso   1.00
C1496  C     0.11581   0.07969   0.79423   0.00000  Uiso   1.00
C1497  C     0.11532   0.08162   0.87628   0.00000  Uiso   1.00
C1498  C     0.37836   0.41156   0.79080   0.00000  Uiso   1.00
C1499  C     0.09529   0.34080   0.83094   0.00000  Uiso   1.00
C1500  C     0.38930   0.17716   0.83518   0.00000  Uiso   1.00
C1501  C     0.40813   0.34935   0.83397   0.00000  Uiso   1.00
C1502  C     0.08021   0.14229   0.83364   0.00000  Uiso   1.00
C1503  C     0.34151   0.09920   0.83252   0.00000  Uiso   1.00
C1504  C     0.16249   0.40094   0.83701   0.00000  Uiso   1.00
C1505  C     0.13763   0.07037   0.83507   0.00000  Uiso   1.00
C1506  C     0.06093   0.30897   0.83265   0.00000  Uiso   1.00
C1507  C     0.36171   0.42880   0.83197   0.00000  Uiso   1.00
C1508  C     0.36629   0.20002   0.75594   0.00000  Uiso   1.00
C1509  C     0.31703   0.21204   0.74573   0.00000  Uiso   1.00
C1510  C     0.03969   0.39588   0.86906   0.00000  Uiso   1.00
C1511  C     0.01242   0.40677   0.82653   0.00000  Uiso   1.00
C1512  C     0.14714   0.28545   0.78822   0.00000  Uiso   1.00
C1513  C     0.15935   0.25206   0.82539   0.00000  Uiso   1.00
C1514  C     0.37011   0.18678   0.91948   0.00000  Uiso   1.00
C1515  C     0.32150   0.20319   0.92814   0.00000  Uiso   1.00
C1516  C     0.06556   0.13424   0.92218   0.00000  Uiso   1.00
C1517  C     0.31742   0.45060   0.83284   0.00000  Uiso   1.00
C1518  C     0.09659   0.16589   0.94706   0.00000  Uiso   1.00
C1519  C     0.39005   0.34106   0.74818   0.00000  Uiso   1.00
C1520  C     0.42935   0.34537   0.71348   0.00000  Uiso   1.00
C1521  C     0.40206   0.35047   0.92308   0.00000  Uiso   1.00
C1522  C     0.36891   0.31226   0.92840   0.00000  Uiso   1.00
C1523  C     0.08031   0.13706   0.74406   0.00000  Uiso   1.00
C1524  C     0.03150   0.12624   0.73187   0.00000  Uiso   1.00
C1525  C     0.21553   0.35823   0.78236   0.00000  Uiso   1.00
C1526  C     0.21021   0.36729   0.73132   0.00000  Uiso   1.00
C1527  C     0.36252   0.08735   0.91716   0.00000  Uiso   1.00
C1528  C     0.18270   0.04984   0.83391   0.00000  Uiso   1.00
C1529  C     0.32426   0.09116   0.95298   0.00000  Uiso   1.00
C1530  C     0.34589   0.10322   0.74372   0.00000  Uiso   1.00
C1531  C     0.38017   0.06553   0.73689   0.00000  Uiso   1.00
C1532  C     0.12829   0.41979   0.91644   0.00000  Uiso   1.00
C1533  C     0.16163   0.39208   0.94420   0.00000  Uiso   1.00
C1534  C     0.38156   0.44769   0.91287   0.00000  Uiso   1.00
C1535  C     0.43015   0.45822   0.92603   0.00000  Uiso   1.00
C1536  C     0.11402   0.04423   0.75714   0.00000  Uiso   1.00
C1537  C     0.09391   0.00144   0.77622   0.00000  Uiso   1.00
C1538  C     0.11557   0.04964   0.91679   0.00000  Uiso   1.00
C1539  C     0.19155   0.43825   0.83418   0.00000  Uiso   1.00
C1540  C     0.07263   0.02159   0.91754   0.00000  Uiso   1.00
C1541  C     0.38152   0.44059   0.74817   0.00000  Uiso   1.00
C1542  C     0.42997   0.45709   0.74081   0.00000  Uiso   1.00
C1543  C     0.31127   0.06061   0.83290   0.00000  Uiso   1.00
C1544  C     0.02217   0.28207   0.69002   0.00000  Uiso   1.00
H1545  H     0.03968   0.30780   0.70769   0.00000  Uiso   1.00
H1546  H     0.31623   0.23860   0.71943   0.00000  Uiso   1.00
H1547  H     0.29849   0.18326   0.73265   0.00000  Uiso   1.00
H1548  H     0.38238   0.23119   0.76609   0.00000  Uiso   1.00
H1549  H     0.38447   0.18917   0.72448   0.00000  Uiso   1.00
H1550  H     0.03089   0.43090   0.80462   0.00000  Uiso   1.00
H1551  H     0.00607   0.37681   0.80630   0.00000  Uiso   1.00
H1552  H     0.47918   0.42150   0.83675   0.00000  Uiso   1.00
H1553  H     0.02126   0.37158   0.89079   0.00000  Uiso   1.00
H1554  H     0.04065   0.42692   0.88873   0.00000  Uiso   1.00
H1555  H     0.13157   0.24937   0.85137   0.00000  Uiso   1.00
H1556  H     0.46198   0.19125   0.95900   0.00000  Uiso   1.00
H1557  H     0.16521   0.21907   0.80994   0.00000  Uiso   1.00
H1558  H     0.19080   0.26226   0.84246   0.00000  Uiso   1.00
H1559  H     0.11811   0.27330   0.76881   0.00000  Uiso   1.00
H1560  H     0.17503   0.28546   0.76247   0.00000  Uiso   1.00
H1561  H     0.31151   0.22644   0.90053   0.00000  Uiso   1.00
H1562  H     0.29707   0.17569   0.92914   0.00000  Uiso   1.00
H1563  H     0.31931   0.22081   0.96123   0.00000  Uiso   1.00
H1564  H     0.38270   0.16842   0.94954   0.00000  Uiso   1.00
H1565  H     0.39081   0.21683   0.91685   0.00000  Uiso   1.00
H1566  H     0.10861   0.19300   0.92438   0.00000  Uiso   1.00
H1567  H     0.46107   0.19184   0.70985   0.00000  Uiso   1.00
H1568  H     0.07806   0.18051   0.97677   0.00000  Uiso   1.00
H1569  H     0.12678   0.14772   0.95967   0.00000  Uiso   1.00
H1570  H     0.03073   0.14750   0.91841   0.00000  Uiso   1.00
H1571  H     0.05826   0.10675   0.94598   0.00000  Uiso   1.00
H1572  H     0.46244   0.34781   0.73049   0.00000  Uiso   1.00
H1573  H     0.43005   0.31617   0.69082   0.00000  Uiso   1.00
H1574  H     0.42492   0.37492   0.69157   0.00000  Uiso   1.00
H1575  H     0.38486   0.30595   0.75723   0.00000  Uiso   1.00
H1576  H     0.35788   0.35028   0.73128   0.00000  Uiso   1.00
H1577  H     0.37176   0.28928   0.89924   0.00000  Uiso   1.00
H1578  H     0.03895   0.30836   0.95663   0.00000  Uiso   1.00
H1579  H     0.37572   0.29376   0.96043   0.00000  Uiso   1.00
H1580  H     0.33356   0.32528   0.93012   0.00000  Uiso   1.00
H1581  H     0.43729   0.34063   0.93103   0.00000  Uiso   1.00
H1582  H     0.39310   0.37298   0.95128   0.00000  Uiso   1.00
H1583  H     0.00695   0.14280   0.75536   0.00000  Uiso   1.00
H1584  H     0.02508   0.13696   0.69630   0.00000  Uiso   1.00
H1585  H     0.02536   0.09025   0.73430   0.00000  Uiso   1.00
H1586  H     0.08798   0.17247   0.73945   0.00000  Uiso   1.00
H1587  H     0.10351   0.12264   0.71770   0.00000  Uiso   1.00
H1588  H     0.18468   0.34537   0.71636   0.00000  Uiso   1.00
H1589  H     0.21910   0.06337   0.70905   0.00000  Uiso   1.00
H1590  H     0.19925   0.40198   0.72555   0.00000  Uiso   1.00
H1591  H     0.24321   0.36168   0.71321   0.00000  Uiso   1.00
H1592  H     0.24212   0.38020   0.79528   0.00000  Uiso   1.00
H1593  H     0.22998   0.32475   0.78808   0.00000  Uiso   1.00
H1594  H     0.29089   0.09592   0.93690   0.00000  Uiso   1.00
H1595  H     0.32356   0.06078   0.97431   0.00000  Uiso   1.00
H1596  H     0.32969   0.11940   0.97578   0.00000  Uiso   1.00
H1597  H     0.36736   0.05260   0.90687   0.00000  Uiso   1.00
H1598  H     0.39520   0.09527   0.93331   0.00000  Uiso   1.00
H1599  H     0.37930   0.04219   0.76613   0.00000  Uiso   1.00
H1600  H     0.28052   0.43649   0.95757   0.00000  Uiso   1.00
H1601  H     0.37278   0.04730   0.70523   0.00000  Uiso   1.00
H1602  H     0.41499   0.07904   0.73376   0.00000  Uiso   1.00
H1603  H     0.31075   0.09324   0.73670   0.00000  Uiso   1.00
H1604  H     0.35330   0.12683   0.71591   0.00000  Uiso   1.00
H1605  H     0.14965   0.35751   0.94703   0.00000  Uiso   1.00
H1606  H     0.19612   0.39193   0.92833   0.00000  Uiso   1.00
H1607  H     0.16379   0.40592   0.97906   0.00000  Uiso   1.00
H1608  H     0.13794   0.45466   0.91677   0.00000  Uiso   1.00
H1609  H     0.09545   0.41795   0.93542   0.00000  Uiso   1.00
H1610  H     0.44885   0.47288   0.89641   0.00000  Uiso   1.00
H1611  H     0.28137   0.43690   0.70877   0.00000  Uiso   1.00
H1612  H     0.42944   0.48258   0.95418   0.00000  Uiso   1.00
H1613  H     0.44865   0.42831   0.93772   0.00000  Uiso   1.00
H1614  H     0.36598   0.47958   0.90297   0.00000  Uiso   1.00
H1615  H     0.36153   0.43592   0.94289   0.00000  Uiso   1.00
H1616  H     0.11486   0.48772   0.80400   0.00000  Uiso   1.00
H1617  H     0.05899   0.00776   0.78979   0.00000  Uiso   1.00
H1618  H     0.09242   0.47651   0.74870   0.00000  Uiso   1.00
H1619  H     0.09247   0.05366   0.72824   0.00000  Uiso   1.00
H1620  H     0.14773   0.03737   0.74157   0.00000  Uiso   1.00
H1621  H     0.07276   0.00008   0.88702   0.00000  Uiso   1.00
H1622  H     0.21741   0.06256   0.95800   0.00000  Uiso   1.00
H1623  H     0.07171   0.00058   0.94874   0.00000  Uiso   1.00
H1624  H     0.04120   0.04195   0.91709   0.00000  Uiso   1.00
H1625  H     0.14416   0.02623   0.91556   0.00000  Uiso   1.00
H1626  H     0.11968   0.06708   0.94956   0.00000  Uiso   1.00
H1627  H     0.43922   0.47896   0.76936   0.00000  Uiso   1.00
H1628  H     0.45482   0.42945   0.73922   0.00000  Uiso   1.00
H1629  H     0.43238   0.47622   0.70841   0.00000  Uiso   1.00
H1630  H     0.36977   0.42332   0.71748   0.00000  Uiso   1.00
H1631  H     0.35994   0.47047   0.75112   0.00000  Uiso   1.00
H1632  H     0.29940   0.22426   0.77715   0.00000  Uiso   1.00
N1633  N     0.00000   0.25000   0.95240   0.00000  Uiso   1.00
N1634  N     0.00000   0.25000   0.71427   0.00000  Uiso   1.00
N1635  N     0.25000   0.00000   0.95240   0.00000  Uiso   1.00
N1636  N     0.25000   0.00000   0.71427   0.00000  Uiso   1.00
O1637  O     0.04581   0.20419   0.87154   0.00000  Uiso   1.00
O1638  O     0.20420   0.04581   0.79513   0.00000  Uiso   1.00
O1639  O     0.20420   0.04581   0.87154   0.00000  Uiso   1.00
O1640  O     0.29581   0.45419   0.79513   0.00000  Uiso   1.00
O1641  O     0.20420   0.45419   0.79513   0.00000  Uiso   1.00
O1642  O     0.29581   0.04581   0.87154   0.00000  Uiso   1.00
O1643  O     0.29581   0.04581   0.79513   0.00000  Uiso   1.00
O1644  O     0.20420   0.45419   0.87154   0.00000  Uiso   1.00
O1645  O     0.45420   0.29581   0.79513   0.00000  Uiso   1.00
O1646  O     0.45420   0.29581   0.87154   0.00000  Uiso   1.00
O1647  O     0.04581   0.20419   0.79513   0.00000  Uiso   1.00
O1648  O     0.45420   0.20419   0.79513   0.00000  Uiso   1.00
O1649  O     0.04581   0.29581   0.87154   0.00000  Uiso   1.00
O1650  O     0.04581   0.29581   0.79513   0.00000  Uiso   1.00
O1651  O     0.45420   0.20419   0.87154   0.00000  Uiso   1.00
O1652  O     0.29581   0.45419   0.87154   0.00000  Uiso   1.00
Zn1653 Zn    0.00000   0.25000   0.88437   0.00000  Uiso   1.00
Zn1654 Zn    0.00000   0.25000   0.78229   0.00000  Uiso   1.00
Zn1655 Zn    0.25000   0.00000   0.88437   0.00000  Uiso   1.00
Zn1656 Zn    0.25000   0.00000   0.78229   0.00000  Uiso   1.00
C1657  C     0.55723   0.18606   0.83326   0.00000  Uiso   1.00
C1658  C     0.97851   0.21756   0.97663   0.00000  Uiso   1.00
C1659  C     0.97816   0.21782   0.69130   0.00000  Uiso   1.00
C1660  C     0.52179   0.28233   0.97529   0.00000  Uiso   1.00
C1661  C     0.73245   0.03505   0.69081   0.00000  Uiso   1.00
C1662  C     0.76725   0.46481   0.97586   0.00000  Uiso   1.00
C1663  C     0.76745   0.46491   0.69060   0.00000  Uiso   1.00
C1664  C     0.73177   0.03472   0.97611   0.00000  Uiso   1.00
C1665  C     0.86939   0.16564   0.79411   0.00000  Uiso   1.00
C1666  C     0.58739   0.37927   0.85612   0.00000  Uiso   1.00
C1667  C     0.63740   0.33107   0.80872   0.00000  Uiso   1.00
C1668  C     0.93843   0.31047   0.83363   0.00000  Uiso   1.00
C1669  C     0.87318   0.15904   0.87626   0.00000  Uiso   1.00
C1670  C     0.58684   0.11927   0.87638   0.00000  Uiso   1.00
C1671  C     0.89568   0.36854   0.79120   0.00000  Uiso   1.00
C1672  C     0.89861   0.37235   0.87591   0.00000  Uiso   1.00
C1673  C     0.59161   0.11976   0.79162   0.00000  Uiso   1.00
C1674  C     0.67051   0.36409   0.80847   0.00000  Uiso   1.00
C1675  C     0.85547   0.11654   0.87523   0.00000  Uiso   1.00
C1676  C     0.85020   0.12351   0.79105   0.00000  Uiso   1.00
C1677  C     0.62510   0.40262   0.86783   0.00000  Uiso   1.00
C1678  C     0.88032   0.41522   0.87331   0.00000  Uiso   1.00
C1679  C     0.93309   0.19922   0.83391   0.00000  Uiso   1.00
C1680  C     0.61581   0.07969   0.79423   0.00000  Uiso   1.00
C1681  C     0.61532   0.08162   0.87628   0.00000  Uiso   1.00
C1682  C     0.87836   0.41156   0.79080   0.00000  Uiso   1.00
C1683  C     0.59529   0.34080   0.83094   0.00000  Uiso   1.00
C1684  C     0.88930   0.17716   0.83518   0.00000  Uiso   1.00
C1685  C     0.90813   0.34935   0.83397   0.00000  Uiso   1.00
C1686  C     0.58021   0.14229   0.83364   0.00000  Uiso   1.00
C1687  C     0.84151   0.09920   0.83252   0.00000  Uiso   1.00
C1688  C     0.66249   0.40094   0.83701   0.00000  Uiso   1.00
C1689  C     0.63763   0.07037   0.83507   0.00000  Uiso   1.00
C1690  C     0.56093   0.30897   0.83265   0.00000  Uiso   1.00
C1691  C     0.86171   0.42880   0.83197   0.00000  Uiso   1.00
C1692  C     0.86629   0.20002   0.75594   0.00000  Uiso   1.00
C1693  C     0.81703   0.21204   0.74573   0.00000  Uiso   1.00
C1694  C     0.53969   0.39588   0.86906   0.00000  Uiso   1.00
C1695  C     0.51242   0.40677   0.82653   0.00000  Uiso   1.00
C1696  C     0.64714   0.28545   0.78822   0.00000  Uiso   1.00
C1697  C     0.65935   0.25206   0.82539   0.00000  Uiso   1.00
C1698  C     0.87011   0.18678   0.91948   0.00000  Uiso   1.00
C1699  C     0.82150   0.20319   0.92814   0.00000  Uiso   1.00
C1700  C     0.56556   0.13424   0.92218   0.00000  Uiso   1.00
C1701  C     0.81742   0.45060   0.83284   0.00000  Uiso   1.00
C1702  C     0.59659   0.16589   0.94706   0.00000  Uiso   1.00
C1703  C     0.89005   0.34106   0.74818   0.00000  Uiso   1.00
C1704  C     0.92935   0.34537   0.71348   0.00000  Uiso   1.00
C1705  C     0.90206   0.35047   0.92308   0.00000  Uiso   1.00
C1706  C     0.86891   0.31226   0.92840   0.00000  Uiso   1.00
C1707  C     0.58031   0.13706   0.74406   0.00000  Uiso   1.00
C1708  C     0.53150   0.12624   0.73187   0.00000  Uiso   1.00
C1709  C     0.71553   0.35823   0.78236   0.00000  Uiso   1.00
C1710  C     0.71021   0.36729   0.73132   0.00000  Uiso   1.00
C1711  C     0.86252   0.08735   0.91716   0.00000  Uiso   1.00
C1712  C     0.68270   0.04984   0.83391   0.00000  Uiso   1.00
C1713  C     0.82426   0.09116   0.95298   0.00000  Uiso   1.00
C1714  C     0.84589   0.10322   0.74372   0.00000  Uiso   1.00
C1715  C     0.88017   0.06553   0.73689   0.00000  Uiso   1.00
C1716  C     0.62829   0.41979   0.91644   0.00000  Uiso   1.00
C1717  C     0.66163   0.39208   0.94420   0.00000  Uiso   1.00
C1718  C     0.88156   0.44769   0.91287   0.00000  Uiso   1.00
C1719  C     0.93015   0.45822   0.92603   0.00000  Uiso   1.00
C1720  C     0.61402   0.04423   0.75714   0.00000  Uiso   1.00
C1721  C     0.59391   0.00144   0.77622   0.00000  Uiso   1.00
C1722  C     0.61557   0.04964   0.91679   0.00000  Uiso   1.00
C1723  C     0.69155   0.43825   0.83418   0.00000  Uiso   1.00
C1724  C     0.57263   0.02159   0.91754   0.00000  Uiso   1.00
C1725  C     0.88152   0.44059   0.74817   0.00000  Uiso   1.00
C1726  C     0.92997   0.45709   0.74081   0.00000  Uiso   1.00
C1727  C     0.81127   0.06061   0.83290   0.00000  Uiso   1.00
C1728  C     0.52217   0.28207   0.69002   0.00000  Uiso   1.00
H1729  H     0.53968   0.30780   0.70769   0.00000  Uiso   1.00
H1730  H     0.81623   0.23860   0.71943   0.00000  Uiso   1.00
H1731  H     0.79849   0.18326   0.73265   0.00000  Uiso   1.00
H1732  H     0.88238   0.23119   0.76609   0.00000  Uiso   1.00
H1733  H     0.88447   0.18917   0.72448   0.00000  Uiso   1.00
H1734  H     0.53089   0.43090   0.80462   0.00000  Uiso   1.00
H1735  H     0.50607   0.37681   0.80630   0.00000  Uiso   1.00
H1736  H     0.97918   0.42150   0.83675   0.00000  Uiso   1.00
H1737  H     0.52126   0.37158   0.89079   0.00000  Uiso   1.00
H1738  H     0.54065   0.42692   0.88873   0.00000  Uiso   1.00
H1739  H     0.63157   0.24937   0.85137   0.00000  Uiso   1.00
H1740  H     0.96198   0.19125   0.95900   0.00000  Uiso   1.00
H1741  H     0.66521   0.21907   0.80994   0.00000  Uiso   1.00
H1742  H     0.69080   0.26226   0.84246   0.00000  Uiso   1.00
H1743  H     0.61811   0.27330   0.76881   0.00000  Uiso   1.00
H1744  H     0.67503   0.28546   0.76247   0.00000  Uiso   1.00
H1745  H     0.81151   0.22644   0.90053   0.00000  Uiso   1.00
H1746  H     0.79707   0.17569   0.92914   0.00000  Uiso   1.00
H1747  H     0.81931   0.22081   0.96123   0.00000  Uiso   1.00
H1748  H     0.88270   0.16842   0.94954   0.00000  Uiso   1.00
H1749  H     0.89081   0.21683   0.91685   0.00000  Uiso   1.00
H1750  H     0.60861   0.19300   0.92438   0.00000  Uiso   1.00
H1751  H     0.96107   0.19184   0.70985   0.00000  Uiso   1.00
H1752  H     0.57806   0.18051   0.97677   0.00000  Uiso   1.00
H1753  H     0.62678   0.14772   0.95967   0.00000  Uiso   1.00
H1754  H     0.53073   0.14750   0.91841   0.00000  Uiso   1.00
H1755  H     0.55826   0.10675   0.94598   0.00000  Uiso   1.00
H1756  H     0.96244   0.34781   0.73049   0.00000  Uiso   1.00
H1757  H     0.93005   0.31617   0.69082   0.00000  Uiso   1.00
H1758  H     0.92492   0.37492   0.69157   0.00000  Uiso   1.00
H1759  H     0.88486   0.30595   0.75723   0.00000  Uiso   1.00
H1760  H     0.85788   0.35028   0.73128   0.00000  Uiso   1.00
H1761  H     0.87176   0.28928   0.89924   0.00000  Uiso   1.00
H1762  H     0.53895   0.30836   0.95663   0.00000  Uiso   1.00
H1763  H     0.87572   0.29376   0.96043   0.00000  Uiso   1.00
H1764  H     0.83356   0.32528   0.93012   0.00000  Uiso   1.00
H1765  H     0.93729   0.34063   0.93103   0.00000  Uiso   1.00
H1766  H     0.89310   0.37298   0.95128   0.00000  Uiso   1.00
H1767  H     0.50695   0.14280   0.75536   0.00000  Uiso   1.00
H1768  H     0.52508   0.13696   0.69630   0.00000  Uiso   1.00
H1769  H     0.52536   0.09025   0.73430   0.00000  Uiso   1.00
H1770  H     0.58798   0.17247   0.73945   0.00000  Uiso   1.00
H1771  H     0.60351   0.12264   0.71770   0.00000  Uiso   1.00
H1772  H     0.68468   0.34537   0.71636   0.00000  Uiso   1.00
H1773  H     0.71910   0.06337   0.70905   0.00000  Uiso   1.00
H1774  H     0.69925   0.40198   0.72555   0.00000  Uiso   1.00
H1775  H     0.74321   0.36168   0.71321   0.00000  Uiso   1.00
H1776  H     0.74212   0.38020   0.79528   0.00000  Uiso   1.00
H1777  H     0.72998   0.32475   0.78808   0.00000  Uiso   1.00
H1778  H     0.79089   0.09592   0.93690   0.00000  Uiso   1.00
H1779  H     0.82356   0.06078   0.97431   0.00000  Uiso   1.00
H1780  H     0.82969   0.11940   0.97578   0.00000  Uiso   1.00
H1781  H     0.86736   0.05260   0.90687   0.00000  Uiso   1.00
H1782  H     0.89520   0.09527   0.93331   0.00000  Uiso   1.00
H1783  H     0.87930   0.04219   0.76613   0.00000  Uiso   1.00
H1784  H     0.78052   0.43649   0.95757   0.00000  Uiso   1.00
H1785  H     0.87278   0.04730   0.70523   0.00000  Uiso   1.00
H1786  H     0.91499   0.07904   0.73376   0.00000  Uiso   1.00
H1787  H     0.81075   0.09324   0.73670   0.00000  Uiso   1.00
H1788  H     0.85330   0.12683   0.71591   0.00000  Uiso   1.00
H1789  H     0.64965   0.35751   0.94703   0.00000  Uiso   1.00
H1790  H     0.69612   0.39193   0.92833   0.00000  Uiso   1.00
H1791  H     0.66379   0.40592   0.97906   0.00000  Uiso   1.00
H1792  H     0.63794   0.45466   0.91677   0.00000  Uiso   1.00
H1793  H     0.59545   0.41795   0.93542   0.00000  Uiso   1.00
H1794  H     0.94885   0.47288   0.89641   0.00000  Uiso   1.00
H1795  H     0.78137   0.43690   0.70877   0.00000  Uiso   1.00
H1796  H     0.92944   0.48258   0.95418   0.00000  Uiso   1.00
H1797  H     0.94865   0.42831   0.93772   0.00000  Uiso   1.00
H1798  H     0.86598   0.47958   0.90297   0.00000  Uiso   1.00
H1799  H     0.86153   0.43592   0.94289   0.00000  Uiso   1.00
H1800  H     0.61486   0.48772   0.80400   0.00000  Uiso   1.00
H1801  H     0.55899   0.00776   0.78979   0.00000  Uiso   1.00
H1802  H     0.59242   0.47651   0.74870   0.00000  Uiso   1.00
H1803  H     0.59247   0.05366   0.72824   0.00000  Uiso   1.00
H1804  H     0.64773   0.03737   0.74157   0.00000  Uiso   1.00
H1805  H     0.57276   0.00008   0.88702   0.00000  Uiso   1.00
H1806  H     0.71741   0.06256   0.95800   0.00000  Uiso   1.00
H1807  H     0.57171   0.00058   0.94874   0.00000  Uiso   1.00
H1808  H     0.54120   0.04195   0.91709   0.00000  Uiso   1.00
H1809  H     0.64416   0.02623   0.91556   0.00000  Uiso   1.00
H1810  H     0.61968   0.06708   0.94956   0.00000  Uiso   1.00
H1811  H     0.93922   0.47896   0.76936   0.00000  Uiso   1.00
H1812  H     0.95482   0.42945   0.73922   0.00000  Uiso   1.00
H1813  H     0.93238   0.47622   0.70841   0.00000  Uiso   1.00
H1814  H     0.86977   0.42332   0.71748   0.00000  Uiso   1.00
H1815  H     0.85994   0.47047   0.75112   0.00000  Uiso   1.00
H1816  H     0.79940   0.22426   0.77715   0.00000  Uiso   1.00
N1817  N     0.50000   0.25000   0.95240   0.00000  Uiso   1.00
N1818  N     0.50000   0.25000   0.71427   0.00000  Uiso   1.00
N1819  N     0.75000   0.00000   0.95240   0.00000  Uiso   1.00
N1820  N     0.75000   0.00000   0.71427   0.00000  Uiso   1.00
O1821  O     0.54581   0.20419   0.87154   0.00000  Uiso   1.00
O1822  O     0.70420   0.04581   0.79513   0.00000  Uiso   1.00
O1823  O     0.70420   0.04581   0.87154   0.00000  Uiso   1.00
O1824  O     0.79581   0.45419   0.79513   0.00000  Uiso   1.00
O1825  O     0.70420   0.45419   0.79513   0.00000  Uiso   1.00
O1826  O     0.79581   0.04581   0.87154   0.00000  Uiso   1.00
O1827  O     0.79581   0.04581   0.79513   0.00000  Uiso   1.00
O1828  O     0.70420   0.45419   0.87154   0.00000  Uiso   1.00
O1829  O     0.95420   0.29581   0.79513   0.00000  Uiso   1.00
O1830  O     0.95420   0.29581   0.87154   0.00000  Uiso   1.00
O1831  O     0.54581   0.20419   0.79513   0.00000  Uiso   1.00
O1832  O     0.95420   0.20419   0.79513   0.00000  Uiso   1.00
O1833  O     0.54581   0.29581   0.87154   0.00000  Uiso   1.00
O1834  O     0.54581   0.29581   0.79513   0.00000  Uiso   1.00
O1835  O     0.95420   0.20419   0.87154   0.00000  Uiso   1.00
O1836  O     0.79581   0.45419   0.87154   0.00000  Uiso   1.00
Zn1837 Zn    0.50000   0.25000   0.88437   0.00000  Uiso   1.00
Zn1838 Zn    0.50000   0.25000   0.78229   0.00000  Uiso   1.00
Zn1839 Zn    0.75000   0.00000   0.88437   0.00000  Uiso   1.00
Zn1840 Zn    0.75000   0.00000   0.78229   0.00000  Uiso   1.00
C1841  C     0.05723   0.68606   0.83326   0.00000  Uiso   1.00
C1842  C     0.47851   0.71756   0.97663   0.00000  Uiso   1.00
C1843  C     0.47816   0.71782   0.69130   0.00000  Uiso   1.00
C1844  C     0.02179   0.78233   0.97529   0.00000  Uiso   1.00
C1845  C     0.23245   0.53505   0.69081   0.00000  Uiso   1.00
C1846  C     0.26725   0.96481   0.97586   0.00000  Uiso   1.00
C1847  C     0.26745   0.96491   0.69060   0.00000  Uiso   1.00
C1848  C     0.23177   0.53472   0.97611   0.00000  Uiso   1.00
C1849  C     0.36939   0.66564   0.79411   0.00000  Uiso   1.00
C1850  C     0.08739   0.87927   0.85612   0.00000  Uiso   1.00
C1851  C     0.13740   0.83107   0.80872   0.00000  Uiso   1.00
C1852  C     0.43843   0.81047   0.83363   0.00000  Uiso   1.00
C1853  C     0.37318   0.65904   0.87626   0.00000  Uiso   1.00
C1854  C     0.08684   0.61927   0.87638   0.00000  Uiso   1.00
C1855  C     0.39568   0.86854   0.79120   0.00000  Uiso   1.00
C1856  C     0.39861   0.87235   0.87591   0.00000  Uiso   1.00
C1857  C     0.09161   0.61976   0.79162   0.00000  Uiso   1.00
C1858  C     0.17051   0.86409   0.80847   0.00000  Uiso   1.00
C1859  C     0.35547   0.61654   0.87523   0.00000  Uiso   1.00
C1860  C     0.35020   0.62351   0.79105   0.00000  Uiso   1.00
C1861  C     0.12510   0.90262   0.86783   0.00000  Uiso   1.00
C1862  C     0.38032   0.91522   0.87331   0.00000  Uiso   1.00
C1863  C     0.43309   0.69922   0.83391   0.00000  Uiso   1.00
C1864  C     0.11581   0.57969   0.79423   0.00000  Uiso   1.00
C1865  C     0.11532   0.58162   0.87628   0.00000  Uiso   1.00
C1866  C     0.37836   0.91156   0.79080   0.00000  Uiso   1.00
C1867  C     0.09529   0.84080   0.83094   0.00000  Uiso   1.00
C1868  C     0.38930   0.67716   0.83518   0.00000  Uiso   1.00
C1869  C     0.40813   0.84935   0.83397   0.00000  Uiso   1.00
C1870  C     0.08021   0.64229   0.83364   0.00000  Uiso   1.00
C1871  C     0.34151   0.59920   0.83252   0.00000  Uiso   1.00
C1872  C     0.16249   0.90094   0.83701   0.00000  Uiso   1.00
C1873  C     0.13763   0.57037   0.83507   0.00000  Uiso   1.00
C1874  C     0.06093   0.80897   0.83265   0.00000  Uiso   1.00
C1875  C     0.36171   0.92880   0.83197   0.00000  Uiso   1.00
C1876  C     0.36629   0.70002   0.75594   0.00000  Uiso   1.00
C1877  C     0.31703   0.71204   0.74573   0.00000  Uiso   1.00
C1878  C     0.03969   0.89588   0.86906   0.00000  Uiso   1.00
C1879  C     0.01242   0.90677   0.82653   0.00000  Uiso   1.00
C1880  C     0.14714   0.78545   0.78822   0.00000  Uiso   1.00
C1881  C     0.15935   0.75206   0.82539   0.00000  Uiso   1.00
C1882  C     0.37011   0.68678   0.91948   0.00000  Uiso   1.00
C1883  C     0.32150   0.70319   0.92814   0.00000  Uiso   1.00
C1884  C     0.06556   0.63424   0.92218   0.00000  Uiso   1.00
C1885  C     0.31742   0.95060   0.83284   0.00000  Uiso   1.00
C1886  C     0.09659   0.66589   0.94706   0.00000  Uiso   1.00
C1887  C     0.39005   0.84106   0.74818   0.00000  Uiso   1.00
C1888  C     0.42935   0.84537   0.71348   0.00000  Uiso   1.00
C1889  C     0.40206   0.85047   0.92308   0.00000  Uiso   1.00
C1890  C     0.36891   0.81226   0.92840   0.00000  Uiso   1.00
C1891  C     0.08031   0.63706   0.74406   0.00000  Uiso   1.00
C1892  C     0.03150   0.62624   0.73187   0.00000  Uiso   1.00
C1893  C     0.21553   0.85823   0.78236   0.00000  Uiso   1.00
C1894  C     0.21021   0.86729   0.73132   0.00000  Uiso   1.00
C1895  C     0.36252   0.58735   0.91716   0.00000  Uiso   1.00
C1896  C     0.18270   0.54984   0.83391   0.00000  Uiso   1.00
C1897  C     0.32426   0.59116   0.95298   0.00000  Uiso   1.00
C1898  C     0.34589   0.60322   0.74372   0.00000  Uiso   1.00
C1899  C     0.38017   0.56553   0.73689   0.00000  Uiso   1.00
C1900  C     0.12829   0.91979   0.91644   0.00000  Uiso   1.00
C1901  C     0.16163   0.89208   0.94420   0.00000  Uiso   1.00
C1902  C     0.38156   0.94769   0.91287   0.00000  Uiso   1.00
C1903  C     0.43015   0.95822   0.92603   0.00000  Uiso   1.00
C1904  C     0.11402   0.54423   0.75714   0.00000  Uiso   1.00
C1905  C     0.09391   0.50144   0.77622   0.00000  Uiso   1.00
C1906  C     0.11557   0.54964   0.91679   0.00000  Uiso   1.00
C1907  C     0.19155   0.93825   0.83418   0.00000  Uiso   1.00
C1908  C     0.07263   0.52159   0.91754   0.00000  Uiso   1.00
C1909  C     0.38152   0.94059   0.74817   0.00000  Uiso   1.00
C1910  C     0.42997   0.95709   0.74081   0.00000  Uiso   1.00
C1911  C     0.31127   0.56061   0.83290   0.00000  Uiso   1.00
C1912  C     0.02217   0.78207   0.69002   0.00000  Uiso   1.00
H1913  H     0.03968   0.80780   0.70769   0.00000  Uiso   1.00
H1914  H     0.31623   0.73860   0.71943   0.00000  Uiso   1.00
H1915  H     0.29849   0.68326   0.73265   0.00000  Uiso   1.00
H1916  H     0.38238   0.73119   0.76609   0.00000  Uiso   1.00
H1917  H     0.38447   0.68917   0.72448   0.00000  Uiso   1.00
H1918  H     0.03089   0.93090   0.80462   0.00000  Uiso   1.00
H1919  H     0.00607   0.87681   0.80630   0.00000  Uiso   1.00
H1920  H     0.47918   0.92150   0.83675   0.00000  Uiso   1.00
H1921  H     0.02126   0.87158   0.89079   0.00000  Uiso   1.00
H1922  H     0.04065   0.92692   0.88873   0.00000  Uiso   1.00
H1923  H     0.13157   0.74937   0.85137   0.00000  Uiso   1.00
H1924  H     0.46198   0.69125   0.95900   0.00000  Uiso   1.00
H1925  H     0.16521   0.71907   0.80994   0.00000  Uiso   1.00
H1926  H     0.19080   0.76226   0.84246   0.00000  Uiso   1.00
H1927  H     0.11811   0.77330   0.76881   0.00000  Uiso   1.00
H1928  H     0.17503   0.78546   0.76247   0.00000  Uiso   1.00
H1929  H     0.31151   0.72644   0.90053   0.00000  Uiso   1.00
H1930  H     0.29707   0.67569   0.92914   0.00000  Uiso   1.00
H1931  H     0.31931   0.72081   0.96123   0.00000  Uiso   1.00
H1932  H     0.38270   0.66842   0.94954   0.00000  Uiso   1.00
H1933  H     0.39081   0.71683   0.91685   0.00000  Uiso   1.00
H1934  H     0.10861   0.69300   0.92438   0.00000  Uiso   1.00
H1935  H     0.46107   0.69184   0.70985   0.00000  Uiso   1.00
H1936  H     0.07806   0.68051   0.97677   0.00000  Uiso   1.00
H1937  H     0.12678   0.64772   0.95967   0.00000  Uiso   1.00
H1938  H     0.03073   0.64750   0.91841   0.00000  Uiso   1.00
H1939  H     0.05826   0.60675   0.94598   0.00000  Uiso   1.00
H1940  H     0.46244   0.84781   0.73049   0.00000  Uiso   1.00
H1941  H     0.43005   0.81617   0.69082   0.00000  Uiso   1.00
H1942  H     0.42492   0.87492   0.69157   0.00000  Uiso   1.00
H1943  H     0.38486   0.80595   0.75723   0.00000  Uiso   1.00
H1944  H     0.35788   0.85028   0.73128   0.00000  Uiso   1.00
H1945  H     0.37176   0.78928   0.89924   0.00000  Uiso   1.00
H1946  H     0.03895   0.80836   0.95663   0.00000  Uiso   1.00
H1947  H     0.37572   0.79376   0.96043   0.00000  Uiso   1.00
H1948  H     0.33356   0.82528   0.93012   0.00000  Uiso   1.00
H1949  H     0.43729   0.84063   0.93103   0.00000  Uiso   1.00
H1950  H     0.39310   0.87298   0.95128   0.00000  Uiso   1.00
H1951  H     0.00695   0.64280   0.75536   0.00000  Uiso   1.00
H1952  H     0.02508   0.63696   0.69630   0.00000  Uiso   1.00
H1953  H     0.02536   0.59025   0.73430   0.00000  Uiso   1.00
H1954  H     0.08798   0.67247   0.73945   0.00000  Uiso   1.00
H1955  H     0.10351   0.62264   0.71770   0.00000  Uiso   1.00
H1956  H     0.18468   0.84537   0.71636   0.00000  Uiso   1.00
H1957  H     0.21910   0.56337   0.70905   0.00000  Uiso   1.00
H1958  H     0.19925   0.90198   0.72555   0.00000  Uiso   1.00
H1959  H     0.24321   0.86168   0.71321   0.00000  Uiso   1.00
H1960  H     0.24212   0.88020   0.79528   0.00000  Uiso   1.00
H1961  H     0.22998   0.82475   0.78808   0.00000  Uiso   1.00
H1962  H     0.29089   0.59592   0.93690   0.00000  Uiso   1.00
H1963  H     0.32356   0.56078   0.97431   0.00000  Uiso   1.00
H1964  H     0.32969   0.61940   0.97578   0.00000  Uiso   1.00
H1965  H     0.36736   0.55260   0.90687   0.00000  Uiso   1.00
H1966  H     0.39520   0.59527   0.93331   0.00000  Uiso   1.00
H1967  H     0.37930   0.54219   0.76613   0.00000  Uiso   1.00
H1968  H     0.28052   0.93649   0.95757   0.00000  Uiso   1.00
H1969  H     0.37278   0.54730   0.70523   0.00000  Uiso   1.00
H1970  H     0.41499   0.57904   0.73376   0.00000  Uiso   1.00
H1971  H     0.31075   0.59324   0.73670   0.00000  Uiso   1.00
H1972  H     0.35330   0.62683   0.71591   0.00000  Uiso   1.00
H1973  H     0.14965   0.85751   0.94703   0.00000  Uiso   1.00
H1974  H     0.19612   0.89193   0.92833   0.00000  Uiso   1.00
H1975  H     0.16379   0.90592   0.97906   0.00000  Uiso   1.00
H1976  H     0.13794   0.95466   0.91677   0.00000  Uiso   1.00
H1977  H     0.09545   0.91795   0.93542   0.00000  Uiso   1.00
H1978  H     0.44885   0.97288   0.89641   0.00000  Uiso   1.00
H1979  H     0.28137   0.93690   0.70877   0.00000  Uiso   1.00
H1980  H     0.42944   0.98258   0.95418   0.00000  Uiso   1.00
H1981  H     0.44865   0.92831   0.93772   0.00000  Uiso   1.00
H1982  H     0.36598   0.97958   0.90297   0.00000  Uiso   1.00
H1983  H     0.36153   0.93592   0.94289   0.00000  Uiso   1.00
H1984  H     0.11486   0.98772   0.80400   0.00000  Uiso   1.00
H1985  H     0.05899   0.50776   0.78979   0.00000  Uiso   1.00
H1986  H     0.09242   0.97651   0.74870   0.00000  Uiso   1.00
H1987  H     0.09247   0.55366   0.72824   0.00000  Uiso   1.00
H1988  H     0.14773   0.53737   0.74157   0.00000  Uiso   1.00
H1989  H     0.07276   0.50008   0.88702   0.00000  Uiso   1.00
H1990  H     0.21741   0.56256   0.95800   0.00000  Uiso   1.00
H1991  H     0.07171   0.50058   0.94874   0.00000  Uiso   1.00
H1992  H     0.04120   0.54195   0.91709   0.00000  Uiso   1.00
H1993  H     0.14416   0.52623   0.91556   0.00000  Uiso   1.00
H1994  H     0.11968   0.56708   0.94956   0.00000  Uiso   1.00
H1995  H     0.43922   0.97896   0.76936   0.00000  Uiso   1.00
H1996  H     0.45482   0.92945   0.73922   0.00000  Uiso   1.00
H1997  H     0.43238   0.97622   0.70841   0.00000  Uiso   1.00
H1998  H     0.36977   0.92332   0.71748   0.00000  Uiso   1.00
H1999  H     0.35994   0.97047   0.75112   0.00000  Uiso   1.00
H2000  H     0.29940   0.72426   0.77715   0.00000  Uiso   1.00
N2001  N     0.00000   0.75000   0.95240   0.00000  Uiso   1.00
N2002  N     0.00000   0.75000   0.71427   0.00000  Uiso   1.00
N2003  N     0.25000   0.50000   0.95240   0.00000  Uiso   1.00
N2004  N     0.25000   0.50000   0.71427   0.00000  Uiso   1.00
O2005  O     0.04581   0.70419   0.87154   0.00000  Uiso   1.00
O2006  O     0.20420   0.54581   0.79513   0.00000  Uiso   1.00
O2007  O     0.20420   0.54581   0.87154   0.00000  Uiso   1.00
O2008  O     0.29581   0.95419   0.79513   0.00000  Uiso   1.00
O2009  O     0.20420   0.95419   0.79513   0.00000  Uiso   1.00
O2010  O     0.29581   0.54581   0.87154   0.00000  Uiso   1.00
O2011  O     0.29581   0.54581   0.79513   0.00000  Uiso   1.00
O2012  O     0.20420   0.95419   0.87154   0.00000  Uiso   1.00
O2013  O     0.45420   0.79581   0.79513   0.00000  Uiso   1.00
O2014  O     0.45420   0.79581   0.87154   0.00000  Uiso   1.00
O2015  O     0.04581   0.70419   0.79513   0.00000  Uiso   1.00
O2016  O     0.45420   0.70419   0.79513   0.00000  Uiso   1.00
O2017  O     0.04581   0.79581   0.87154   0.00000  Uiso   1.00
O2018  O     0.04581   0.79581   0.79513   0.00000  Uiso   1.00
O2019  O     0.45420   0.70419   0.87154   0.00000  Uiso   1.00
O2020  O     0.29581   0.95419   0.87154   0.00000  Uiso   1.00
Zn2021 Zn    0.00000   0.75000   0.88437   0.00000  Uiso   1.00
Zn2022 Zn    0.00000   0.75000   0.78229   0.00000  Uiso   1.00
Zn2023 Zn    0.25000   0.50000   0.88437   0.00000  Uiso   1.00
Zn2024 Zn    0.25000   0.50000   0.78229   0.00000  Uiso   1.00
C2025  C     0.55723   0.68606   0.83326   0.00000  Uiso   1.00
C2026  C     0.97851   0.71756   0.97663   0.00000  Uiso   1.00
C2027  C     0.97816   0.71782   0.69130   0.00000  Uiso   1.00
C2028  C     0.52179   0.78233   0.97529   0.00000  Uiso   1.00
C2029  C     0.73245   0.53505   0.69081   0.00000  Uiso   1.00
C2030  C     0.76725   0.96481   0.97586   0.00000  Uiso   1.00
C2031  C     0.76745   0.96491   0.69060   0.00000  Uiso   1.00
C2032  C     0.73177   0.53472   0.97611   0.00000  Uiso   1.00
C2033  C     0.86939   0.66564   0.79411   0.00000  Uiso   1.00
C2034  C     0.58739   0.87927   0.85612   0.00000  Uiso   1.00
C2035  C     0.63740   0.83107   0.80872   0.00000  Uiso   1.00
C2036  C     0.93843   0.81047   0.83363   0.00000  Uiso   1.00
C2037  C     0.87318   0.65904   0.87626   0.00000  Uiso   1.00
C2038  C     0.58684   0.61927   0.87638   0.00000  Uiso   1.00
C2039  C     0.89568   0.86854   0.79120   0.00000  Uiso   1.00
C2040  C     0.89861   0.87235   0.87591   0.00000  Uiso   1.00
C2041  C     0.59161   0.61976   0.79162   0.00000  Uiso   1.00
C2042  C     0.67051   0.86409   0.80847   0.00000  Uiso   1.00
C2043  C     0.85547   0.61654   0.87523   0.00000  Uiso   1.00
C2044  C     0.85020   0.62351   0.79105   0.00000  Uiso   1.00
C2045  C     0.62510   0.90262   0.86783   0.00000  Uiso   1.00
C2046  C     0.88032   0.91522   0.87331   0.00000  Uiso   1.00
C2047  C     0.93309   0.69922   0.83391   0.00000  Uiso   1.00
C2048  C     0.61581   0.57969   0.79423   0.00000  Uiso   1.00
C2049  C     0.61532   0.58162   0.87628   0.00000  Uiso   1.00
C2050  C     0.87836   0.91156   0.79080   0.00000  Uiso   1.00
C2051  C     0.59529   0.84080   0.83094   0.00000  Uiso   1.00
C2052  C     0.88930   0.67716   0.83518   0.00000  Uiso   1.00
C2053  C     0.90813   0.84935   0.83397   0.00000  Uiso   1.00
C2054  C     0.58021   0.64229   0.83364   0.00000  Uiso   1.00
C2055  C     0.84151   0.59920   0.83252   0.00000  Uiso   1.00
C2056  C     0.66249   0.90094   0.83701   0.00000  Uiso   1.00
C2057  C     0.63763   0.57037   0.83507   0.00000  Uiso   1.00
C2058  C     0.56093   0.80897   0.83265   0.00000  Uiso   1.00
C2059  C     0.86171   0.92880   0.83197   0.00000  Uiso   1.00
C2060  C     0.86629   0.70002   0.75594   0.00000  Uiso   1.00
C2061  C     0.81703   0.71204   0.74573   0.00000  Uiso   1.00
C2062  C     0.53969   0.89588   0.86906   0.00000  Uiso   1.00
C2063  C     0.51242   0.90677   0.82653   0.00000  Uiso   1.00
C2064  C     0.64714   0.78545   0.78822   0.00000  Uiso   1.00
C2065  C     0.65935   0.75206   0.82539   0.00000  Uiso   1.00
C2066  C     0.87011   0.68678   0.91948   0.00000  Uiso   1.00
C2067  C     0.82150   0.70319   0.92814   0.00000  Uiso   1.00
C2068  C     0.56556   0.63424   0.92218   0.00000  Uiso   1.00
C2069  C     0.81742   0.95060   0.83284   0.00000  Uiso   1.00
C2070  C     0.59659   0.66589   0.94706   0.00000  Uiso   1.00
C2071  C     0.89005   0.84106   0.74818   0.00000  Uiso   1.00
C2072  C     0.92935   0.84537   0.71348   0.00000  Uiso   1.00
C2073  C     0.90206   0.85047   0.92308   0.00000  Uiso   1.00
C2074  C     0.86891   0.81226   0.92840   0.00000  Uiso   1.00
C2075  C     0.58031   0.63706   0.74406   0.00000  Uiso   1.00
C2076  C     0.53150   0.62624   0.73187   0.00000  Uiso   1.00
C2077  C     0.71553   0.85823   0.78236   0.00000  Uiso   1.00
C2078  C     0.71021   0.86729   0.73132   0.00000  Uiso   1.00
C2079  C     0.86252   0.58735   0.91716   0.00000  Uiso   1.00
C2080  C     0.68270   0.54984   0.83391   0.00000  Uiso   1.00
C2081  C     0.82426   0.59116   0.95298   0.00000  Uiso   1.00
C2082  C     0.84589   0.60322   0.74372   0.00000  Uiso   1.00
C2083  C     0.88017   0.56553   0.73689   0.00000  Uiso   1.00
C2084  C     0.62829   0.91979   0.91644   0.00000  Uiso   1.00
C2085  C     0.66163   0.89208   0.94420   0.00000  Uiso   1.00
C2086  C     0.88156   0.94769   0.91287   0.00000  Uiso   1.00
C2087  C     0.93015   0.95822   0.92603   0.00000  Uiso   1.00
C2088  C     0.61402   0.54423   0.75714   0.00000  Uiso   1.00
C2089  C     0.59391   0.50144   0.77622   0.00000  Uiso   1.00
C2090  C     0.61557   0.54964   0.91679   0.00000  Uiso   1.00
C2091  C     0.69155   0.93825   0.83418   0.00000  Uiso   1.00
C2092  C     0.57263   0.52159   0.91754   0.00000  Uiso   1.00
C2093  C     0.88152   0.94059   0.74817   0.00000  Uiso   1.00
C2094  C     0.92997   0.95709   0.74081   0.00000  Uiso   1.00
C2095  C     0.81127   0.56061   0.83290   0.00000  Uiso   1.00
C2096  C     0.52217   0.78207   0.69002   0.00000  Uiso   1.00
H2097  H     0.53968   0.80780   0.70769   0.00000  Uiso   1.00
H2098  H     0.81623   0.73860   0.71943   0.00000  Uiso   1.00
H2099  H     0.79849   0.68326   0.73265   0.00000  Uiso   1.00
H2100  H     0.88238   0.73119   0.76609   0.00000  Uiso   1.00
H2101  H     0.88447   0.68917   0.72448   0.00000  Uiso   1.00
H2102  H     0.53089   0.93090   0.80462   0.00000  Uiso   1.00
H2103  H     0.50607   0.87681   0.80630   0.00000  Uiso   1.00
H2104  H     0.97918   0.92150   0.83675   0.00000  Uiso   1.00
H2105  H     0.52126   0.87158   0.89079   0.00000  Uiso   1.00
H2106  H     0.54065   0.92692   0.88873   0.00000  Uiso   1.00
H2107  H     0.63157   0.74937   0.85137   0.00000  Uiso   1.00
H2108  H     0.96198   0.69125   0.95900   0.00000  Uiso   1.00
H2109  H     0.66521   0.71907   0.80994   0.00000  Uiso   1.00
H2110  H     0.69080   0.76226   0.84246   0.00000  Uiso   1.00
H2111  H     0.61811   0.77330   0.76881   0.00000  Uiso   1.00
H2112  H     0.67503   0.78546   0.76247   0.00000  Uiso   1.00
H2113  H     0.81151   0.72644   0.90053   0.00000  Uiso   1.00
H2114  H     0.79707   0.67569   0.92914   0.00000  Uiso   1.00
H2115  H     0.81931   0.72081   0.96123   0.00000  Uiso   1.00
H2116  H     0.88270   0.66842   0.94954   0.00000  Uiso   1.00
H2117  H     0.89081   0.71683   0.91685   0.00000  Uiso   1.00
H2118  H     0.60861   0.69300   0.92438   0.00000  Uiso   1.00
H2119  H     0.96107   0.69184   0.70985   0.00000  Uiso   1.00
H2120  H     0.57806   0.68051   0.97677   0.00000  Uiso   1.00
H2121  H     0.62678   0.64772   0.95967   0.00000  Uiso   1.00
H2122  H     0.53073   0.64750   0.91841   0.00000  Uiso   1.00
H2123  H     0.55826   0.60675   0.94598   0.00000  Uiso   1.00
H2124  H     0.96244   0.84781   0.73049   0.00000  Uiso   1.00
H2125  H     0.93005   0.81617   0.69082   0.00000  Uiso   1.00
H2126  H     0.92492   0.87492   0.69157   0.00000  Uiso   1.00
H2127  H     0.88486   0.80595   0.75723   0.00000  Uiso   1.00
H2128  H     0.85788   0.85028   0.73128   0.00000  Uiso   1.00
H2129  H     0.87176   0.78928   0.89924   0.00000  Uiso   1.00
H2130  H     0.53895   0.80836   0.95663   0.00000  Uiso   1.00
H2131  H     0.87572   0.79376   0.96043   0.00000  Uiso   1.00
H2132  H     0.83356   0.82528   0.93012   0.00000  Uiso   1.00
H2133  H     0.93729   0.84063   0.93103   0.00000  Uiso   1.00
H2134  H     0.89310   0.87298   0.95128   0.00000  Uiso   1.00
H2135  H     0.50695   0.64280   0.75536   0.00000  Uiso   1.00
H2136  H     0.52508   0.63696   0.69630   0.00000  Uiso   1.00
H2137  H     0.52536   0.59025   0.73430   0.00000  Uiso   1.00
H2138  H     0.58798   0.67247   0.73945   0.00000  Uiso   1.00
H2139  H     0.60351   0.62264   0.71770   0.00000  Uiso   1.00
H2140  H     0.68468   0.84537   0.71636   0.00000  Uiso   1.00
H2141  H     0.71910   0.56337   0.70905   0.00000  Uiso   1.00
H2142  H     0.69925   0.90198   0.72555   0.00000  Uiso   1.00
H2143  H     0.74321   0.86168   0.71321   0.00000  Uiso   1.00
H2144  H     0.74212   0.88020   0.79528   0.00000  Uiso   1.00
H2145  H     0.72998   0.82475   0.78808   0.00000  Uiso   1.00
H2146  H     0.79089   0.59592   0.93690   0.00000  Uiso   1.00
H2147  H     0.82356   0.56078   0.97431   0.00000  Uiso   1.00
H2148  H     0.82969   0.61940   0.97578   0.00000  Uiso   1.00
H2149  H     0.86736   0.55260   0.90687   0.00000  Uiso   1.00
H2150  H     0.89520   0.59527   0.93331   0.00000  Uiso   1.00
H2151  H     0.87930   0.54219   0.76613   0.00000  Uiso   1.00
H2152  H     0.78052   0.93649   0.95757   0.00000  Uiso   1.00
H2153  H     0.87278   0.54730   0.70523   0.00000  Uiso   1.00
H2154  H     0.91499   0.57904   0.73376   0.00000  Uiso   1.00
H2155  H     0.81075   0.59324   0.73670   0.00000  Uiso   1.00
H2156  H     0.85330   0.62683   0.71591   0.00000  Uiso   1.00
H2157  H     0.64965   0.85751   0.94703   0.00000  Uiso   1.00
H2158  H     0.69612   0.89193   0.92833   0.00000  Uiso   1.00
H2159  H     0.66379   0.90592   0.97906   0.00000  Uiso   1.00
H2160  H     0.63794   0.95466   0.91677   0.00000  Uiso   1.00
H2161  H     0.59545   0.91795   0.93542   0.00000  Uiso   1.00
H2162  H     0.94885   0.97288   0.89641   0.00000  Uiso   1.00
H2163  H     0.78137   0.93690   0.70877   0.00000  Uiso   1.00
H2164  H     0.92944   0.98258   0.95418   0.00000  Uiso   1.00
H2165  H     0.94865   0.92831   0.93772   0.00000  Uiso   1.00
H2166  H     0.86598   0.97958   0.90297   0.00000  Uiso   1.00
H2167  H     0.86153   0.93592   0.94289   0.00000  Uiso   1.00
H2168  H     0.61486   0.98772   0.80400   0.00000  Uiso   1.00
H2169  H     0.55899   0.50776   0.78979   0.00000  Uiso   1.00
H2170  H     0.59242   0.97651   0.74870   0.00000  Uiso   1.00
H2171  H     0.59247   0.55366   0.72824   0.00000  Uiso   1.00
H2172  H     0.64773   0.53737   0.74157   0.00000  Uiso   1.00
H2173  H     0.57276   0.50008   0.88702   0.00000  Uiso   1.00
H2174  H     0.71741   0.56256   0.95800   0.00000  Uiso   1.00
H2175  H     0.57171   0.50058   0.94874   0.00000  Uiso   1.00
H2176  H     0.54120   0.54195   0.91709   0.00000  Uiso   1.00
H2177  H     0.64416   0.52623   0.91556   0.00000  Uiso   1.00
H2178  H     0.61968   0.56708   0.94956   0.00000  Uiso   1.00
H2179  H     0.93922   0.97896   0.76936   0.00000  Uiso   1.00
H2180  H     0.95482   0.92945   0.73922   0.00000  Uiso   1.00
H2181  H     0.93238   0.97622   0.70841   0.00000  Uiso   1.00
H2182  H     0.86977   0.92332   0.71748   0.00000  Uiso   1.00
H2183  H     0.85994   0.97047   0.75112   0.00000  Uiso   1.00
H2184  H     0.79940   0.72426   0.77715   0.00000  Uiso   1.00
N2185  N     0.50000   0.75000   0.95240   0.00000  Uiso   1.00
N2186  N     0.50000   0.75000   0.71427   0.00000  Uiso   1.00
N2187  N     0.75000   0.50000   0.95240   0.00000  Uiso   1.00
N2188  N     0.75000   0.50000   0.71427   0.00000  Uiso   1.00
O2189  O     0.54581   0.70419   0.87154   0.00000  Uiso   1.00
O2190  O     0.70420   0.54581   0.79513   0.00000  Uiso   1.00
O2191  O     0.70420   0.54581   0.87154   0.00000  Uiso   1.00
O2192  O     0.79581   0.95419   0.79513   0.00000  Uiso   1.00
O2193  O     0.70420   0.95419   0.79513   0.00000  Uiso   1.00
O2194  O     0.79581   0.54581   0.87154   0.00000  Uiso   1.00
O2195  O     0.79581   0.54581   0.79513   0.00000  Uiso   1.00
O2196  O     0.70420   0.95419   0.87154   0.00000  Uiso   1.00
O2197  O     0.95420   0.79581   0.79513   0.00000  Uiso   1.00
O2198  O     0.95420   0.79581   0.87154   0.00000  Uiso   1.00
O2199  O     0.54581   0.70419   0.79513   0.00000  Uiso   1.00
O2200  O     0.95420   0.70419   0.79513   0.00000  Uiso   1.00
O2201  O     0.54581   0.79581   0.87154   0.00000  Uiso   1.00
O2202  O     0.54581   0.79581   0.79513   0.00000  Uiso   1.00
O2203  O     0.95420   0.70419   0.87154   0.00000  Uiso   1.00
O2204  O     0.79581   0.95419   0.87154   0.00000  Uiso   1.00
Zn2205 Zn    0.50000   0.75000   0.88437   0.00000  Uiso   1.00
Zn2206 Zn    0.50000   0.75000   0.78229   0.00000  Uiso   1.00
Zn2207 Zn    0.75000   0.50000   0.88437   0.00000  Uiso   1.00
Zn2208 Zn    0.75000   0.50000   0.78229   0.00000  Uiso   1.00
loop_
_geom_bond_atom_site_label_1
_geom_bond_atom_site_label_2
_geom_bond_distance
_geom_bond_site_symmetry_2
_ccdc_geom_bond_type
C1     O165    1.289   .     A
C1     O175    1.291   .     A
C1     C30     1.483   .     S
C2     H84     1.079   .     S
C2     N345    1.362   .     A
C2     C739    1.406   .     S
C3     H95     1.077   .     S
C3     C1474   1.406   1_554 S
C3     N346    1.364   .     S
C4     H106    1.080   .     S
C4     C808    1.408   .     S
C4     N161    1.365   .     S
C5     H117    1.081   .     S
C5     C1480   1.408   1_554 S
C5     N164    1.364   .     S
C6     H128    1.080   .     S
C6     C743    1.408   .     S
C6     N531    1.364   .     S
C7     N532    1.364   .     A
C7     H139    1.080   .     S
C7     C1478   1.408   1_554 S
C8     H150    1.081   .     S
C8     N163    1.364   .     A
C8     C741    1.408   .     S
C9     C36     1.527   .     S
C9     C20     1.406   .     A
C9     C28     1.398   .     A
C10    C27     1.399   .     A
C10    C21     1.375   .     A
C10    C38     1.530   .     S
C11    C18     1.405   .     A
C11    C27     1.419   .     A
C11    C40     1.533   .     S
C12    C29     1.471   .     S
C12    O174    1.287   .     A
C12    O173    1.291   .     A
C13    C28     1.395   .     A
C13    C42     1.525   .     S
C13    C19     1.396   .     A
C14    C44     1.538   .     S
C14    C30     1.445   .     A
C14    C25     1.410   .     A
C15    C47     1.528   .     S
C15    C29     1.431   .     A
C15    C26     1.395   .     A
C16    C49     1.533   .     S
C16    C29     1.438   .     A
C16    C22     1.403   .     A
C17    C51     1.527   .     S
C17    C30     1.443   .     A
C17    C24     1.404   .     A
C18    C53     1.527   .     S
C18    C32     1.415   .     A
C19    C31     1.431   .     A
C19    C55     1.525   .     S
C20    C58     1.529   .     S
C20    C31     1.436   .     A
C21    C32     1.411   .     A
C21    C60     1.525   .     S
C22    C35     1.398   .     A
C22    C62     1.527   .     S
C23    O179    1.288   .     A
C23    O176    1.292   .     A
C23    C28     1.460   .     S
C24    C33     1.396   .     A
C24    C64     1.535   .     S
C25    C66     1.527   .     S
C25    C33     1.405   .     A
C26    C35     1.395   .     A
C26    C69     1.524   .     S
C27    C34     1.406   .     S
C31    C71     1.478   .     S
C32    C67     1.427   .     S
C33    C56     1.461   .     S
C34    O178    1.264   .     A
C34    O177    1.277   .     A
C35    C45     1.457   .     S
C36    C37     1.529   .     S
C36    H77     1.106   .     S
C36    H76     1.107   .     S
C37    H74     1.111   .     S
C37    H160    1.111   .     S
C37    H75     1.109   .     S
C38    C39     1.529   .     S
C38    H82     1.108   .     S
C38    H81     1.109   .     S
C39    H78     1.109   .     S
C39    H79     1.108   .     S
C39    H264    1.109   1_455 S
C40    H87     1.106   .     S
C40    C41     1.527   .     S
C40    H88     1.104   .     S
C41    H83     1.109   .     S
C41    H85     1.111   .     S
C41    H86     1.111   .     S
C42    H93     1.103   .     S
C42    C43     1.529   .     S
C42    H92     1.107   .     S
C43    H89     1.111   .     S
C43    H90     1.107   .     S
C43    H91     1.110   .     S
C44    H99     1.102   .     S
C44    H98     1.106   .     S
C44    C46     1.532   .     S
C45    O180    1.293   .     A
C45    O168    1.291   .     A
C46    H94     1.109   .     S
C46    H97     1.110   .     S
C46    H96     1.110   .     S
C47    H103    1.106   .     S
C47    C48     1.531   .     S
C47    H104    1.112   .     S
C48    H100    1.109   .     S
C48    H102    1.106   .     S
C48    H101    1.110   .     S
C49    H109    1.107   .     S
C49    C50     1.528   .     S
C49    H110    1.101   .     S
C50    H108    1.111   .     S
C50    H107    1.110   .     S
C50    H105    1.107   .     S
C51    C52     1.530   .     S
C51    H114    1.106   .     S
C51    H115    1.110   .     S
C52    H112    1.109   .     S
C52    H111    1.107   .     S
C52    H113    1.109   .     S
C53    H120    1.108   .     S
C53    C54     1.529   .     S
C53    H121    1.109   .     S
C54    H116    1.109   .     S
C54    H119    1.110   .     S
C54    H118    1.109   .     S
C55    H125    1.104   .     S
C55    H126    1.112   .     S
C55    C57     1.528   .     S
C56    O167    1.288   .     A
C56    O166    1.295   .     A
C57    H122    1.108   .     S
C57    H123    1.109   .     S
C57    H124    1.104   .     S
C58    H132    1.100   .     S
C58    H131    1.106   .     S
C58    C59     1.529   .     S
C59    H130    1.111   .     S
C59    H127    1.107   .     S
C59    H129    1.109   .     S
C60    H136    1.097   .     S
C60    H137    1.108   .     S
C60    C61     1.530   .     S
C61    H133    1.111   .     S
C61    H134    1.109   .     S
C61    H135    1.110   .     S
C62    H143    1.108   .     S
C62    H142    1.105   .     S
C62    C63     1.529   .     S
C63    H140    1.110   .     S
C63    H141    1.109   .     S
C63    H138    1.111   .     S
C64    H147    1.104   .     S
C64    C65     1.529   .     S
C64    H148    1.103   .     S
C65    H145    1.111   .     S
C65    H512    1.108   1_545 S
C65    H514    1.111   1_545 S
C66    C68     1.532   .     S
C66    H154    1.109   .     S
C66    H153    1.096   .     S
C67    O169    1.288   .     A
C67    O172    1.264   .     A
C68    H149    1.110   .     S
C68    H152    1.108   .     S
C68    H151    1.110   .     S
C69    H158    1.107   .     S
C69    H159    1.104   .     S
C69    C70     1.529   .     S
C70    H156    1.108   .     S
C70    H155    1.111   .     S
C70    H157    1.110   .     S
C71    O170    1.291   .     A
C71    O171    1.291   .     A
C72    H73     1.081   .     S
C72    N162    1.364   .     A
C72    C1476   1.408   1_554 S
H80    C223    1.109   .     S
H144   C433    1.108   .     S
H146   C433    1.111   .     S
N161   C186    1.362   1_455 A
N161   Zn181   1.993   .     S
N162   C187    1.364   1_455 S
N162   Zn182   1.993   .     S
N163   Zn183   1.993   .     S
N163   C374    1.364   1_545 S
N164   C375    1.364   1_545 A
N164   Zn184   1.993   .     S
O165   Zn181   1.959   .     S
O166   Zn184   1.959   .     S
O167   Zn183   1.967   .     S
O168   Zn552   1.967   .     S
O169   Zn552   1.976   .     S
O170   Zn183   1.976   .     S
O171   Zn184   1.991   .     S
O172   Zn551   1.991   .     S
O173   Zn366   1.959   .     S
O174   Zn365   1.967   .     S
O175   Zn182   1.967   .     S
O176   Zn366   1.976   .     S
O177   Zn181   1.976   .     S
O178   Zn182   1.991   .     S
O179   Zn365   1.991   .     S
O180   Zn551   1.959   .     S
Zn181  O363    1.991   1_455 S
Zn181  O358    1.967   1_455 S
Zn182  O360    1.976   1_455 S
Zn182  O357    1.959   1_455 S
Zn183  O540    1.991   1_545 S
Zn183  O548    1.959   1_545 S
Zn184  O537    1.976   1_545 S
Zn184  O536    1.967   1_545 S
C185   O349    1.289   .     A
C185   O359    1.291   .     A
C185   C214    1.483   .     S
C186   H268    1.079   .     S
C186   N161    1.362   1_655 A
C186   C923    1.406   .     S
C187   H279    1.077   .     S
C187   C1658   1.406   1_554 S
C187   N162    1.364   1_655 S
C188   H290    1.080   .     S
C188   C992    1.408   .     S
C188   N345    1.365   .     S
C189   H301    1.081   .     S
C189   C1664   1.408   1_554 S
C189   N348    1.364   .     S
C190   H312    1.080   .     S
C190   C927    1.408   .     S
C190   N715    1.364   .     S
C191   N716    1.364   .     A
C191   H323    1.080   .     S
C191   C1662   1.408   1_554 S
C192   H334    1.081   .     S
C192   N347    1.364   .     A
C192   C925    1.408   .     S
C193   C220    1.527   .     S
C193   C204    1.406   .     A
C193   C212    1.398   .     A
C194   C211    1.399   .     A
C194   C205    1.375   .     A
C194   C222    1.530   .     S
C195   C202    1.405   .     A
C195   C211    1.419   .     A
C195   C224    1.533   .     S
C196   C213    1.471   .     S
C196   O358    1.287   .     A
C196   O357    1.291   .     A
C197   C212    1.395   .     A
C197   C226    1.525   .     S
C197   C203    1.396   .     A
C198   C228    1.538   .     S
C198   C214    1.445   .     A
C198   C209    1.410   .     A
C199   C231    1.528   .     S
C199   C213    1.431   .     A
C199   C210    1.395   .     A
C200   C233    1.533   .     S
C200   C213    1.438   .     A
C200   C206    1.403   .     A
C201   C235    1.527   .     S
C201   C214    1.443   .     A
C201   C208    1.404   .     A
C202   C237    1.527   .     S
C202   C216    1.415   .     A
C203   C215    1.431   .     A
C203   C239    1.525   .     S
C204   C242    1.529   .     S
C204   C215    1.436   .     A
C205   C216    1.411   .     A
C205   C244    1.525   .     S
C206   C219    1.398   .     A
C206   C246    1.527   .     S
C207   O363    1.288   .     A
C207   O360    1.292   .     A
C207   C212    1.460   .     S
C208   C217    1.396   .     A
C208   C248    1.535   .     S
C209   C250    1.527   .     S
C209   C217    1.405   .     A
C210   C219    1.395   .     A
C210   C253    1.524   .     S
C211   C218    1.406   .     S
C215   C255    1.478   .     S
C216   C251    1.427   .     S
C217   C240    1.461   .     S
C218   O362    1.264   .     A
C218   O361    1.277   .     A
C219   C229    1.457   .     S
C220   C221    1.529   .     S
C220   H261    1.106   .     S
C220   H260    1.107   .     S
C221   H258    1.111   .     S
C221   H344    1.111   .     S
C221   H259    1.109   .     S
C222   C223    1.529   .     S
C222   H266    1.108   .     S
C222   H265    1.109   .     S
C223   H262    1.109   .     S
C223   H263    1.108   .     S
C224   H271    1.106   .     S
C224   C225    1.527   .     S
C224   H272    1.104   .     S
C225   H267    1.109   .     S
C225   H269    1.111   .     S
C225   H270    1.111   .     S
C226   H277    1.103   .     S
C226   C227    1.529   .     S
C226   H276    1.107   .     S
C227   H273    1.111   .     S
C227   H274    1.107   .     S
C227   H275    1.110   .     S
C228   H283    1.102   .     S
C228   H282    1.106   .     S
C228   C230    1.532   .     S
C229   O364    1.293   .     A
C229   O352    1.291   .     A
C230   H278    1.109   .     S
C230   H281    1.110   .     S
C230   H280    1.110   .     S
C231   H287    1.106   .     S
C231   C232    1.531   .     S
C231   H288    1.112   .     S
C232   H284    1.109   .     S
C232   H286    1.106   .     S
C232   H285    1.110   .     S
C233   H293    1.107   .     S
C233   C234    1.528   .     S
C233   H294    1.101   .     S
C234   H292    1.111   .     S
C234   H291    1.110   .     S
C234   H289    1.107   .     S
C235   C236    1.530   .     S
C235   H298    1.106   .     S
C235   H299    1.110   .     S
C236   H296    1.109   .     S
C236   H295    1.107   .     S
C236   H297    1.109   .     S
C237   H304    1.108   .     S
C237   C238    1.529   .     S
C237   H305    1.109   .     S
C238   H300    1.109   .     S
C238   H303    1.110   .     S
C238   H302    1.109   .     S
C239   H309    1.104   .     S
C239   H310    1.112   .     S
C239   C241    1.528   .     S
C240   O351    1.288   .     A
C240   O350    1.295   .     A
C241   H306    1.108   .     S
C241   H307    1.109   .     S
C241   H308    1.104   .     S
C242   H316    1.100   .     S
C242   H315    1.106   .     S
C242   C243    1.529   .     S
C243   H314    1.111   .     S
C243   H311    1.107   .     S
C243   H313    1.109   .     S
C244   H320    1.097   .     S
C244   H321    1.108   .     S
C244   C245    1.530   .     S
C245   H317    1.111   .     S
C245   H318    1.109   .     S
C245   H319    1.110   .     S
C246   H327    1.108   .     S
C246   H326    1.105   .     S
C246   C247    1.529   .     S
C247   H324    1.110   .     S
C247   H325    1.109   .     S
C247   H322    1.111   .     S
C248   H331    1.104   .     S
C248   C249    1.529   .     S
C248   H332    1.103   .     S
C249   H329    1.111   .     S
C249   H696    1.108   1_545 S
C249   H698    1.111   1_545 S
C250   C252    1.532   .     S
C250   H338    1.109   .     S
C250   H337    1.096   .     S
C251   O353    1.288   .     A
C251   O356    1.264   .     A
C252   H333    1.110   .     S
C252   H336    1.108   .     S
C252   H335    1.110   .     S
C253   H342    1.107   .     S
C253   H343    1.104   .     S
C253   C254    1.529   .     S
C254   H340    1.108   .     S
C254   H339    1.111   .     S
C254   H341    1.110   .     S
C255   O354    1.291   .     A
C255   O355    1.291   .     A
C256   H257    1.081   .     S
C256   N346    1.364   .     A
C256   C1660   1.408   1_554 S
H264   C39     1.109   1_655 S
H328   C617    1.108   .     S
H330   C617    1.111   .     S
N345   Zn365   1.993   .     S
N346   Zn366   1.993   .     S
N347   Zn367   1.993   .     S
N347   C558    1.364   1_545 S
N348   C559    1.364   1_545 A
N348   Zn368   1.993   .     S
O349   Zn365   1.959   .     S
O350   Zn368   1.959   .     S
O351   Zn367   1.967   .     S
O352   Zn736   1.967   .     S
O353   Zn736   1.976   .     S
O354   Zn367   1.976   .     S
O355   Zn368   1.991   .     S
O356   Zn735   1.991   .     S
O357   Zn182   1.959   1_655 S
O358   Zn181   1.967   1_655 S
O359   Zn366   1.967   .     S
O360   Zn182   1.976   1_655 S
O361   Zn365   1.976   .     S
O362   Zn366   1.991   .     S
O363   Zn181   1.991   1_655 S
O364   Zn735   1.959   .     S
Zn367  O724    1.991   1_545 S
Zn367  O732    1.959   1_545 S
Zn368  O721    1.976   1_545 S
Zn368  O720    1.967   1_545 S
C369   O533    1.289   .     A
C369   O543    1.291   .     A
C369   C398    1.483   .     S
C370   H452    1.079   .     S
C370   N713    1.362   .     A
C370   C1107   1.406   .     S
C371   H463    1.077   .     S
C371   C1842   1.406   1_554 S
C371   N714    1.364   .     S
C372   H474    1.080   .     S
C372   C1176   1.408   .     S
C372   N529    1.365   .     S
C373   H485    1.081   .     S
C373   C1848   1.408   1_554 S
C373   N532    1.364   .     S
C374   H496    1.080   .     S
C374   C1111   1.408   .     S
C374   N163    1.364   1_565 S
C375   N164    1.364   1_565 A
C375   H507    1.080   .     S
C375   C1846   1.408   1_554 S
C376   H518    1.081   .     S
C376   N531    1.364   .     A
C376   C1109   1.408   .     S
C377   C404    1.527   .     S
C377   C388    1.406   .     A
C377   C396    1.398   .     A
C378   C395    1.399   .     A
C378   C389    1.375   .     A
C378   C406    1.530   .     S
C379   C386    1.405   .     A
C379   C395    1.419   .     A
C379   C408    1.533   .     S
C380   C397    1.471   .     S
C380   O542    1.287   .     A
C380   O541    1.291   .     A
C381   C396    1.395   .     A
C381   C410    1.525   .     S
C381   C387    1.396   .     A
C382   C412    1.538   .     S
C382   C398    1.445   .     A
C382   C393    1.410   .     A
C383   C415    1.528   .     S
C383   C397    1.431   .     A
C383   C394    1.395   .     A
C384   C417    1.533   .     S
C384   C397    1.438   .     A
C384   C390    1.403   .     A
C385   C419    1.527   .     S
C385   C398    1.443   .     A
C385   C392    1.404   .     A
C386   C421    1.527   .     S
C386   C400    1.415   .     A
C387   C399    1.431   .     A
C387   C423    1.525   .     S
C388   C426    1.529   .     S
C388   C399    1.436   .     A
C389   C400    1.411   .     A
C389   C428    1.525   .     S
C390   C403    1.398   .     A
C390   C430    1.527   .     S
C391   O547    1.288   .     A
C391   O544    1.292   .     A
C391   C396    1.460   .     S
C392   C401    1.396   .     A
C392   C432    1.535   .     S
C393   C434    1.527   .     S
C393   C401    1.405   .     A
C394   C403    1.395   .     A
C394   C437    1.524   .     S
C395   C402    1.406   .     S
C399   C439    1.478   .     S
C400   C435    1.427   .     S
C401   C424    1.461   .     S
C402   O546    1.264   .     A
C402   O545    1.277   .     A
C403   C413    1.457   .     S
C404   C405    1.529   .     S
C404   H445    1.106   .     S
C404   H444    1.107   .     S
C405   H442    1.111   .     S
C405   H528    1.111   .     S
C405   H443    1.109   .     S
C406   C407    1.529   .     S
C406   H450    1.108   .     S
C406   H449    1.109   .     S
C407   H446    1.109   .     S
C407   H447    1.108   .     S
C407   H632    1.109   1_455 S
C408   H455    1.106   .     S
C408   C409    1.527   .     S
C408   H456    1.104   .     S
C409   H451    1.109   .     S
C409   H453    1.111   .     S
C409   H454    1.111   .     S
C410   H461    1.103   .     S
C410   C411    1.529   .     S
C410   H460    1.107   .     S
C411   H457    1.111   .     S
C411   H458    1.107   .     S
C411   H459    1.110   .     S
C412   H467    1.102   .     S
C412   H466    1.106   .     S
C412   C414    1.532   .     S
C413   O548    1.293   .     A
C413   O536    1.291   .     A
C414   H462    1.109   .     S
C414   H465    1.110   .     S
C414   H464    1.110   .     S
C415   H471    1.106   .     S
C415   C416    1.531   .     S
C415   H472    1.112   .     S
C416   H468    1.109   .     S
C416   H470    1.106   .     S
C416   H469    1.110   .     S
C417   H477    1.107   .     S
C417   C418    1.528   .     S
C417   H478    1.101   .     S
C418   H476    1.111   .     S
C418   H475    1.110   .     S
C418   H473    1.107   .     S
C419   C420    1.530   .     S
C419   H482    1.106   .     S
C419   H483    1.110   .     S
C420   H480    1.109   .     S
C420   H479    1.107   .     S
C420   H481    1.109   .     S
C421   H488    1.108   .     S
C421   C422    1.529   .     S
C421   H489    1.109   .     S
C422   H484    1.109   .     S
C422   H487    1.110   .     S
C422   H486    1.109   .     S
C423   H493    1.104   .     S
C423   H494    1.112   .     S
C423   C425    1.528   .     S
C424   O535    1.288   .     A
C424   O534    1.295   .     A
C425   H490    1.108   .     S
C425   H491    1.109   .     S
C425   H492    1.104   .     S
C426   H500    1.100   .     S
C426   H499    1.106   .     S
C426   C427    1.529   .     S
C427   H498    1.111   .     S
C427   H495    1.107   .     S
C427   H497    1.109   .     S
C428   H504    1.097   .     S
C428   H505    1.108   .     S
C428   C429    1.530   .     S
C429   H501    1.111   .     S
C429   H502    1.109   .     S
C429   H503    1.110   .     S
C430   H511    1.108   .     S
C430   H510    1.105   .     S
C430   C431    1.529   .     S
C431   H508    1.110   .     S
C431   H509    1.109   .     S
C431   H506    1.111   .     S
C432   H515    1.104   .     S
C432   C433    1.529   .     S
C432   H516    1.103   .     S
C433   H513    1.111   .     S
C434   C436    1.532   .     S
C434   H522    1.109   .     S
C434   H521    1.096   .     S
C435   O537    1.288   .     A
C435   O540    1.264   .     A
C436   H517    1.110   .     S
C436   H520    1.108   .     S
C436   H519    1.110   .     S
C437   H526    1.107   .     S
C437   H527    1.104   .     S
C437   C438    1.529   .     S
C438   H524    1.108   .     S
C438   H523    1.111   .     S
C438   H525    1.110   .     S
C439   O538    1.291   .     A
C439   O539    1.291   .     A
C440   H441    1.081   .     S
C440   N530    1.364   .     A
C440   C1844   1.408   1_554 S
H448   C591    1.109   .     S
H512   C65     1.108   1_565 S
H514   C65     1.111   1_565 S
N529   C554    1.362   1_455 A
N529   Zn549   1.993   .     S
N530   C555    1.364   1_455 S
N530   Zn550   1.993   .     S
N531   Zn551   1.993   .     S
N532   Zn552   1.993   .     S
O533   Zn549   1.959   .     S
O534   Zn552   1.959   .     S
O535   Zn551   1.967   .     S
O536   Zn184   1.967   1_565 S
O537   Zn184   1.976   1_565 S
O538   Zn551   1.976   .     S
O539   Zn552   1.991   .     S
O540   Zn183   1.991   1_565 S
O541   Zn734   1.959   .     S
O542   Zn733   1.967   .     S
O543   Zn550   1.967   .     S
O544   Zn734   1.976   .     S
O545   Zn549   1.976   .     S
O546   Zn550   1.991   .     S
O547   Zn733   1.991   .     S
O548   Zn183   1.959   1_565 S
Zn549  O731    1.991   1_455 S
Zn549  O726    1.967   1_455 S
Zn550  O728    1.976   1_455 S
Zn550  O725    1.959   1_455 S
C553   O717    1.289   .     A
C553   O727    1.291   .     A
C553   C582    1.483   .     S
C554   H636    1.079   .     S
C554   N529    1.362   1_655 A
C554   C1291   1.406   .     S
C555   H647    1.077   .     S
C555   C2026   1.406   1_554 S
C555   N530    1.364   1_655 S
C556   H658    1.080   .     S
C556   C1360   1.408   .     S
C556   N713    1.365   .     S
C557   H669    1.081   .     S
C557   C2032   1.408   1_554 S
C557   N716    1.364   .     S
C558   H680    1.080   .     S
C558   C1295   1.408   .     S
C558   N347    1.364   1_565 S
C559   N348    1.364   1_565 A
C559   H691    1.080   .     S
C559   C2030   1.408   1_554 S
C560   H702    1.081   .     S
C560   N715    1.364   .     A
C560   C1293   1.408   .     S
C561   C588    1.527   .     S
C561   C572    1.406   .     A
C561   C580    1.398   .     A
C562   C579    1.399   .     A
C562   C573    1.375   .     A
C562   C590    1.530   .     S
C563   C570    1.405   .     A
C563   C579    1.419   .     A
C563   C592    1.533   .     S
C564   C581    1.471   .     S
C564   O726    1.287   .     A
C564   O725    1.291   .     A
C565   C580    1.395   .     A
C565   C594    1.525   .     S
C565   C571    1.396   .     A
C566   C596    1.538   .     S
C566   C582    1.445   .     A
C566   C577    1.410   .     A
C567   C599    1.528   .     S
C567   C581    1.431   .     A
C567   C578    1.395   .     A
C568   C601    1.533   .     S
C568   C581    1.438   .     A
C568   C574    1.403   .     A
C569   C603    1.527   .     S
C569   C582    1.443   .     A
C569   C576    1.404   .     A
C570   C605    1.527   .     S
C570   C584    1.415   .     A
C571   C583    1.431   .     A
C571   C607    1.525   .     S
C572   C610    1.529   .     S
C572   C583    1.436   .     A
C573   C584    1.411   .     A
C573   C612    1.525   .     S
C574   C587    1.398   .     A
C574   C614    1.527   .     S
C575   O731    1.288   .     A
C575   O728    1.292   .     A
C575   C580    1.460   .     S
C576   C585    1.396   .     A
C576   C616    1.535   .     S
C577   C618    1.527   .     S
C577   C585    1.405   .     A
C578   C587    1.395   .     A
C578   C621    1.524   .     S
C579   C586    1.406   .     S
C583   C623    1.478   .     S
C584   C619    1.427   .     S
C585   C608    1.461   .     S
C586   O730    1.264   .     A
C586   O729    1.277   .     A
C587   C597    1.457   .     S
C588   C589    1.529   .     S
C588   H629    1.106   .     S
C588   H628    1.107   .     S
C589   H626    1.111   .     S
C589   H712    1.111   .     S
C589   H627    1.109   .     S
C590   C591    1.529   .     S
C590   H634    1.108   .     S
C590   H633    1.109   .     S
C591   H630    1.109   .     S
C591   H631    1.108   .     S
C592   H639    1.106   .     S
C592   C593    1.527   .     S
C592   H640    1.104   .     S
C593   H635    1.109   .     S
C593   H637    1.111   .     S
C593   H638    1.111   .     S
C594   H645    1.103   .     S
C594   C595    1.529   .     S
C594   H644    1.107   .     S
C595   H641    1.111   .     S
C595   H642    1.107   .     S
C595   H643    1.110   .     S
C596   H651    1.102   .     S
C596   H650    1.106   .     S
C596   C598    1.532   .     S
C597   O732    1.293   .     A
C597   O720    1.291   .     A
C598   H646    1.109   .     S
C598   H649    1.110   .     S
C598   H648    1.110   .     S
C599   H655    1.106   .     S
C599   C600    1.531   .     S
C599   H656    1.112   .     S
C600   H652    1.109   .     S
C600   H654    1.106   .     S
C600   H653    1.110   .     S
C601   H661    1.107   .     S
C601   C602    1.528   .     S
C601   H662    1.101   .     S
C602   H660    1.111   .     S
C602   H659    1.110   .     S
C602   H657    1.107   .     S
C603   C604    1.530   .     S
C603   H666    1.106   .     S
C603   H667    1.110   .     S
C604   H664    1.109   .     S
C604   H663    1.107   .     S
C604   H665    1.109   .     S
C605   H672    1.108   .     S
C605   C606    1.529   .     S
C605   H673    1.109   .     S
C606   H668    1.109   .     S
C606   H671    1.110   .     S
C606   H670    1.109   .     S
C607   H677    1.104   .     S
C607   H678    1.112   .     S
C607   C609    1.528   .     S
C608   O719    1.288   .     A
C608   O718    1.295   .     A
C609   H674    1.108   .     S
C609   H675    1.109   .     S
C609   H676    1.104   .     S
C610   H684    1.100   .     S
C610   H683    1.106   .     S
C610   C611    1.529   .     S
C611   H682    1.111   .     S
C611   H679    1.107   .     S
C611   H681    1.109   .     S
C612   H688    1.097   .     S
C612   H689    1.108   .     S
C612   C613    1.530   .     S
C613   H685    1.111   .     S
C613   H686    1.109   .     S
C613   H687    1.110   .     S
C614   H695    1.108   .     S
C614   H694    1.105   .     S
C614   C615    1.529   .     S
C615   H692    1.110   .     S
C615   H693    1.109   .     S
C615   H690    1.111   .     S
C616   H699    1.104   .     S
C616   C617    1.529   .     S
C616   H700    1.103   .     S
C617   H697    1.111   .     S
C618   C620    1.532   .     S
C618   H706    1.109   .     S
C618   H705    1.096   .     S
C619   O721    1.288   .     A
C619   O724    1.264   .     A
C620   H701    1.110   .     S
C620   H704    1.108   .     S
C620   H703    1.110   .     S
C621   H710    1.107   .     S
C621   H711    1.104   .     S
C621   C622    1.529   .     S
C622   H708    1.108   .     S
C622   H707    1.111   .     S
C622   H709    1.110   .     S
C623   O722    1.291   .     A
C623   O723    1.291   .     A
C624   H625    1.081   .     S
C624   N714    1.364   .     A
C624   C2028   1.408   1_554 S
H632   C407    1.109   1_655 S
H696   C249    1.108   1_565 S
H698   C249    1.111   1_565 S
N713   Zn733   1.993   .     S
N714   Zn734   1.993   .     S
N715   Zn735   1.993   .     S
N716   Zn736   1.993   .     S
O717   Zn733   1.959   .     S
O718   Zn736   1.959   .     S
O719   Zn735   1.967   .     S
O720   Zn368   1.967   1_565 S
O721   Zn368   1.976   1_565 S
O722   Zn735   1.976   .     S
O723   Zn736   1.991   .     S
O724   Zn367   1.991   1_565 S
O725   Zn550   1.959   1_655 S
O726   Zn549   1.967   1_655 S
O727   Zn734   1.967   .     S
O728   Zn550   1.976   1_655 S
O729   Zn733   1.976   .     S
O730   Zn734   1.991   .     S
O731   Zn549   1.991   1_655 S
O732   Zn367   1.959   1_565 S
C737   O901    1.289   .     A
C737   O911    1.291   .     A
C737   C766    1.483   .     S
C738   H820    1.079   .     S
C738   N1081   1.362   .     A
C738   C1475   1.406   .     S
C739   H831    1.077   .     S
C739   N1082   1.364   .     S
C740   H842    1.080   .     S
C740   C1544   1.408   .     S
C740   N897    1.365   .     S
C741   H853    1.081   .     S
C741   N900    1.364   .     S
C742   H864    1.080   .     S
C742   C1479   1.408   .     S
C742   N1267   1.364   .     S
C743   N1268   1.364   .     A
C743   H875    1.080   .     S
C744   H886    1.081   .     S
C744   N899    1.364   .     A
C744   C1477   1.408   .     S
C745   C772    1.527   .     S
C745   C756    1.406   .     A
C745   C764    1.398   .     A
C746   C763    1.399   .     A
C746   C757    1.375   .     A
C746   C774    1.530   .     S
C747   C754    1.405   .     A
C747   C763    1.419   .     A
C747   C776    1.533   .     S
C748   C765    1.471   .     S
C748   O910    1.287   .     A
C748   O909    1.291   .     A
C749   C764    1.395   .     A
C749   C778    1.525   .     S
C749   C755    1.396   .     A
C750   C780    1.538   .     S
C750   C766    1.445   .     A
C750   C761    1.410   .     A
C751   C783    1.528   .     S
C751   C765    1.431   .     A
C751   C762    1.395   .     A
C752   C785    1.533   .     S
C752   C765    1.438   .     A
C752   C758    1.403   .     A
C753   C787    1.527   .     S
C753   C766    1.443   .     A
C753   C760    1.404   .     A
C754   C789    1.527   .     S
C754   C768    1.415   .     A
C755   C767    1.431   .     A
C755   C791    1.525   .     S
C756   C794    1.529   .     S
C756   C767    1.436   .     A
C757   C768    1.411   .     A
C757   C796    1.525   .     S
C758   C771    1.398   .     A
C758   C798    1.527   .     S
C759   O915    1.288   .     A
C759   O912    1.292   .     A
C759   C764    1.460   .     S
C760   C769    1.396   .     A
C760   C800    1.535   .     S
C761   C802    1.527   .     S
C761   C769    1.405   .     A
C762   C771    1.395   .     A
C762   C805    1.524   .     S
C763   C770    1.406   .     S
C767   C807    1.478   .     S
C768   C803    1.427   .     S
C769   C792    1.461   .     S
C770   O914    1.264   .     A
C770   O913    1.277   .     A
C771   C781    1.457   .     S
C772   C773    1.529   .     S
C772   H813    1.106   .     S
C772   H812    1.107   .     S
C773   H810    1.111   .     S
C773   H896    1.111   .     S
C773   H811    1.109   .     S
C774   C775    1.529   .     S
C774   H818    1.108   .     S
C774   H817    1.109   .     S
C775   H814    1.109   .     S
C775   H815    1.108   .     S
C775   H1000   1.109   1_455 S
C776   H823    1.106   .     S
C776   C777    1.527   .     S
C776   H824    1.104   .     S
C777   H819    1.109   .     S
C777   H821    1.111   .     S
C777   H822    1.111   .     S
C778   H829    1.103   .     S
C778   C779    1.529   .     S
C778   H828    1.107   .     S
C779   H825    1.111   .     S
C779   H826    1.107   .     S
C779   H827    1.110   .     S
C780   H835    1.102   .     S
C780   H834    1.106   .     S
C780   C782    1.532   .     S
C781   O916    1.293   .     A
C781   O904    1.291   .     A
C782   H830    1.109   .     S
C782   H833    1.110   .     S
C782   H832    1.110   .     S
C783   H839    1.106   .     S
C783   C784    1.531   .     S
C783   H840    1.112   .     S
C784   H836    1.109   .     S
C784   H838    1.106   .     S
C784   H837    1.110   .     S
C785   H845    1.107   .     S
C785   C786    1.528   .     S
C785   H846    1.101   .     S
C786   H844    1.111   .     S
C786   H843    1.110   .     S
C786   H841    1.107   .     S
C787   C788    1.530   .     S
C787   H850    1.106   .     S
C787   H851    1.110   .     S
C788   H848    1.109   .     S
C788   H847    1.107   .     S
C788   H849    1.109   .     S
C789   H856    1.108   .     S
C789   C790    1.529   .     S
C789   H857    1.109   .     S
C790   H852    1.109   .     S
C790   H855    1.110   .     S
C790   H854    1.109   .     S
C791   H861    1.104   .     S
C791   H862    1.112   .     S
C791   C793    1.528   .     S
C792   O903    1.288   .     A
C792   O902    1.295   .     A
C793   H858    1.108   .     S
C793   H859    1.109   .     S
C793   H860    1.104   .     S
C794   H868    1.100   .     S
C794   H867    1.106   .     S
C794   C795    1.529   .     S
C795   H866    1.111   .     S
C795   H863    1.107   .     S
C795   H865    1.109   .     S
C796   H872    1.097   .     S
C796   H873    1.108   .     S
C796   C797    1.530   .     S
C797   H869    1.111   .     S
C797   H870    1.109   .     S
C797   H871    1.110   .     S
C798   H879    1.108   .     S
C798   H878    1.105   .     S
C798   C799    1.529   .     S
C799   H876    1.110   .     S
C799   H877    1.109   .     S
C799   H874    1.111   .     S
C800   H883    1.104   .     S
C800   C801    1.529   .     S
C800   H884    1.103   .     S
C801   H881    1.111   .     S
C801   H1248   1.108   1_545 S
C801   H1250   1.111   1_545 S
C802   C804    1.532   .     S
C802   H890    1.109   .     S
C802   H889    1.096   .     S
C803   O905    1.288   .     A
C803   O908    1.264   .     A
C804   H885    1.110   .     S
C804   H888    1.108   .     S
C804   H887    1.110   .     S
C805   H894    1.107   .     S
C805   H895    1.104   .     S
C805   C806    1.529   .     S
C806   H892    1.108   .     S
C806   H891    1.111   .     S
C806   H893    1.110   .     S
C807   O906    1.291   .     A
C807   O907    1.291   .     A
C808   H809    1.081   .     S
C808   N898    1.364   .     A
H816   C959    1.109   .     S
H880   C1169   1.108   .     S
H882   C1169   1.111   .     S
N897   C922    1.362   1_455 A
N897   Zn917   1.993   .     S
N898   C923    1.364   1_455 S
N898   Zn918   1.993   .     S
N899   Zn919   1.993   .     S
N899   C1110   1.364   1_545 S
N900   C1111   1.364   1_545 A
N900   Zn920   1.993   .     S
O901   Zn917   1.959   .     S
O902   Zn920   1.959   .     S
O903   Zn919   1.967   .     S
O904   Zn1288  1.967   .     S
O905   Zn1288  1.976   .     S
O906   Zn919   1.976   .     S
O907   Zn920   1.991   .     S
O908   Zn1287  1.991   .     S
O909   Zn1102  1.959   .     S
O910   Zn1101  1.967   .     S
O911   Zn918   1.967   .     S
O912   Zn1102  1.976   .     S
O913   Zn917   1.976   .     S
O914   Zn918   1.991   .     S
O915   Zn1101  1.991   .     S
O916   Zn1287  1.959   .     S
Zn917  O1099   1.991   1_455 S
Zn917  O1094   1.967   1_455 S
Zn918  O1096   1.976   1_455 S
Zn918  O1093   1.959   1_455 S
Zn919  O1276   1.991   1_545 S
Zn919  O1284   1.959   1_545 S
Zn920  O1273   1.976   1_545 S
Zn920  O1272   1.967   1_545 S
C921   O1085   1.289   .     A
C921   O1095   1.291   .     A
C921   C950    1.483   .     S
C922   H1004   1.079   .     S
C922   N897    1.362   1_655 A
C922   C1659   1.406   .     S
C923   H1015   1.077   .     S
C923   N898    1.364   1_655 S
C924   H1026   1.080   .     S
C924   C1728   1.408   .     S
C924   N1081   1.365   .     S
C925   H1037   1.081   .     S
C925   N1084   1.364   .     S
C926   H1048   1.080   .     S
C926   C1663   1.408   .     S
C926   N1451   1.364   .     S
C927   N1452   1.364   .     A
C927   H1059   1.080   .     S
C928   H1070   1.081   .     S
C928   N1083   1.364   .     A
C928   C1661   1.408   .     S
C929   C956    1.527   .     S
C929   C940    1.406   .     A
C929   C948    1.398   .     A
C930   C947    1.399   .     A
C930   C941    1.375   .     A
C930   C958    1.530   .     S
C931   C938    1.405   .     A
C931   C947    1.419   .     A
C931   C960    1.533   .     S
C932   C949    1.471   .     S
C932   O1094   1.287   .     A
C932   O1093   1.291   .     A
C933   C948    1.395   .     A
C933   C962    1.525   .     S
C933   C939    1.396   .     A
C934   C964    1.538   .     S
C934   C950    1.445   .     A
C934   C945    1.410   .     A
C935   C967    1.528   .     S
C935   C949    1.431   .     A
C935   C946    1.395   .     A
C936   C969    1.533   .     S
C936   C949    1.438   .     A
C936   C942    1.403   .     A
C937   C971    1.527   .     S
C937   C950    1.443   .     A
C937   C944    1.404   .     A
C938   C973    1.527   .     S
C938   C952    1.415   .     A
C939   C951    1.431   .     A
C939   C975    1.525   .     S
C940   C978    1.529   .     S
C940   C951    1.436   .     A
C941   C952    1.411   .     A
C941   C980    1.525   .     S
C942   C955    1.398   .     A
C942   C982    1.527   .     S
C943   O1099   1.288   .     A
C943   O1096   1.292   .     A
C943   C948    1.460   .     S
C944   C953    1.396   .     A
C944   C984    1.535   .     S
C945   C986    1.527   .     S
C945   C953    1.405   .     A
C946   C955    1.395   .     A
C946   C989    1.524   .     S
C947   C954    1.406   .     S
C951   C991    1.478   .     S
C952   C987    1.427   .     S
C953   C976    1.461   .     S
C954   O1098   1.264   .     A
C954   O1097   1.277   .     A
C955   C965    1.457   .     S
C956   C957    1.529   .     S
C956   H997    1.106   .     S
C956   H996    1.107   .     S
C957   H994    1.111   .     S
C957   H1080   1.111   .     S
C957   H995    1.109   .     S
C958   C959    1.529   .     S
C958   H1002   1.108   .     S
C958   H1001   1.109   .     S
C959   H998    1.109   .     S
C959   H999    1.108   .     S
C960   H1007   1.106   .     S
C960   C961    1.527   .     S
C960   H1008   1.104   .     S
C961   H1003   1.109   .     S
C961   H1005   1.111   .     S
C961   H1006   1.111   .     S
C962   H1013   1.103   .     S
C962   C963    1.529   .     S
C962   H1012   1.107   .     S
C963   H1009   1.111   .     S
C963   H1010   1.107   .     S
C963   H1011   1.110   .     S
C964   H1019   1.102   .     S
C964   H1018   1.106   .     S
C964   C966    1.532   .     S
C965   O1100   1.293   .     A
C965   O1088   1.291   .     A
C966   H1014   1.109   .     S
C966   H1017   1.110   .     S
C966   H1016   1.110   .     S
C967   H1023   1.106   .     S
C967   C968    1.531   .     S
C967   H1024   1.112   .     S
C968   H1020   1.109   .     S
C968   H1022   1.106   .     S
C968   H1021   1.110   .     S
C969   H1029   1.107   .     S
C969   C970    1.528   .     S
C969   H1030   1.101   .     S
C970   H1028   1.111   .     S
C970   H1027   1.110   .     S
C970   H1025   1.107   .     S
C971   C972    1.530   .     S
C971   H1034   1.106   .     S
C971   H1035   1.110   .     S
C972   H1032   1.109   .     S
C972   H1031   1.107   .     S
C972   H1033   1.109   .     S
C973   H1040   1.108   .     S
C973   C974    1.529   .     S
C973   H1041   1.109   .     S
C974   H1036   1.109   .     S
C974   H1039   1.110   .     S
C974   H1038   1.109   .     S
C975   H1045   1.104   .     S
C975   H1046   1.112   .     S
C975   C977    1.528   .     S
C976   O1087   1.288   .     A
C976   O1086   1.295   .     A
C977   H1042   1.108   .     S
C977   H1043   1.109   .     S
C977   H1044   1.104   .     S
C978   H1052   1.100   .     S
C978   H1051   1.106   .     S
C978   C979    1.529   .     S
C979   H1050   1.111   .     S
C979   H1047   1.107   .     S
C979   H1049   1.109   .     S
C980   H1056   1.097   .     S
C980   H1057   1.108   .     S
C980   C981    1.530   .     S
C981   H1053   1.111   .     S
C981   H1054   1.109   .     S
C981   H1055   1.110   .     S
C982   H1063   1.108   .     S
C982   H1062   1.105   .     S
C982   C983    1.529   .     S
C983   H1060   1.110   .     S
C983   H1061   1.109   .     S
C983   H1058   1.111   .     S
C984   H1067   1.104   .     S
C984   C985    1.529   .     S
C984   H1068   1.103   .     S
C985   H1065   1.111   .     S
C985   H1432   1.108   1_545 S
C985   H1434   1.111   1_545 S
C986   C988    1.532   .     S
C986   H1074   1.109   .     S
C986   H1073   1.096   .     S
C987   O1089   1.288   .     A
C987   O1092   1.264   .     A
C988   H1069   1.110   .     S
C988   H1072   1.108   .     S
C988   H1071   1.110   .     S
C989   H1078   1.107   .     S
C989   H1079   1.104   .     S
C989   C990    1.529   .     S
C990   H1076   1.108   .     S
C990   H1075   1.111   .     S
C990   H1077   1.110   .     S
C991   O1090   1.291   .     A
C991   O1091   1.291   .     A
C992   H993    1.081   .     S
C992   N1082   1.364   .     A
H1000  C775    1.109   1_655 S
H1064  C1353   1.108   .     S
H1066  C1353   1.111   .     S
N1081  Zn1101  1.993   .     S
N1082  Zn1102  1.993   .     S
N1083  Zn1103  1.993   .     S
N1083  C1294   1.364   1_545 S
N1084  C1295   1.364   1_545 A
N1084  Zn1104  1.993   .     S
O1085  Zn1101  1.959   .     S
O1086  Zn1104  1.959   .     S
O1087  Zn1103  1.967   .     S
O1088  Zn1472  1.967   .     S
O1089  Zn1472  1.976   .     S
O1090  Zn1103  1.976   .     S
O1091  Zn1104  1.991   .     S
O1092  Zn1471  1.991   .     S
O1093  Zn918   1.959   1_655 S
O1094  Zn917   1.967   1_655 S
O1095  Zn1102  1.967   .     S
O1096  Zn918   1.976   1_655 S
O1097  Zn1101  1.976   .     S
O1098  Zn1102  1.991   .     S
O1099  Zn917   1.991   1_655 S
O1100  Zn1471  1.959   .     S
Zn1103 O1460   1.991   1_545 S
Zn1103 O1468   1.959   1_545 S
Zn1104 O1457   1.976   1_545 S
Zn1104 O1456   1.967   1_545 S
C1105  O1269   1.289   .     A
C1105  O1279   1.291   .     A
C1105  C1134   1.483   .     S
C1106  H1188   1.079   .     S
C1106  N1449   1.362   .     A
C1106  C1843   1.406   .     S
C1107  H1199   1.077   .     S
C1107  N1450   1.364   .     S
C1108  H1210   1.080   .     S
C1108  C1912   1.408   .     S
C1108  N1265   1.365   .     S
C1109  H1221   1.081   .     S
C1109  N1268   1.364   .     S
C1110  H1232   1.080   .     S
C1110  C1847   1.408   .     S
C1110  N899    1.364   1_565 S
C1111  N900    1.364   1_565 A
C1111  H1243   1.080   .     S
C1112  H1254   1.081   .     S
C1112  N1267   1.364   .     A
C1112  C1845   1.408   .     S
C1113  C1140   1.527   .     S
C1113  C1124   1.406   .     A
C1113  C1132   1.398   .     A
C1114  C1131   1.399   .     A
C1114  C1125   1.375   .     A
C1114  C1142   1.530   .     S
C1115  C1122   1.405   .     A
C1115  C1131   1.419   .     A
C1115  C1144   1.533   .     S
C1116  C1133   1.471   .     S
C1116  O1278   1.287   .     A
C1116  O1277   1.291   .     A
C1117  C1132   1.395   .     A
C1117  C1146   1.525   .     S
C1117  C1123   1.396   .     A
C1118  C1148   1.538   .     S
C1118  C1134   1.445   .     A
C1118  C1129   1.410   .     A
C1119  C1151   1.528   .     S
C1119  C1133   1.431   .     A
C1119  C1130   1.395   .     A
C1120  C1153   1.533   .     S
C1120  C1133   1.438   .     A
C1120  C1126   1.403   .     A
C1121  C1155   1.527   .     S
C1121  C1134   1.443   .     A
C1121  C1128   1.404   .     A
C1122  C1157   1.527   .     S
C1122  C1136   1.415   .     A
C1123  C1135   1.431   .     A
C1123  C1159   1.525   .     S
C1124  C1162   1.529   .     S
C1124  C1135   1.436   .     A
C1125  C1136   1.411   .     A
C1125  C1164   1.525   .     S
C1126  C1139   1.398   .     A
C1126  C1166   1.527   .     S
C1127  O1283   1.288   .     A
C1127  O1280   1.292   .     A
C1127  C1132   1.460   .     S
C1128  C1137   1.396   .     A
C1128  C1168   1.535   .     S
C1129  C1170   1.527   .     S
C1129  C1137   1.405   .     A
C1130  C1139   1.395   .     A
C1130  C1173   1.524   .     S
C1131  C1138   1.406   .     S
C1135  C1175   1.478   .     S
C1136  C1171   1.427   .     S
C1137  C1160   1.461   .     S
C1138  O1282   1.264   .     A
C1138  O1281   1.277   .     A
C1139  C1149   1.457   .     S
C1140  C1141   1.529   .     S
C1140  H1181   1.106   .     S
C1140  H1180   1.107   .     S
C1141  H1178   1.111   .     S
C1141  H1264   1.111   .     S
C1141  H1179   1.109   .     S
C1142  C1143   1.529   .     S
C1142  H1186   1.108   .     S
C1142  H1185   1.109   .     S
C1143  H1182   1.109   .     S
C1143  H1183   1.108   .     S
C1143  H1368   1.109   1_455 S
C1144  H1191   1.106   .     S
C1144  C1145   1.527   .     S
C1144  H1192   1.104   .     S
C1145  H1187   1.109   .     S
C1145  H1189   1.111   .     S
C1145  H1190   1.111   .     S
C1146  H1197   1.103   .     S
C1146  C1147   1.529   .     S
C1146  H1196   1.107   .     S
C1147  H1193   1.111   .     S
C1147  H1194   1.107   .     S
C1147  H1195   1.110   .     S
C1148  H1203   1.102   .     S
C1148  H1202   1.106   .     S
C1148  C1150   1.532   .     S
C1149  O1284   1.293   .     A
C1149  O1272   1.291   .     A
C1150  H1198   1.109   .     S
C1150  H1201   1.110   .     S
C1150  H1200   1.110   .     S
C1151  H1207   1.106   .     S
C1151  C1152   1.531   .     S
C1151  H1208   1.112   .     S
C1152  H1204   1.109   .     S
C1152  H1206   1.106   .     S
C1152  H1205   1.110   .     S
C1153  H1213   1.107   .     S
C1153  C1154   1.528   .     S
C1153  H1214   1.101   .     S
C1154  H1212   1.111   .     S
C1154  H1211   1.110   .     S
C1154  H1209   1.107   .     S
C1155  C1156   1.530   .     S
C1155  H1218   1.106   .     S
C1155  H1219   1.110   .     S
C1156  H1216   1.109   .     S
C1156  H1215   1.107   .     S
C1156  H1217   1.109   .     S
C1157  H1224   1.108   .     S
C1157  C1158   1.529   .     S
C1157  H1225   1.109   .     S
C1158  H1220   1.109   .     S
C1158  H1223   1.110   .     S
C1158  H1222   1.109   .     S
C1159  H1229   1.104   .     S
C1159  H1230   1.112   .     S
C1159  C1161   1.528   .     S
C1160  O1271   1.288   .     A
C1160  O1270   1.295   .     A
C1161  H1226   1.108   .     S
C1161  H1227   1.109   .     S
C1161  H1228   1.104   .     S
C1162  H1236   1.100   .     S
C1162  H1235   1.106   .     S
C1162  C1163   1.529   .     S
C1163  H1234   1.111   .     S
C1163  H1231   1.107   .     S
C1163  H1233   1.109   .     S
C1164  H1240   1.097   .     S
C1164  H1241   1.108   .     S
C1164  C1165   1.530   .     S
C1165  H1237   1.111   .     S
C1165  H1238   1.109   .     S
C1165  H1239   1.110   .     S
C1166  H1247   1.108   .     S
C1166  H1246   1.105   .     S
C1166  C1167   1.529   .     S
C1167  H1244   1.110   .     S
C1167  H1245   1.109   .     S
C1167  H1242   1.111   .     S
C1168  H1251   1.104   .     S
C1168  C1169   1.529   .     S
C1168  H1252   1.103   .     S
C1169  H1249   1.111   .     S
C1170  C1172   1.532   .     S
C1170  H1258   1.109   .     S
C1170  H1257   1.096   .     S
C1171  O1273   1.288   .     A
C1171  O1276   1.264   .     A
C1172  H1253   1.110   .     S
C1172  H1256   1.108   .     S
C1172  H1255   1.110   .     S
C1173  H1262   1.107   .     S
C1173  H1263   1.104   .     S
C1173  C1174   1.529   .     S
C1174  H1260   1.108   .     S
C1174  H1259   1.111   .     S
C1174  H1261   1.110   .     S
C1175  O1274   1.291   .     A
C1175  O1275   1.291   .     A
C1176  H1177   1.081   .     S
C1176  N1266   1.364   .     A
H1184  C1327   1.109   .     S
H1248  C801    1.108   1_565 S
H1250  C801    1.111   1_565 S
N1265  C1290   1.362   1_455 A
N1265  Zn1285  1.993   .     S
N1266  C1291   1.364   1_455 S
N1266  Zn1286  1.993   .     S
N1267  Zn1287  1.993   .     S
N1268  Zn1288  1.993   .     S
O1269  Zn1285  1.959   .     S
O1270  Zn1288  1.959   .     S
O1271  Zn1287  1.967   .     S
O1272  Zn920   1.967   1_565 S
O1273  Zn920   1.976   1_565 S
O1274  Zn1287  1.976   .     S
O1275  Zn1288  1.991   .     S
O1276  Zn919   1.991   1_565 S
O1277  Zn1470  1.959   .     S
O1278  Zn1469  1.967   .     S
O1279  Zn1286  1.967   .     S
O1280  Zn1470  1.976   .     S
O1281  Zn1285  1.976   .     S
O1282  Zn1286  1.991   .     S
O1283  Zn1469  1.991   .     S
O1284  Zn919   1.959   1_565 S
Zn1285 O1467   1.991   1_455 S
Zn1285 O1462   1.967   1_455 S
Zn1286 O1464   1.976   1_455 S
Zn1286 O1461   1.959   1_455 S
C1289  O1453   1.289   .     A
C1289  O1463   1.291   .     A
C1289  C1318   1.483   .     S
C1290  H1372   1.079   .     S
C1290  N1265   1.362   1_655 A
C1290  C2027   1.406   .     S
C1291  H1383   1.077   .     S
C1291  N1266   1.364   1_655 S
C1292  H1394   1.080   .     S
C1292  C2096   1.408   .     S
C1292  N1449   1.365   .     S
C1293  H1405   1.081   .     S
C1293  N1452   1.364   .     S
C1294  H1416   1.080   .     S
C1294  C2031   1.408   .     S
C1294  N1083   1.364   1_565 S
C1295  N1084   1.364   1_565 A
C1295  H1427   1.080   .     S
C1296  H1438   1.081   .     S
C1296  N1451   1.364   .     A
C1296  C2029   1.408   .     S
C1297  C1324   1.527   .     S
C1297  C1308   1.406   .     A
C1297  C1316   1.398   .     A
C1298  C1315   1.399   .     A
C1298  C1309   1.375   .     A
C1298  C1326   1.530   .     S
C1299  C1306   1.405   .     A
C1299  C1315   1.419   .     A
C1299  C1328   1.533   .     S
C1300  C1317   1.471   .     S
C1300  O1462   1.287   .     A
C1300  O1461   1.291   .     A
C1301  C1316   1.395   .     A
C1301  C1330   1.525   .     S
C1301  C1307   1.396   .     A
C1302  C1332   1.538   .     S
C1302  C1318   1.445   .     A
C1302  C1313   1.410   .     A
C1303  C1335   1.528   .     S
C1303  C1317   1.431   .     A
C1303  C1314   1.395   .     A
C1304  C1337   1.533   .     S
C1304  C1317   1.438   .     A
C1304  C1310   1.403   .     A
C1305  C1339   1.527   .     S
C1305  C1318   1.443   .     A
C1305  C1312   1.404   .     A
C1306  C1341   1.527   .     S
C1306  C1320   1.415   .     A
C1307  C1319   1.431   .     A
C1307  C1343   1.525   .     S
C1308  C1346   1.529   .     S
C1308  C1319   1.436   .     A
C1309  C1320   1.411   .     A
C1309  C1348   1.525   .     S
C1310  C1323   1.398   .     A
C1310  C1350   1.527   .     S
C1311  O1467   1.288   .     A
C1311  O1464   1.292   .     A
C1311  C1316   1.460   .     S
C1312  C1321   1.396   .     A
C1312  C1352   1.535   .     S
C1313  C1354   1.527   .     S
C1313  C1321   1.405   .     A
C1314  C1323   1.395   .     A
C1314  C1357   1.524   .     S
C1315  C1322   1.406   .     S
C1319  C1359   1.478   .     S
C1320  C1355   1.427   .     S
C1321  C1344   1.461   .     S
C1322  O1466   1.264   .     A
C1322  O1465   1.277   .     A
C1323  C1333   1.457   .     S
C1324  C1325   1.529   .     S
C1324  H1365   1.106   .     S
C1324  H1364   1.107   .     S
C1325  H1362   1.111   .     S
C1325  H1448   1.111   .     S
C1325  H1363   1.109   .     S
C1326  C1327   1.529   .     S
C1326  H1370   1.108   .     S
C1326  H1369   1.109   .     S
C1327  H1366   1.109   .     S
C1327  H1367   1.108   .     S
C1328  H1375   1.106   .     S
C1328  C1329   1.527   .     S
C1328  H1376   1.104   .     S
C1329  H1371   1.109   .     S
C1329  H1373   1.111   .     S
C1329  H1374   1.111   .     S
C1330  H1381   1.103   .     S
C1330  C1331   1.529   .     S
C1330  H1380   1.107   .     S
C1331  H1377   1.111   .     S
C1331  H1378   1.107   .     S
C1331  H1379   1.110   .     S
C1332  H1387   1.102   .     S
C1332  H1386   1.106   .     S
C1332  C1334   1.532   .     S
C1333  O1468   1.293   .     A
C1333  O1456   1.291   .     A
C1334  H1382   1.109   .     S
C1334  H1385   1.110   .     S
C1334  H1384   1.110   .     S
C1335  H1391   1.106   .     S
C1335  C1336   1.531   .     S
C1335  H1392   1.112   .     S
C1336  H1388   1.109   .     S
C1336  H1390   1.106   .     S
C1336  H1389   1.110   .     S
C1337  H1397   1.107   .     S
C1337  C1338   1.528   .     S
C1337  H1398   1.101   .     S
C1338  H1396   1.111   .     S
C1338  H1395   1.110   .     S
C1338  H1393   1.107   .     S
C1339  C1340   1.530   .     S
C1339  H1402   1.106   .     S
C1339  H1403   1.110   .     S
C1340  H1400   1.109   .     S
C1340  H1399   1.107   .     S
C1340  H1401   1.109   .     S
C1341  H1408   1.108   .     S
C1341  C1342   1.529   .     S
C1341  H1409   1.109   .     S
C1342  H1404   1.109   .     S
C1342  H1407   1.110   .     S
C1342  H1406   1.109   .     S
C1343  H1413   1.104   .     S
C1343  H1414   1.112   .     S
C1343  C1345   1.528   .     S
C1344  O1455   1.288   .     A
C1344  O1454   1.295   .     A
C1345  H1410   1.108   .     S
C1345  H1411   1.109   .     S
C1345  H1412   1.104   .     S
C1346  H1420   1.100   .     S
C1346  H1419   1.106   .     S
C1346  C1347   1.529   .     S
C1347  H1418   1.111   .     S
C1347  H1415   1.107   .     S
C1347  H1417   1.109   .     S
C1348  H1424   1.097   .     S
C1348  H1425   1.108   .     S
C1348  C1349   1.530   .     S
C1349  H1421   1.111   .     S
C1349  H1422   1.109   .     S
C1349  H1423   1.110   .     S
C1350  H1431   1.108   .     S
C1350  H1430   1.105   .     S
C1350  C1351   1.529   .     S
C1351  H1428   1.110   .     S
C1351  H1429   1.109   .     S
C1351  H1426   1.111   .     S
C1352  H1435   1.104   .     S
C1352  C1353   1.529   .     S
C1352  H1436   1.103   .     S
C1353  H1433   1.111   .     S
C1354  C1356   1.532   .     S
C1354  H1442   1.109   .     S
C1354  H1441   1.096   .     S
C1355  O1457   1.288   .     A
C1355  O1460   1.264   .     A
C1356  H1437   1.110   .     S
C1356  H1440   1.108   .     S
C1356  H1439   1.110   .     S
C1357  H1446   1.107   .     S
C1357  H1447   1.104   .     S
C1357  C1358   1.529   .     S
C1358  H1444   1.108   .     S
C1358  H1443   1.111   .     S
C1358  H1445   1.110   .     S
C1359  O1458   1.291   .     A
C1359  O1459   1.291   .     A
C1360  H1361   1.081   .     S
C1360  N1450   1.364   .     A
H1368  C1143   1.109   1_655 S
H1432  C985    1.108   1_565 S
H1434  C985    1.111   1_565 S
N1449  Zn1469  1.993   .     S
N1450  Zn1470  1.993   .     S
N1451  Zn1471  1.993   .     S
N1452  Zn1472  1.993   .     S
O1453  Zn1469  1.959   .     S
O1454  Zn1472  1.959   .     S
O1455  Zn1471  1.967   .     S
O1456  Zn1104  1.967   1_565 S
O1457  Zn1104  1.976   1_565 S
O1458  Zn1471  1.976   .     S
O1459  Zn1472  1.991   .     S
O1460  Zn1103  1.991   1_565 S
O1461  Zn1286  1.959   1_655 S
O1462  Zn1285  1.967   1_655 S
O1463  Zn1470  1.967   .     S
O1464  Zn1286  1.976   1_655 S
O1465  Zn1469  1.976   .     S
O1466  Zn1470  1.991   .     S
O1467  Zn1285  1.991   1_655 S
O1468  Zn1103  1.959   1_565 S
C1473  O1637   1.289   .     A
C1473  O1647   1.291   .     A
C1473  C1502   1.483   .     S
C1474  H1556   1.079   .     S
C1474  N1817   1.362   .     A
C1474  C3      1.406   1_556 S
C1475  H1567   1.077   .     S
C1475  N1818   1.364   .     S
C1476  H1578   1.080   .     S
C1476  C72     1.408   1_556 S
C1476  N1633   1.365   .     S
C1477  H1589   1.081   .     S
C1477  N1636   1.364   .     S
C1478  H1600   1.080   .     S
C1478  C7      1.408   1_556 S
C1478  N2003   1.364   .     S
C1479  N2004   1.364   .     A
C1479  H1611   1.080   .     S
C1480  H1622   1.081   .     S
C1480  N1635   1.364   .     A
C1480  C5      1.408   1_556 S
C1481  C1508   1.527   .     S
C1481  C1492   1.406   .     A
C1481  C1500   1.398   .     A
C1482  C1499   1.399   .     A
C1482  C1493   1.375   .     A
C1482  C1510   1.530   .     S
C1483  C1490   1.405   .     A
C1483  C1499   1.419   .     A
C1483  C1512   1.533   .     S
C1484  C1501   1.471   .     S
C1484  O1646   1.287   .     A
C1484  O1645   1.291   .     A
C1485  C1500   1.395   .     A
C1485  C1514   1.525   .     S
C1485  C1491   1.396   .     A
C1486  C1516   1.538   .     S
C1486  C1502   1.445   .     A
C1486  C1497   1.410   .     A
C1487  C1519   1.528   .     S
C1487  C1501   1.431   .     A
C1487  C1498   1.395   .     A
C1488  C1521   1.533   .     S
C1488  C1501   1.438   .     A
C1488  C1494   1.403   .     A
C1489  C1523   1.527   .     S
C1489  C1502   1.443   .     A
C1489  C1496   1.404   .     A
C1490  C1525   1.527   .     S
C1490  C1504   1.415   .     A
C1491  C1503   1.431   .     A
C1491  C1527   1.525   .     S
C1492  C1530   1.529   .     S
C1492  C1503   1.436   .     A
C1493  C1504   1.411   .     A
C1493  C1532   1.525   .     S
C1494  C1507   1.398   .     A
C1494  C1534   1.527   .     S
C1495  O1651   1.288   .     A
C1495  O1648   1.292   .     A
C1495  C1500   1.460   .     S
C1496  C1505   1.396   .     A
C1496  C1536   1.535   .     S
C1497  C1538   1.527   .     S
C1497  C1505   1.405   .     A
C1498  C1507   1.395   .     A
C1498  C1541   1.524   .     S
C1499  C1506   1.406   .     S
C1503  C1543   1.478   .     S
C1504  C1539   1.427   .     S
C1505  C1528   1.461   .     S
C1506  O1650   1.264   .     A
C1506  O1649   1.277   .     A
C1507  C1517   1.457   .     S
C1508  C1509   1.529   .     S
C1508  H1549   1.106   .     S
C1508  H1548   1.107   .     S
C1509  H1546   1.111   .     S
C1509  H1632   1.111   .     S
C1509  H1547   1.109   .     S
C1510  C1511   1.529   .     S
C1510  H1554   1.108   .     S
C1510  H1553   1.109   .     S
C1511  H1550   1.109   .     S
C1511  H1551   1.108   .     S
C1511  H1736   1.109   1_455 S
C1512  H1559   1.106   .     S
C1512  C1513   1.527   .     S
C1512  H1560   1.104   .     S
C1513  H1555   1.109   .     S
C1513  H1557   1.111   .     S
C1513  H1558   1.111   .     S
C1514  H1565   1.103   .     S
C1514  C1515   1.529   .     S
C1514  H1564   1.107   .     S
C1515  H1561   1.111   .     S
C1515  H1562   1.107   .     S
C1515  H1563   1.110   .     S
C1516  H1571   1.102   .     S
C1516  H1570   1.106   .     S
C1516  C1518   1.532   .     S
C1517  O1652   1.293   .     A
C1517  O1640   1.291   .     A
C1518  H1566   1.109   .     S
C1518  H1569   1.110   .     S
C1518  H1568   1.110   .     S
C1519  H1575   1.106   .     S
C1519  C1520   1.531   .     S
C1519  H1576   1.112   .     S
C1520  H1572   1.109   .     S
C1520  H1574   1.106   .     S
C1520  H1573   1.110   .     S
C1521  H1581   1.107   .     S
C1521  C1522   1.528   .     S
C1521  H1582   1.101   .     S
C1522  H1580   1.111   .     S
C1522  H1579   1.110   .     S
C1522  H1577   1.107   .     S
C1523  C1524   1.530   .     S
C1523  H1586   1.106   .     S
C1523  H1587   1.110   .     S
C1524  H1584   1.109   .     S
C1524  H1583   1.107   .     S
C1524  H1585   1.109   .     S
C1525  H1592   1.108   .     S
C1525  C1526   1.529   .     S
C1525  H1593   1.109   .     S
C1526  H1588   1.109   .     S
C1526  H1591   1.110   .     S
C1526  H1590   1.109   .     S
C1527  H1597   1.104   .     S
C1527  H1598   1.112   .     S
C1527  C1529   1.528   .     S
C1528  O1639   1.288   .     A
C1528  O1638   1.295   .     A
C1529  H1594   1.108   .     S
C1529  H1595   1.109   .     S
C1529  H1596   1.104   .     S
C1530  H1604   1.100   .     S
C1530  H1603   1.106   .     S
C1530  C1531   1.529   .     S
C1531  H1602   1.111   .     S
C1531  H1599   1.107   .     S
C1531  H1601   1.109   .     S
C1532  H1608   1.097   .     S
C1532  H1609   1.108   .     S
C1532  C1533   1.530   .     S
C1533  H1605   1.111   .     S
C1533  H1606   1.109   .     S
C1533  H1607   1.110   .     S
C1534  H1615   1.108   .     S
C1534  H1614   1.105   .     S
C1534  C1535   1.529   .     S
C1535  H1612   1.110   .     S
C1535  H1613   1.109   .     S
C1535  H1610   1.111   .     S
C1536  H1619   1.104   .     S
C1536  C1537   1.529   .     S
C1536  H1620   1.103   .     S
C1537  H1617   1.111   .     S
C1537  H1984   1.108   1_545 S
C1537  H1986   1.111   1_545 S
C1538  C1540   1.532   .     S
C1538  H1626   1.109   .     S
C1538  H1625   1.096   .     S
C1539  O1641   1.288   .     A
C1539  O1644   1.264   .     A
C1540  H1621   1.110   .     S
C1540  H1624   1.108   .     S
C1540  H1623   1.110   .     S
C1541  H1630   1.107   .     S
C1541  H1631   1.104   .     S
C1541  C1542   1.529   .     S
C1542  H1628   1.108   .     S
C1542  H1627   1.111   .     S
C1542  H1629   1.110   .     S
C1543  O1642   1.291   .     A
C1543  O1643   1.291   .     A
C1544  H1545   1.081   .     S
C1544  N1634   1.364   .     A
H1552  C1695   1.109   .     S
H1616  C1905   1.108   .     S
H1618  C1905   1.111   .     S
N1633  C1658   1.362   1_455 A
N1633  Zn1653  1.993   .     S
N1634  C1659   1.364   1_455 S
N1634  Zn1654  1.993   .     S
N1635  Zn1655  1.993   .     S
N1635  C1846   1.364   1_545 S
N1636  C1847   1.364   1_545 A
N1636  Zn1656  1.993   .     S
O1637  Zn1653  1.959   .     S
O1638  Zn1656  1.959   .     S
O1639  Zn1655  1.967   .     S
O1640  Zn2024  1.967   .     S
O1641  Zn2024  1.976   .     S
O1642  Zn1655  1.976   .     S
O1643  Zn1656  1.991   .     S
O1644  Zn2023  1.991   .     S
O1645  Zn1838  1.959   .     S
O1646  Zn1837  1.967   .     S
O1647  Zn1654  1.967   .     S
O1648  Zn1838  1.976   .     S
O1649  Zn1653  1.976   .     S
O1650  Zn1654  1.991   .     S
O1651  Zn1837  1.991   .     S
O1652  Zn2023  1.959   .     S
Zn1653 O1835   1.991   1_455 S
Zn1653 O1830   1.967   1_455 S
Zn1654 O1832   1.976   1_455 S
Zn1654 O1829   1.959   1_455 S
Zn1655 O2012   1.991   1_545 S
Zn1655 O2020   1.959   1_545 S
Zn1656 O2009   1.976   1_545 S
Zn1656 O2008   1.967   1_545 S
C1657  O1821   1.289   .     A
C1657  O1831   1.291   .     A
C1657  C1686   1.483   .     S
C1658  H1740   1.079   .     S
C1658  N1633   1.362   1_655 A
C1658  C187    1.406   1_556 S
C1659  H1751   1.077   .     S
C1659  N1634   1.364   1_655 S
C1660  H1762   1.080   .     S
C1660  C256    1.408   1_556 S
C1660  N1817   1.365   .     S
C1661  H1773   1.081   .     S
C1661  N1820   1.364   .     S
C1662  H1784   1.080   .     S
C1662  C191    1.408   1_556 S
C1662  N2187   1.364   .     S
C1663  N2188   1.364   .     A
C1663  H1795   1.080   .     S
C1664  H1806   1.081   .     S
C1664  N1819   1.364   .     A
C1664  C189    1.408   1_556 S
C1665  C1692   1.527   .     S
C1665  C1676   1.406   .     A
C1665  C1684   1.398   .     A
C1666  C1683   1.399   .     A
C1666  C1677   1.375   .     A
C1666  C1694   1.530   .     S
C1667  C1674   1.405   .     A
C1667  C1683   1.419   .     A
C1667  C1696   1.533   .     S
C1668  C1685   1.471   .     S
C1668  O1830   1.287   .     A
C1668  O1829   1.291   .     A
C1669  C1684   1.395   .     A
C1669  C1698   1.525   .     S
C1669  C1675   1.396   .     A
C1670  C1700   1.538   .     S
C1670  C1686   1.445   .     A
C1670  C1681   1.410   .     A
C1671  C1703   1.528   .     S
C1671  C1685   1.431   .     A
C1671  C1682   1.395   .     A
C1672  C1705   1.533   .     S
C1672  C1685   1.438   .     A
C1672  C1678   1.403   .     A
C1673  C1707   1.527   .     S
C1673  C1686   1.443   .     A
C1673  C1680   1.404   .     A
C1674  C1709   1.527   .     S
C1674  C1688   1.415   .     A
C1675  C1687   1.431   .     A
C1675  C1711   1.525   .     S
C1676  C1714   1.529   .     S
C1676  C1687   1.436   .     A
C1677  C1688   1.411   .     A
C1677  C1716   1.525   .     S
C1678  C1691   1.398   .     A
C1678  C1718   1.527   .     S
C1679  O1835   1.288   .     A
C1679  O1832   1.292   .     A
C1679  C1684   1.460   .     S
C1680  C1689   1.396   .     A
C1680  C1720   1.535   .     S
C1681  C1722   1.527   .     S
C1681  C1689   1.405   .     A
C1682  C1691   1.395   .     A
C1682  C1725   1.524   .     S
C1683  C1690   1.406   .     S
C1687  C1727   1.478   .     S
C1688  C1723   1.427   .     S
C1689  C1712   1.461   .     S
C1690  O1834   1.264   .     A
C1690  O1833   1.277   .     A
C1691  C1701   1.457   .     S
C1692  C1693   1.529   .     S
C1692  H1733   1.106   .     S
C1692  H1732   1.107   .     S
C1693  H1730   1.111   .     S
C1693  H1816   1.111   .     S
C1693  H1731   1.109   .     S
C1694  C1695   1.529   .     S
C1694  H1738   1.108   .     S
C1694  H1737   1.109   .     S
C1695  H1734   1.109   .     S
C1695  H1735   1.108   .     S
C1696  H1743   1.106   .     S
C1696  C1697   1.527   .     S
C1696  H1744   1.104   .     S
C1697  H1739   1.109   .     S
C1697  H1741   1.111   .     S
C1697  H1742   1.111   .     S
C1698  H1749   1.103   .     S
C1698  C1699   1.529   .     S
C1698  H1748   1.107   .     S
C1699  H1745   1.111   .     S
C1699  H1746   1.107   .     S
C1699  H1747   1.110   .     S
C1700  H1755   1.102   .     S
C1700  H1754   1.106   .     S
C1700  C1702   1.532   .     S
C1701  O1836   1.293   .     A
C1701  O1824   1.291   .     A
C1702  H1750   1.109   .     S
C1702  H1753   1.110   .     S
C1702  H1752   1.110   .     S
C1703  H1759   1.106   .     S
C1703  C1704   1.531   .     S
C1703  H1760   1.112   .     S
C1704  H1756   1.109   .     S
C1704  H1758   1.106   .     S
C1704  H1757   1.110   .     S
C1705  H1765   1.107   .     S
C1705  C1706   1.528   .     S
C1705  H1766   1.101   .     S
C1706  H1764   1.111   .     S
C1706  H1763   1.110   .     S
C1706  H1761   1.107   .     S
C1707  C1708   1.530   .     S
C1707  H1770   1.106   .     S
C1707  H1771   1.110   .     S
C1708  H1768   1.109   .     S
C1708  H1767   1.107   .     S
C1708  H1769   1.109   .     S
C1709  H1776   1.108   .     S
C1709  C1710   1.529   .     S
C1709  H1777   1.109   .     S
C1710  H1772   1.109   .     S
C1710  H1775   1.110   .     S
C1710  H1774   1.109   .     S
C1711  H1781   1.104   .     S
C1711  H1782   1.112   .     S
C1711  C1713   1.528   .     S
C1712  O1823   1.288   .     A
C1712  O1822   1.295   .     A
C1713  H1778   1.108   .     S
C1713  H1779   1.109   .     S
C1713  H1780   1.104   .     S
C1714  H1788   1.100   .     S
C1714  H1787   1.106   .     S
C1714  C1715   1.529   .     S
C1715  H1786   1.111   .     S
C1715  H1783   1.107   .     S
C1715  H1785   1.109   .     S
C1716  H1792   1.097   .     S
C1716  H1793   1.108   .     S
C1716  C1717   1.530   .     S
C1717  H1789   1.111   .     S
C1717  H1790   1.109   .     S
C1717  H1791   1.110   .     S
C1718  H1799   1.108   .     S
C1718  H1798   1.105   .     S
C1718  C1719   1.529   .     S
C1719  H1796   1.110   .     S
C1719  H1797   1.109   .     S
C1719  H1794   1.111   .     S
C1720  H1803   1.104   .     S
C1720  C1721   1.529   .     S
C1720  H1804   1.103   .     S
C1721  H1801   1.111   .     S
C1721  H2168   1.108   1_545 S
C1721  H2170   1.111   1_545 S
C1722  C1724   1.532   .     S
C1722  H1810   1.109   .     S
C1722  H1809   1.096   .     S
C1723  O1825   1.288   .     A
C1723  O1828   1.264   .     A
C1724  H1805   1.110   .     S
C1724  H1808   1.108   .     S
C1724  H1807   1.110   .     S
C1725  H1814   1.107   .     S
C1725  H1815   1.104   .     S
C1725  C1726   1.529   .     S
C1726  H1812   1.108   .     S
C1726  H1811   1.111   .     S
C1726  H1813   1.110   .     S
C1727  O1826   1.291   .     A
C1727  O1827   1.291   .     A
C1728  H1729   1.081   .     S
C1728  N1818   1.364   .     A
H1736  C1511   1.109   1_655 S
H1800  C2089   1.108   .     S
H1802  C2089   1.111   .     S
N1817  Zn1837  1.993   .     S
N1818  Zn1838  1.993   .     S
N1819  Zn1839  1.993   .     S
N1819  C2030   1.364   1_545 S
N1820  C2031   1.364   1_545 A
N1820  Zn1840  1.993   .     S
O1821  Zn1837  1.959   .     S
O1822  Zn1840  1.959   .     S
O1823  Zn1839  1.967   .     S
O1824  Zn2208  1.967   .     S
O1825  Zn2208  1.976   .     S
O1826  Zn1839  1.976   .     S
O1827  Zn1840  1.991   .     S
O1828  Zn2207  1.991   .     S
O1829  Zn1654  1.959   1_655 S
O1830  Zn1653  1.967   1_655 S
O1831  Zn1838  1.967   .     S
O1832  Zn1654  1.976   1_655 S
O1833  Zn1837  1.976   .     S
O1834  Zn1838  1.991   .     S
O1835  Zn1653  1.991   1_655 S
O1836  Zn2207  1.959   .     S
Zn1839 O2196   1.991   1_545 S
Zn1839 O2204   1.959   1_545 S
Zn1840 O2193   1.976   1_545 S
Zn1840 O2192   1.967   1_545 S
C1841  O2005   1.289   .     A
C1841  O2015   1.291   .     A
C1841  C1870   1.483   .     S
C1842  H1924   1.079   .     S
C1842  N2185   1.362   .     A
C1842  C371    1.406   1_556 S
C1843  H1935   1.077   .     S
C1843  N2186   1.364   .     S
C1844  H1946   1.080   .     S
C1844  C440    1.408   1_556 S
C1844  N2001   1.365   .     S
C1845  H1957   1.081   .     S
C1845  N2004   1.364   .     S
C1846  H1968   1.080   .     S
C1846  C375    1.408   1_556 S
C1846  N1635   1.364   1_565 S
C1847  N1636   1.364   1_565 A
C1847  H1979   1.080   .     S
C1848  H1990   1.081   .     S
C1848  N2003   1.364   .     A
C1848  C373    1.408   1_556 S
C1849  C1876   1.527   .     S
C1849  C1860   1.406   .     A
C1849  C1868   1.398   .     A
C1850  C1867   1.399   .     A
C1850  C1861   1.375   .     A
C1850  C1878   1.530   .     S
C1851  C1858   1.405   .     A
C1851  C1867   1.419   .     A
C1851  C1880   1.533   .     S
C1852  C1869   1.471   .     S
C1852  O2014   1.287   .     A
C1852  O2013   1.291   .     A
C1853  C1868   1.395   .     A
C1853  C1882   1.525   .     S
C1853  C1859   1.396   .     A
C1854  C1884   1.538   .     S
C1854  C1870   1.445   .     A
C1854  C1865   1.410   .     A
C1855  C1887   1.528   .     S
C1855  C1869   1.431   .     A
C1855  C1866   1.395   .     A
C1856  C1889   1.533   .     S
C1856  C1869   1.438   .     A
C1856  C1862   1.403   .     A
C1857  C1891   1.527   .     S
C1857  C1870   1.443   .     A
C1857  C1864   1.404   .     A
C1858  C1893   1.527   .     S
C1858  C1872   1.415   .     A
C1859  C1871   1.431   .     A
C1859  C1895   1.525   .     S
C1860  C1898   1.529   .     S
C1860  C1871   1.436   .     A
C1861  C1872   1.411   .     A
C1861  C1900   1.525   .     S
C1862  C1875   1.398   .     A
C1862  C1902   1.527   .     S
C1863  O2019   1.288   .     A
C1863  O2016   1.292   .     A
C1863  C1868   1.460   .     S
C1864  C1873   1.396   .     A
C1864  C1904   1.535   .     S
C1865  C1906   1.527   .     S
C1865  C1873   1.405   .     A
C1866  C1875   1.395   .     A
C1866  C1909   1.524   .     S
C1867  C1874   1.406   .     S
C1871  C1911   1.478   .     S
C1872  C1907   1.427   .     S
C1873  C1896   1.461   .     S
C1874  O2018   1.264   .     A
C1874  O2017   1.277   .     A
C1875  C1885   1.457   .     S
C1876  C1877   1.529   .     S
C1876  H1917   1.106   .     S
C1876  H1916   1.107   .     S
C1877  H1914   1.111   .     S
C1877  H2000   1.111   .     S
C1877  H1915   1.109   .     S
C1878  C1879   1.529   .     S
C1878  H1922   1.108   .     S
C1878  H1921   1.109   .     S
C1879  H1918   1.109   .     S
C1879  H1919   1.108   .     S
C1879  H2104   1.109   1_455 S
C1880  H1927   1.106   .     S
C1880  C1881   1.527   .     S
C1880  H1928   1.104   .     S
C1881  H1923   1.109   .     S
C1881  H1925   1.111   .     S
C1881  H1926   1.111   .     S
C1882  H1933   1.103   .     S
C1882  C1883   1.529   .     S
C1882  H1932   1.107   .     S
C1883  H1929   1.111   .     S
C1883  H1930   1.107   .     S
C1883  H1931   1.110   .     S
C1884  H1939   1.102   .     S
C1884  H1938   1.106   .     S
C1884  C1886   1.532   .     S
C1885  O2020   1.293   .     A
C1885  O2008   1.291   .     A
C1886  H1934   1.109   .     S
C1886  H1937   1.110   .     S
C1886  H1936   1.110   .     S
C1887  H1943   1.106   .     S
C1887  C1888   1.531   .     S
C1887  H1944   1.112   .     S
C1888  H1940   1.109   .     S
C1888  H1942   1.106   .     S
C1888  H1941   1.110   .     S
C1889  H1949   1.107   .     S
C1889  C1890   1.528   .     S
C1889  H1950   1.101   .     S
C1890  H1948   1.111   .     S
C1890  H1947   1.110   .     S
C1890  H1945   1.107   .     S
C1891  C1892   1.530   .     S
C1891  H1954   1.106   .     S
C1891  H1955   1.110   .     S
C1892  H1952   1.109   .     S
C1892  H1951   1.107   .     S
C1892  H1953   1.109   .     S
C1893  H1960   1.108   .     S
C1893  C1894   1.529   .     S
C1893  H1961   1.109   .     S
C1894  H1956   1.109   .     S
C1894  H1959   1.110   .     S
C1894  H1958   1.109   .     S
C1895  H1965   1.104   .     S
C1895  H1966   1.112   .     S
C1895  C1897   1.528   .     S
C1896  O2007   1.288   .     A
C1896  O2006   1.295   .     A
C1897  H1962   1.108   .     S
C1897  H1963   1.109   .     S
C1897  H1964   1.104   .     S
C1898  H1972   1.100   .     S
C1898  H1971   1.106   .     S
C1898  C1899   1.529   .     S
C1899  H1970   1.111   .     S
C1899  H1967   1.107   .     S
C1899  H1969   1.109   .     S
C1900  H1976   1.097   .     S
C1900  H1977   1.108   .     S
C1900  C1901   1.530   .     S
C1901  H1973   1.111   .     S
C1901  H1974   1.109   .     S
C1901  H1975   1.110   .     S
C1902  H1983   1.108   .     S
C1902  H1982   1.105   .     S
C1902  C1903   1.529   .     S
C1903  H1980   1.110   .     S
C1903  H1981   1.109   .     S
C1903  H1978   1.111   .     S
C1904  H1987   1.104   .     S
C1904  C1905   1.529   .     S
C1904  H1988   1.103   .     S
C1905  H1985   1.111   .     S
C1906  C1908   1.532   .     S
C1906  H1994   1.109   .     S
C1906  H1993   1.096   .     S
C1907  O2009   1.288   .     A
C1907  O2012   1.264   .     A
C1908  H1989   1.110   .     S
C1908  H1992   1.108   .     S
C1908  H1991   1.110   .     S
C1909  H1998   1.107   .     S
C1909  H1999   1.104   .     S
C1909  C1910   1.529   .     S
C1910  H1996   1.108   .     S
C1910  H1995   1.111   .     S
C1910  H1997   1.110   .     S
C1911  O2010   1.291   .     A
C1911  O2011   1.291   .     A
C1912  H1913   1.081   .     S
C1912  N2002   1.364   .     A
H1920  C2063   1.109   .     S
H1984  C1537   1.108   1_565 S
H1986  C1537   1.111   1_565 S
N2001  C2026   1.362   1_455 A
N2001  Zn2021  1.993   .     S
N2002  C2027   1.364   1_455 S
N2002  Zn2022  1.993   .     S
N2003  Zn2023  1.993   .     S
N2004  Zn2024  1.993   .     S
O2005  Zn2021  1.959   .     S
O2006  Zn2024  1.959   .     S
O2007  Zn2023  1.967   .     S
O2008  Zn1656  1.967   1_565 S
O2009  Zn1656  1.976   1_565 S
O2010  Zn2023  1.976   .     S
O2011  Zn2024  1.991   .     S
O2012  Zn1655  1.991   1_565 S
O2013  Zn2206  1.959   .     S
O2014  Zn2205  1.967   .     S
O2015  Zn2022  1.967   .     S
O2016  Zn2206  1.976   .     S
O2017  Zn2021  1.976   .     S
O2018  Zn2022  1.991   .     S
O2019  Zn2205  1.991   .     S
O2020  Zn1655  1.959   1_565 S
Zn2021 O2203   1.991   1_455 S
Zn2021 O2198   1.967   1_455 S
Zn2022 O2200   1.976   1_455 S
Zn2022 O2197   1.959   1_455 S
C2025  O2189   1.289   .     A
C2025  O2199   1.291   .     A
C2025  C2054   1.483   .     S
C2026  H2108   1.079   .     S
C2026  N2001   1.362   1_655 A
C2026  C555    1.406   1_556 S
C2027  H2119   1.077   .     S
C2027  N2002   1.364   1_655 S
C2028  H2130   1.080   .     S
C2028  C624    1.408   1_556 S
C2028  N2185   1.365   .     S
C2029  H2141   1.081   .     S
C2029  N2188   1.364   .     S
C2030  H2152   1.080   .     S
C2030  C559    1.408   1_556 S
C2030  N1819   1.364   1_565 S
C2031  N1820   1.364   1_565 A
C2031  H2163   1.080   .     S
C2032  H2174   1.081   .     S
C2032  N2187   1.364   .     A
C2032  C557    1.408   1_556 S
C2033  C2060   1.527   .     S
C2033  C2044   1.406   .     A
C2033  C2052   1.398   .     A
C2034  C2051   1.399   .     A
C2034  C2045   1.375   .     A
C2034  C2062   1.530   .     S
C2035  C2042   1.405   .     A
C2035  C2051   1.419   .     A
C2035  C2064   1.533   .     S
C2036  C2053   1.471   .     S
C2036  O2198   1.287   .     A
C2036  O2197   1.291   .     A
C2037  C2052   1.395   .     A
C2037  C2066   1.525   .     S
C2037  C2043   1.396   .     A
C2038  C2068   1.538   .     S
C2038  C2054   1.445   .     A
C2038  C2049   1.410   .     A
C2039  C2071   1.528   .     S
C2039  C2053   1.431   .     A
C2039  C2050   1.395   .     A
C2040  C2073   1.533   .     S
C2040  C2053   1.438   .     A
C2040  C2046   1.403   .     A
C2041  C2075   1.527   .     S
C2041  C2054   1.443   .     A
C2041  C2048   1.404   .     A
C2042  C2077   1.527   .     S
C2042  C2056   1.415   .     A
C2043  C2055   1.431   .     A
C2043  C2079   1.525   .     S
C2044  C2082   1.529   .     S
C2044  C2055   1.436   .     A
C2045  C2056   1.411   .     A
C2045  C2084   1.525   .     S
C2046  C2059   1.398   .     A
C2046  C2086   1.527   .     S
C2047  O2203   1.288   .     A
C2047  O2200   1.292   .     A
C2047  C2052   1.460   .     S
C2048  C2057   1.396   .     A
C2048  C2088   1.535   .     S
C2049  C2090   1.527   .     S
C2049  C2057   1.405   .     A
C2050  C2059   1.395   .     A
C2050  C2093   1.524   .     S
C2051  C2058   1.406   .     S
C2055  C2095   1.478   .     S
C2056  C2091   1.427   .     S
C2057  C2080   1.461   .     S
C2058  O2202   1.264   .     A
C2058  O2201   1.277   .     A
C2059  C2069   1.457   .     S
C2060  C2061   1.529   .     S
C2060  H2101   1.106   .     S
C2060  H2100   1.107   .     S
C2061  H2098   1.111   .     S
C2061  H2184   1.111   .     S
C2061  H2099   1.109   .     S
C2062  C2063   1.529   .     S
C2062  H2106   1.108   .     S
C2062  H2105   1.109   .     S
C2063  H2102   1.109   .     S
C2063  H2103   1.108   .     S
C2064  H2111   1.106   .     S
C2064  C2065   1.527   .     S
C2064  H2112   1.104   .     S
C2065  H2107   1.109   .     S
C2065  H2109   1.111   .     S
C2065  H2110   1.111   .     S
C2066  H2117   1.103   .     S
C2066  C2067   1.529   .     S
C2066  H2116   1.107   .     S
C2067  H2113   1.111   .     S
C2067  H2114   1.107   .     S
C2067  H2115   1.110   .     S
C2068  H2123   1.102   .     S
C2068  H2122   1.106   .     S
C2068  C2070   1.532   .     S
C2069  O2204   1.293   .     A
C2069  O2192   1.291   .     A
C2070  H2118   1.109   .     S
C2070  H2121   1.110   .     S
C2070  H2120   1.110   .     S
C2071  H2127   1.106   .     S
C2071  C2072   1.531   .     S
C2071  H2128   1.112   .     S
C2072  H2124   1.109   .     S
C2072  H2126   1.106   .     S
C2072  H2125   1.110   .     S
C2073  H2133   1.107   .     S
C2073  C2074   1.528   .     S
C2073  H2134   1.101   .     S
C2074  H2132   1.111   .     S
C2074  H2131   1.110   .     S
C2074  H2129   1.107   .     S
C2075  C2076   1.530   .     S
C2075  H2138   1.106   .     S
C2075  H2139   1.110   .     S
C2076  H2136   1.109   .     S
C2076  H2135   1.107   .     S
C2076  H2137   1.109   .     S
C2077  H2144   1.108   .     S
C2077  C2078   1.529   .     S
C2077  H2145   1.109   .     S
C2078  H2140   1.109   .     S
C2078  H2143   1.110   .     S
C2078  H2142   1.109   .     S
C2079  H2149   1.104   .     S
C2079  H2150   1.112   .     S
C2079  C2081   1.528   .     S
C2080  O2191   1.288   .     A
C2080  O2190   1.295   .     A
C2081  H2146   1.108   .     S
C2081  H2147   1.109   .     S
C2081  H2148   1.104   .     S
C2082  H2156   1.100   .     S
C2082  H2155   1.106   .     S
C2082  C2083   1.529   .     S
C2083  H2154   1.111   .     S
C2083  H2151   1.107   .     S
C2083  H2153   1.109   .     S
C2084  H2160   1.097   .     S
C2084  H2161   1.108   .     S
C2084  C2085   1.530   .     S
C2085  H2157   1.111   .     S
C2085  H2158   1.109   .     S
C2085  H2159   1.110   .     S
C2086  H2167   1.108   .     S
C2086  H2166   1.105   .     S
C2086  C2087   1.529   .     S
C2087  H2164   1.110   .     S
C2087  H2165   1.109   .     S
C2087  H2162   1.111   .     S
C2088  H2171   1.104   .     S
C2088  C2089   1.529   .     S
C2088  H2172   1.103   .     S
C2089  H2169   1.111   .     S
C2090  C2092   1.532   .     S
C2090  H2178   1.109   .     S
C2090  H2177   1.096   .     S
C2091  O2193   1.288   .     A
C2091  O2196   1.264   .     A
C2092  H2173   1.110   .     S
C2092  H2176   1.108   .     S
C2092  H2175   1.110   .     S
C2093  H2182   1.107   .     S
C2093  H2183   1.104   .     S
C2093  C2094   1.529   .     S
C2094  H2180   1.108   .     S
C2094  H2179   1.111   .     S
C2094  H2181   1.110   .     S
C2095  O2194   1.291   .     A
C2095  O2195   1.291   .     A
C2096  H2097   1.081   .     S
C2096  N2186   1.364   .     A
H2104  C1879   1.109   1_655 S
H2168  C1721   1.108   1_565 S
H2170  C1721   1.111   1_565 S
N2185  Zn2205  1.993   .     S
N2186  Zn2206  1.993   .     S
N2187  Zn2207  1.993   .     S
N2188  Zn2208  1.993   .     S
O2189  Zn2205  1.959   .     S
O2190  Zn2208  1.959   .     S
O2191  Zn2207  1.967   .     S
O2192  Zn1840  1.967   1_565 S
O2193  Zn1840  1.976   1_565 S
O2194  Zn2207  1.976   .     S
O2195  Zn2208  1.991   .     S
O2196  Zn1839  1.991   1_565 S
O2197  Zn2022  1.959   1_655 S
O2198  Zn2021  1.967   1_655 S
O2199  Zn2206  1.967   .     S
O2200  Zn2022  1.976   1_655 S
O2201  Zn2205  1.976   .     S
O2202  Zn2206  1.991   .     S
O2203  Zn2021  1.991   1_655 S
O2204  Zn1839  1.959   1_565 S
