data_str_m1_o1_o17_pcu_sym.30
_audit_creation_date              2020-01-03
_audit_creation_method            'Materials Studio'
_symmetry_space_group_name_H-M    'P1'
_symmetry_Int_Tables_number       1
_symmetry_cell_setting            triclinic
loop_
_symmetry_equiv_pos_as_xyz
  x,y,z
_cell_length_a                    36.6352
_cell_length_b                    36.6352
_cell_length_c                    34.4495
_cell_angle_alpha                 90.0000
_cell_angle_beta                  90.0000
_cell_angle_gamma                 90.0000
loop_
_atom_site_label
_atom_site_type_symbol
_atom_site_fract_x
_atom_site_fract_y
_atom_site_fract_z
_atom_site_U_iso_or_equiv
_atom_site_adp_type
_atom_site_occupancy
C1     C     0.46713   0.25375   0.41870   0.00000  Uiso   1.00
C2     C     0.28291   0.49652   0.08132   0.00000  Uiso   1.00
C3     C     0.24649   0.46668   0.54077   0.00000  Uiso   1.00
C4     C     0.46675   0.25436   0.45926   0.00000  Uiso   1.00
C5     C     0.03332   0.24649   0.54077   0.00000  Uiso   1.00
C6     C     0.24564   0.46675   0.45926   0.00000  Uiso   1.00
C7     C     0.25351   0.03332   0.54077   0.00000  Uiso   1.00
C8     C     0.28325   0.49564   0.95926   0.00000  Uiso   1.00
C9     C     0.21668   0.00351   0.04077   0.00000  Uiso   1.00
C10    C     0.00436   0.28325   0.95926   0.00000  Uiso   1.00
C11    C     0.49649   0.21668   0.04077   0.00000  Uiso   1.00
C12    C     0.21675   0.00436   0.95926   0.00000  Uiso   1.00
C13    C     0.49625   0.21713   0.91870   0.00000  Uiso   1.00
C14    C     0.28332   0.49649   0.04077   0.00000  Uiso   1.00
C15    C     0.49564   0.21675   0.95926   0.00000  Uiso   1.00
C16    C     0.00351   0.28332   0.04077   0.00000  Uiso   1.00
C17    C     0.09813   0.34813   0.24999   0.00000  Uiso   1.00
C18    C     0.40187   0.15187   0.74999   0.00000  Uiso   1.00
C19    C     0.15187   0.09813   0.24999   0.00000  Uiso   1.00
C20    C     0.34813   0.40187   0.74999   0.00000  Uiso   1.00
C21    C     0.40187   0.15187   0.24999   0.00000  Uiso   1.00
C22    C     0.09813   0.34813   0.74999   0.00000  Uiso   1.00
C23    C     0.34813   0.40187   0.24999   0.00000  Uiso   1.00
C24    C     0.00348   0.28291   0.08132   0.00000  Uiso   1.00
C25    C     0.15187   0.09813   0.74999   0.00000  Uiso   1.00
C26    C     0.09813   0.15187   0.74999   0.00000  Uiso   1.00
C27    C     0.40187   0.34813   0.24999   0.00000  Uiso   1.00
C28    C     0.15187   0.40187   0.74999   0.00000  Uiso   1.00
C29    C     0.34813   0.09813   0.24999   0.00000  Uiso   1.00
C30    C     0.40187   0.34813   0.74999   0.00000  Uiso   1.00
C31    C     0.09813   0.15187   0.24999   0.00000  Uiso   1.00
C32    C     0.34813   0.09813   0.74999   0.00000  Uiso   1.00
C33    C     0.15187   0.40187   0.24999   0.00000  Uiso   1.00
C34    C    -0.00000   0.25000   0.47965   0.00000  Uiso   1.00
C35    C     0.28287   0.49625   0.91870   0.00000  Uiso   1.00
C36    C    -0.00000   0.25000   0.52037   0.00000  Uiso   1.00
C37    C     0.25000  -0.00000   0.47965   0.00000  Uiso   1.00
C38    C     0.25000  -0.00000   0.52037   0.00000  Uiso   1.00
C39    C     0.25000   0.00000   0.97964   0.00000  Uiso   1.00
C40    C     0.25000   0.00000   0.02037   0.00000  Uiso   1.00
C41    C    -0.00000   0.25000   0.97964   0.00000  Uiso   1.00
C42    C    -0.00000   0.25000   0.02037   0.00000  Uiso   1.00
C43    C     0.10339   0.19941   0.44893   0.00000  Uiso   1.00
C44    C     0.12781   0.17916   0.47787   0.00000  Uiso   1.00
C45    C     0.13693   0.14079   0.46361   0.00000  Uiso   1.00
C46    C     0.21709   0.00348   0.08132   0.00000  Uiso   1.00
C47    C     0.38404   0.22663   0.54355   0.00000  Uiso   1.00
C48    C     0.34932   0.23067   0.56775   0.00000  Uiso   1.00
C49    C     0.33046   0.19397   0.57382   0.00000  Uiso   1.00
C50    C     0.30059   0.10340   0.44893   0.00000  Uiso   1.00
C51    C     0.32084   0.12781   0.47787   0.00000  Uiso   1.00
C52    C     0.35920   0.13693   0.46361   0.00000  Uiso   1.00
C53    C     0.27338   0.38404   0.54355   0.00000  Uiso   1.00
C54    C     0.26934   0.34933   0.56775   0.00000  Uiso   1.00
C55    C     0.30604   0.33046   0.57382   0.00000  Uiso   1.00
C56    C     0.39661   0.30059   0.44893   0.00000  Uiso   1.00
C57    C     0.00375   0.28287   0.91870   0.00000  Uiso   1.00
C58    C     0.37219   0.32084   0.47786   0.00000  Uiso   1.00
C59    C     0.36307   0.35921   0.46361   0.00000  Uiso   1.00
C60    C     0.11596   0.27337   0.54355   0.00000  Uiso   1.00
C61    C     0.15067   0.26934   0.56775   0.00000  Uiso   1.00
C62    C     0.16954   0.30603   0.57382   0.00000  Uiso   1.00
C63    C     0.19941   0.39660   0.44893   0.00000  Uiso   1.00
C64    C     0.17916   0.37219   0.47787   0.00000  Uiso   1.00
C65    C     0.14080   0.36307   0.46361   0.00000  Uiso   1.00
C66    C     0.22662   0.11596   0.54355   0.00000  Uiso   1.00
C67    C     0.23066   0.15067   0.56775   0.00000  Uiso   1.00
C68    C     0.49652   0.21709   0.08132   0.00000  Uiso   1.00
C69    C     0.19396   0.16954   0.57382   0.00000  Uiso   1.00
C70    C     0.35340   0.44941   0.94893   0.00000  Uiso   1.00
C71    C     0.37781   0.42916   0.97787   0.00000  Uiso   1.00
C72    C     0.38693   0.39080   0.96361   0.00000  Uiso   1.00
C73    C     0.13404   0.47663   0.04355   0.00000  Uiso   1.00
C74    C     0.09933   0.48066   0.06775   0.00000  Uiso   1.00
C75    C     0.08046   0.44396   0.07382   0.00000  Uiso   1.00
C76    C     0.05059   0.35340   0.94893   0.00000  Uiso   1.00
C77    C     0.07084   0.37781   0.97787   0.00000  Uiso   1.00
C78    C     0.10920   0.38693   0.96361   0.00000  Uiso   1.00
C79    C    -0.00000   0.25000   0.39844   0.00000  Uiso   1.00
C80    C     0.02337   0.13404   0.04355   0.00000  Uiso   1.00
C81    C     0.01934   0.09933   0.06775   0.00000  Uiso   1.00
C82    C     0.05604   0.08046   0.07382   0.00000  Uiso   1.00
C83    C     0.14660   0.05059   0.94893   0.00000  Uiso   1.00
C84    C     0.12219   0.07084   0.97787   0.00000  Uiso   1.00
C85    C     0.11307   0.10920   0.96361   0.00000  Uiso   1.00
C86    C     0.36596   0.02338   0.04355   0.00000  Uiso   1.00
C87    C     0.40067   0.01934   0.06776   0.00000  Uiso   1.00
C88    C     0.41954   0.05604   0.07382   0.00000  Uiso   1.00
C89    C     0.44941   0.14660   0.94893   0.00000  Uiso   1.00
C90    C    -0.00000   0.25000   0.60158   0.00000  Uiso   1.00
C91    C     0.42916   0.12219   0.97787   0.00000  Uiso   1.00
C92    C     0.39079   0.11307   0.96361   0.00000  Uiso   1.00
C93    C     0.47663   0.36596   0.04355   0.00000  Uiso   1.00
C94    C     0.48066   0.40067   0.06776   0.00000  Uiso   1.00
C95    C     0.44396   0.41954   0.07382   0.00000  Uiso   1.00
C96    C     0.25000  -0.00000   0.39844   0.00000  Uiso   1.00
C97    C     0.03291   0.24652   0.58132   0.00000  Uiso   1.00
C98    C     0.25000  -0.00000   0.60158   0.00000  Uiso   1.00
C99    C     0.25000  -0.00000   0.89844   0.00000  Uiso   1.00
C100   C     0.25000   0.00000   0.10158   0.00000  Uiso   1.00
C101   C    -0.00000   0.25000   0.89844   0.00000  Uiso   1.00
C102   C    -0.00000   0.25000   0.10158   0.00000  Uiso   1.00
C103   C     0.06628   0.24081   0.47975   0.00000  Uiso   1.00
C104   C     0.43352   0.25701   0.52039   0.00000  Uiso   1.00
C105   C     0.25919   0.06628   0.47975   0.00000  Uiso   1.00
C106   C     0.24300   0.43352   0.52039   0.00000  Uiso   1.00
C107   C     0.43372   0.25919   0.47975   0.00000  Uiso   1.00
C108   C     0.24625   0.46713   0.41870   0.00000  Uiso   1.00
C109   C     0.06648   0.24299   0.52039   0.00000  Uiso   1.00
C110   C     0.24081   0.43372   0.47975   0.00000  Uiso   1.00
C111   C     0.25700   0.06648   0.52039   0.00000  Uiso   1.00
C112   C     0.31628   0.49081   0.97975   0.00000  Uiso   1.00
C113   C     0.18352   0.00701   0.02039   0.00000  Uiso   1.00
C114   C     0.00919   0.31628   0.97975   0.00000  Uiso   1.00
C115   C     0.49299   0.18352   0.02039   0.00000  Uiso   1.00
C116   C     0.18372   0.00919   0.97975   0.00000  Uiso   1.00
C117   C     0.31648   0.49299   0.02039   0.00000  Uiso   1.00
C118   C     0.49081   0.18372   0.97975   0.00000  Uiso   1.00
C119   C     0.25347   0.03291   0.58132   0.00000  Uiso   1.00
C120   C     0.00701   0.31648   0.02039   0.00000  Uiso   1.00
C121   C     0.25000   0.00000   0.35598   0.00000  Uiso   1.00
C122   C     0.25000  -0.00000   0.64403   0.00000  Uiso   1.00
C123   C     0.00000   0.25000   0.35598   0.00000  Uiso   1.00
C124   C    -0.00000   0.25000   0.64403   0.00000  Uiso   1.00
C125   C     0.00000   0.25000   0.85598   0.00000  Uiso   1.00
C126   C    -0.00000   0.25000   0.14403   0.00000  Uiso   1.00
C127   C     0.25000  -0.00000   0.85598   0.00000  Uiso   1.00
C128   C     0.25000   0.00000   0.14403   0.00000  Uiso   1.00
C129   C     0.17994   0.07006   0.25000   0.00000  Uiso   1.00
C130   C     0.03287   0.24625   0.41870   0.00000  Uiso   1.00
C131   C     0.32006   0.42994   0.75000   0.00000  Uiso   1.00
C132   C     0.42994   0.17994   0.25000   0.00000  Uiso   1.00
C133   C     0.07006   0.32006   0.75000   0.00000  Uiso   1.00
C134   C     0.32006   0.42994   0.25000   0.00000  Uiso   1.00
C135   C     0.17994   0.07006   0.75000   0.00000  Uiso   1.00
C136   C     0.07006   0.32006   0.25000   0.00000  Uiso   1.00
C137   C     0.42994   0.17994   0.75000   0.00000  Uiso   1.00
C138   C     0.17994   0.42994   0.75000   0.00000  Uiso   1.00
C139   C     0.32006   0.07006   0.25000   0.00000  Uiso   1.00
C140   C     0.42994   0.32006   0.75000   0.00000  Uiso   1.00
C141   C     0.46709   0.25348   0.58132   0.00000  Uiso   1.00
C142   C     0.07006   0.17994   0.25000   0.00000  Uiso   1.00
C143   C     0.32006   0.07006   0.75000   0.00000  Uiso   1.00
C144   C     0.17994   0.42994   0.25000   0.00000  Uiso   1.00
C145   C     0.07006   0.17994   0.75000   0.00000  Uiso   1.00
C146   C     0.42994   0.32006   0.25000   0.00000  Uiso   1.00
C147   C     0.12236   0.40439   0.22423   0.00000  Uiso   1.00
C148   C     0.37764   0.09562   0.77573   0.00000  Uiso   1.00
C149   C     0.09561   0.12236   0.22423   0.00000  Uiso   1.00
C150   C     0.40438   0.37764   0.77574   0.00000  Uiso   1.00
C151   C     0.37764   0.09561   0.22423   0.00000  Uiso   1.00
C152   C     0.25375   0.03287   0.41870   0.00000  Uiso   1.00
C153   C     0.12236   0.40438   0.77573   0.00000  Uiso   1.00
C154   C     0.40439   0.37764   0.22423   0.00000  Uiso   1.00
C155   C     0.09562   0.12236   0.77573   0.00000  Uiso   1.00
C156   C     0.12236   0.09562   0.77574   0.00000  Uiso   1.00
C157   C     0.37764   0.40439   0.22423   0.00000  Uiso   1.00
C158   C     0.09562   0.37764   0.77574   0.00000  Uiso   1.00
C159   C     0.40438   0.12236   0.22423   0.00000  Uiso   1.00
C160   C     0.37764   0.40438   0.77574   0.00000  Uiso   1.00
C161   C     0.12236   0.09562   0.22423   0.00000  Uiso   1.00
C162   C     0.40438   0.12236   0.77574   0.00000  Uiso   1.00
C163   C     0.24652   0.46709   0.58132   0.00000  Uiso   1.00
C164   C     0.09561   0.37764   0.22423   0.00000  Uiso   1.00
C165   C     0.37236   0.15439   0.72423   0.00000  Uiso   1.00
C166   C     0.12764   0.34562   0.27574   0.00000  Uiso   1.00
C167   C     0.34561   0.37236   0.72423   0.00000  Uiso   1.00
C168   C     0.15438   0.12764   0.27574   0.00000  Uiso   1.00
C169   C     0.12764   0.34561   0.72423   0.00000  Uiso   1.00
C170   C     0.37236   0.15438   0.27574   0.00000  Uiso   1.00
C171   C     0.15439   0.12764   0.72423   0.00000  Uiso   1.00
C172   C     0.34562   0.37236   0.27574   0.00000  Uiso   1.00
C173   C     0.37236   0.34562   0.27574   0.00000  Uiso   1.00
C174   C     0.21713   0.00375   0.91870   0.00000  Uiso   1.00
C175   C     0.12764   0.15438   0.72423   0.00000  Uiso   1.00
C176   C     0.34562   0.12764   0.27574   0.00000  Uiso   1.00
C177   C     0.15438   0.37236   0.72423   0.00000  Uiso   1.00
C178   C     0.12764   0.15438   0.27574   0.00000  Uiso   1.00
C179   C     0.37236   0.34562   0.72423   0.00000  Uiso   1.00
C180   C     0.15438   0.37236   0.27574   0.00000  Uiso   1.00
C181   C     0.34561   0.12764   0.72423   0.00000  Uiso   1.00
C182   C     0.03325   0.24564   0.45926   0.00000  Uiso   1.00
C183   C     0.46668   0.25351   0.54077   0.00000  Uiso   1.00
C184   C     0.25436   0.03325   0.45926   0.00000  Uiso   1.00
H185   H     0.11991   0.42694   0.20407   0.00000  Uiso   1.00
H186   H     0.38009   0.42694   0.20407   0.00000  Uiso   1.00
H187   H     0.24250   0.14368   0.59652   0.00000  Uiso   1.00
H188   H     0.24955   0.16977   0.55276   0.00000  Uiso   1.00
H189   H     0.18201   0.17755   0.54547   0.00000  Uiso   1.00
H190   H     0.19789   0.19449   0.59164   0.00000  Uiso   1.00
H191   H     0.17472   0.15110   0.58920   0.00000  Uiso   1.00
H192   H     0.36699   0.44933   0.92010   0.00000  Uiso   1.00
H193   H     0.32710   0.43438   0.94515   0.00000  Uiso   1.00
H194   H     0.40357   0.44470   0.98206   0.00000  Uiso   1.00
H195   H     0.36364   0.42696   0.00626   0.00000  Uiso   1.00
H196   H     0.36152   0.37485   0.95893   0.00000  Uiso   1.00
H197   H     0.07306   0.38009   0.79590   0.00000  Uiso   1.00
H198   H     0.40377   0.37654   0.98569   0.00000  Uiso   1.00
H199   H     0.40257   0.39213   0.93602   0.00000  Uiso   1.00
H200   H     0.15248   0.45670   0.05823   0.00000  Uiso   1.00
H201   H     0.12645   0.46601   0.01435   0.00000  Uiso   1.00
H202   H     0.10632   0.49251   0.09652   0.00000  Uiso   1.00
H203   H     0.08023   0.49955   0.05276   0.00000  Uiso   1.00
H204   H     0.07245   0.43202   0.04548   0.00000  Uiso   1.00
H205   H     0.05551   0.44789   0.09164   0.00000  Uiso   1.00
H206   H     0.09890   0.42473   0.08921   0.00000  Uiso   1.00
H207   H     0.05067   0.36699   0.92010   0.00000  Uiso   1.00
H208   H     0.42694   0.11991   0.20407   0.00000  Uiso   1.00
H209   H     0.06562   0.32710   0.94515   0.00000  Uiso   1.00
H210   H     0.05530   0.40357   0.98206   0.00000  Uiso   1.00
H211   H     0.07304   0.36363   0.00626   0.00000  Uiso   1.00
H212   H     0.12515   0.36152   0.95893   0.00000  Uiso   1.00
H213   H     0.12346   0.40377   0.98569   0.00000  Uiso   1.00
H214   H     0.10787   0.40257   0.93602   0.00000  Uiso   1.00
H215   H     0.04329   0.15248   0.05823   0.00000  Uiso   1.00
H216   H     0.03399   0.12645   0.01435   0.00000  Uiso   1.00
H217   H     0.00749   0.10632   0.09652   0.00000  Uiso   1.00
H218   H     0.00045   0.08023   0.05276   0.00000  Uiso   1.00
H219   H     0.38009   0.42694   0.79590   0.00000  Uiso   1.00
H220   H     0.06798   0.07245   0.04548   0.00000  Uiso   1.00
H221   H     0.05210   0.05551   0.09163   0.00000  Uiso   1.00
H222   H     0.07527   0.09890   0.08921   0.00000  Uiso   1.00
H223   H     0.13301   0.05067   0.92010   0.00000  Uiso   1.00
H224   H     0.17290   0.06562   0.94515   0.00000  Uiso   1.00
H225   H     0.09643   0.05530   0.98206   0.00000  Uiso   1.00
H226   H     0.13637   0.07304   0.00626   0.00000  Uiso   1.00
H227   H     0.13848   0.12515   0.95893   0.00000  Uiso   1.00
H228   H     0.09623   0.12346   0.98569   0.00000  Uiso   1.00
H229   H     0.09743   0.10787   0.93602   0.00000  Uiso   1.00
H230   H     0.11991   0.07306   0.20407   0.00000  Uiso   1.00
H231   H     0.34752   0.04330   0.05822   0.00000  Uiso   1.00
H232   H     0.37355   0.03399   0.01435   0.00000  Uiso   1.00
H233   H     0.39367   0.00750   0.09652   0.00000  Uiso   1.00
H234   H     0.41977   0.00045   0.05276   0.00000  Uiso   1.00
H235   H     0.42755   0.06798   0.04547   0.00000  Uiso   1.00
H236   H     0.44449   0.05211   0.09164   0.00000  Uiso   1.00
H237   H     0.40110   0.07528   0.08920   0.00000  Uiso   1.00
H238   H     0.44933   0.13301   0.92010   0.00000  Uiso   1.00
H239   H     0.43438   0.17291   0.94515   0.00000  Uiso   1.00
H240   H     0.44470   0.09643   0.98205   0.00000  Uiso   1.00
H241   H     0.42694   0.11991   0.79590   0.00000  Uiso   1.00
H242   H     0.42696   0.13636   0.00626   0.00000  Uiso   1.00
H243   H     0.37485   0.13848   0.95893   0.00000  Uiso   1.00
H244   H     0.37654   0.09623   0.98568   0.00000  Uiso   1.00
H245   H     0.39213   0.09744   0.93602   0.00000  Uiso   1.00
H246   H     0.45670   0.34752   0.05823   0.00000  Uiso   1.00
H247   H     0.46601   0.37355   0.01435   0.00000  Uiso   1.00
H248   H     0.49250   0.39368   0.09652   0.00000  Uiso   1.00
H249   H     0.49955   0.41977   0.05276   0.00000  Uiso   1.00
H250   H     0.43202   0.42755   0.04547   0.00000  Uiso   1.00
H251   H     0.44789   0.44449   0.09164   0.00000  Uiso   1.00
H252   H     0.07306   0.38009   0.20407   0.00000  Uiso   1.00
H253   H     0.42472   0.40110   0.08920   0.00000  Uiso   1.00
H254   H     0.36991   0.17694   0.70406   0.00000  Uiso   1.00
H255   H     0.13010   0.32306   0.29589   0.00000  Uiso   1.00
H256   H     0.32306   0.36991   0.70407   0.00000  Uiso   1.00
H257   H     0.38010   0.07306   0.79589   0.00000  Uiso   1.00
H258   H     0.17694   0.13010   0.29589   0.00000  Uiso   1.00
H259   H     0.13009   0.32306   0.70406   0.00000  Uiso   1.00
H260   H     0.36990   0.17694   0.29589   0.00000  Uiso   1.00
H261   H     0.17694   0.13009   0.70406   0.00000  Uiso   1.00
H262   H     0.32306   0.36990   0.29589   0.00000  Uiso   1.00
H263   H     0.36991   0.32306   0.29590   0.00000  Uiso   1.00
H264   H     0.13009   0.17694   0.70407   0.00000  Uiso   1.00
H265   H     0.32306   0.13009   0.29590   0.00000  Uiso   1.00
H266   H     0.17694   0.36991   0.70407   0.00000  Uiso   1.00
H267   H     0.13009   0.17694   0.29590   0.00000  Uiso   1.00
H268   H     0.07306   0.11991   0.20407   0.00000  Uiso   1.00
H269   H     0.36991   0.32306   0.70407   0.00000  Uiso   1.00
H270   H     0.17694   0.36991   0.29590   0.00000  Uiso   1.00
H271   H     0.32306   0.13009   0.70407   0.00000  Uiso   1.00
H272   H     0.44182   0.25643   0.40270   0.00000  Uiso   1.00
H273   H     0.05822   0.24367   0.59729   0.00000  Uiso   1.00
H274   H     0.24357   0.44182   0.40270   0.00000  Uiso   1.00
H275   H     0.25633   0.05822   0.59729   0.00000  Uiso   1.00
H276   H     0.05818   0.24357   0.40270   0.00000  Uiso   1.00
H277   H     0.44178   0.25633   0.59729   0.00000  Uiso   1.00
H278   H     0.25643   0.05818   0.40270   0.00000  Uiso   1.00
H279   H     0.42694   0.38010   0.79589   0.00000  Uiso   1.00
H280   H     0.24367   0.44178   0.59729   0.00000  Uiso   1.00
H281   H     0.19182   0.00643   0.90270   0.00000  Uiso   1.00
H282   H     0.30822   0.49367   0.09729   0.00000  Uiso   1.00
H283   H     0.49357   0.19182   0.90270   0.00000  Uiso   1.00
H284   H     0.00633   0.30822   0.09729   0.00000  Uiso   1.00
H285   H     0.30818   0.49357   0.90270   0.00000  Uiso   1.00
H286   H     0.19178   0.00633   0.09729   0.00000  Uiso   1.00
H287   H     0.00643   0.30818   0.90270   0.00000  Uiso   1.00
H288   H     0.49367   0.19178   0.09729   0.00000  Uiso   1.00
H289   H     0.11699   0.19933   0.42010   0.00000  Uiso   1.00
H290   H     0.38009   0.07306   0.20407   0.00000  Uiso   1.00
H291   H     0.07709   0.18437   0.44515   0.00000  Uiso   1.00
H292   H     0.15357   0.19470   0.48205   0.00000  Uiso   1.00
H293   H     0.11363   0.17696   0.50625   0.00000  Uiso   1.00
H294   H     0.11151   0.12485   0.45893   0.00000  Uiso   1.00
H295   H     0.15377   0.12653   0.48568   0.00000  Uiso   1.00
H296   H     0.15256   0.14212   0.43602   0.00000  Uiso   1.00
H297   H     0.40247   0.20671   0.55824   0.00000  Uiso   1.00
H298   H     0.37645   0.21601   0.51435   0.00000  Uiso   1.00
H299   H     0.35631   0.24252   0.59651   0.00000  Uiso   1.00
H300   H     0.33022   0.24955   0.55275   0.00000  Uiso   1.00
H301   H     0.11990   0.42694   0.79589   0.00000  Uiso   1.00
H302   H     0.32245   0.18202   0.54547   0.00000  Uiso   1.00
H303   H     0.30550   0.19791   0.59163   0.00000  Uiso   1.00
H304   H     0.34889   0.17474   0.58921   0.00000  Uiso   1.00
H305   H     0.30066   0.11699   0.42010   0.00000  Uiso   1.00
H306   H     0.31562   0.07710   0.44515   0.00000  Uiso   1.00
H307   H     0.30530   0.15357   0.48206   0.00000  Uiso   1.00
H308   H     0.32304   0.11364   0.50626   0.00000  Uiso   1.00
H309   H     0.37515   0.11152   0.45893   0.00000  Uiso   1.00
H310   H     0.37346   0.15377   0.48569   0.00000  Uiso   1.00
H311   H     0.35787   0.15257   0.43602   0.00000  Uiso   1.00
H312   H     0.42694   0.38009   0.20407   0.00000  Uiso   1.00
H313   H     0.29330   0.40248   0.55823   0.00000  Uiso   1.00
H314   H     0.28399   0.37645   0.51435   0.00000  Uiso   1.00
H315   H     0.25750   0.35632   0.59652   0.00000  Uiso   1.00
H316   H     0.25045   0.33023   0.55276   0.00000  Uiso   1.00
H317   H     0.31798   0.32245   0.54547   0.00000  Uiso   1.00
H318   H     0.30211   0.30551   0.59163   0.00000  Uiso   1.00
H319   H     0.32528   0.34890   0.58920   0.00000  Uiso   1.00
H320   H     0.38302   0.30067   0.42010   0.00000  Uiso   1.00
H321   H     0.42291   0.31563   0.44515   0.00000  Uiso   1.00
H322   H     0.34643   0.30530   0.48205   0.00000  Uiso   1.00
H323   H     0.07306   0.11990   0.79589   0.00000  Uiso   1.00
H324   H     0.38636   0.32304   0.50625   0.00000  Uiso   1.00
H325   H     0.38848   0.37515   0.45893   0.00000  Uiso   1.00
H326   H     0.34623   0.37347   0.48568   0.00000  Uiso   1.00
H327   H     0.34744   0.35788   0.43602   0.00000  Uiso   1.00
H328   H     0.09753   0.29329   0.55823   0.00000  Uiso   1.00
H329   H     0.12355   0.28398   0.51435   0.00000  Uiso   1.00
H330   H     0.14368   0.25749   0.59652   0.00000  Uiso   1.00
H331   H     0.16977   0.25045   0.55276   0.00000  Uiso   1.00
H332   H     0.17755   0.31798   0.54547   0.00000  Uiso   1.00
H333   H     0.19449   0.30210   0.59163   0.00000  Uiso   1.00
H334   H     0.11991   0.07306   0.79590   0.00000  Uiso   1.00
H335   H     0.15110   0.32527   0.58920   0.00000  Uiso   1.00
H336   H     0.19933   0.38301   0.42010   0.00000  Uiso   1.00
H337   H     0.18438   0.42290   0.44515   0.00000  Uiso   1.00
H338   H     0.19470   0.34643   0.48206   0.00000  Uiso   1.00
H339   H     0.17696   0.38636   0.50626   0.00000  Uiso   1.00
H340   H     0.12485   0.38848   0.45893   0.00000  Uiso   1.00
H341   H     0.12654   0.34622   0.48569   0.00000  Uiso   1.00
H342   H     0.14213   0.34743   0.43602   0.00000  Uiso   1.00
H343   H     0.20670   0.09752   0.55823   0.00000  Uiso   1.00
H344   H     0.21601   0.12355   0.51435   0.00000  Uiso   1.00
O345   O     0.25000   0.00000   0.25000   0.00000  Uiso   1.00
O346   O     0.25000   0.46963   0.66245   0.00000  Uiso   1.00
O347   O     0.46963   0.25000   0.33755   0.00000  Uiso   1.00
O348   O     0.03036   0.25000   0.66245   0.00000  Uiso   1.00
O349   O    -0.00000   0.21964   0.83755   0.00000  Uiso   1.00
O350   O    -0.00000   0.28037   0.16245   0.00000  Uiso   1.00
O351   O     0.28036   0.00000   0.83755   0.00000  Uiso   1.00
O352   O     0.21963   0.00000   0.16245   0.00000  Uiso   1.00
O353   O    -0.00000   0.28037   0.83755   0.00000  Uiso   1.00
O354   O    -0.00000   0.21964   0.16245   0.00000  Uiso   1.00
O355   O     0.21963   0.00000   0.83755   0.00000  Uiso   1.00
O356   O     0.25000   0.00000   0.75000   0.00000  Uiso   1.00
O357   O     0.28036   0.00000   0.16245   0.00000  Uiso   1.00
O358   O     0.20724   0.07308   0.27302   0.00000  Uiso   1.00
O359   O     0.29275   0.42693   0.72698   0.00000  Uiso   1.00
O360   O     0.42692   0.20725   0.27302   0.00000  Uiso   1.00
O361   O     0.07307   0.29275   0.72698   0.00000  Uiso   1.00
O362   O     0.29275   0.42693   0.27302   0.00000  Uiso   1.00
O363   O     0.20724   0.07308   0.72698   0.00000  Uiso   1.00
O364   O     0.07307   0.29275   0.27302   0.00000  Uiso   1.00
O365   O     0.42692   0.20725   0.72698   0.00000  Uiso   1.00
O366   O     0.20724   0.42692   0.72698   0.00000  Uiso   1.00
O367   O     0.00000   0.25000   0.25000   0.00000  Uiso   1.00
O368   O     0.29275   0.07308   0.27302   0.00000  Uiso   1.00
O369   O     0.42692   0.29276   0.72698   0.00000  Uiso   1.00
O370   O     0.07307   0.20724   0.27302   0.00000  Uiso   1.00
O371   O     0.29275   0.07308   0.72698   0.00000  Uiso   1.00
O372   O     0.20724   0.42692   0.27302   0.00000  Uiso   1.00
O373   O     0.07307   0.20724   0.72698   0.00000  Uiso   1.00
O374   O     0.42692   0.29276   0.27302   0.00000  Uiso   1.00
O375   O     0.45724   0.32308   0.77302   0.00000  Uiso   1.00
O376   O     0.04275   0.17692   0.22698   0.00000  Uiso   1.00
O377   O     0.17692   0.45724   0.77302   0.00000  Uiso   1.00
O378   O     0.00000   0.25000   0.75000   0.00000  Uiso   1.00
O379   O     0.32307   0.04276   0.22698   0.00000  Uiso   1.00
O380   O     0.04275   0.17692   0.77302   0.00000  Uiso   1.00
O381   O     0.45724   0.32308   0.22698   0.00000  Uiso   1.00
O382   O     0.32307   0.04276   0.77302   0.00000  Uiso   1.00
O383   O     0.17692   0.45724   0.22698   0.00000  Uiso   1.00
O384   O     0.45724   0.17693   0.22698   0.00000  Uiso   1.00
O385   O     0.04275   0.32307   0.77302   0.00000  Uiso   1.00
O386   O     0.17692   0.04276   0.22698   0.00000  Uiso   1.00
O387   O     0.32307   0.45725   0.77302   0.00000  Uiso   1.00
O388   O     0.04275   0.32307   0.22698   0.00000  Uiso   1.00
O389   O     0.25000   0.46963   0.33755   0.00000  Uiso   1.00
O390   O     0.45724   0.17693   0.77302   0.00000  Uiso   1.00
O391   O     0.32307   0.45725   0.22698   0.00000  Uiso   1.00
O392   O     0.17692   0.04276   0.77302   0.00000  Uiso   1.00
O393   O     0.09909   0.23634   0.46030   0.00000  Uiso   1.00
O394   O     0.40096   0.26110   0.54028   0.00000  Uiso   1.00
O395   O     0.26365   0.09909   0.46030   0.00000  Uiso   1.00
O396   O     0.23890   0.40096   0.54028   0.00000  Uiso   1.00
O397   O     0.40091   0.26366   0.46030   0.00000  Uiso   1.00
O398   O     0.09903   0.23890   0.54028   0.00000  Uiso   1.00
O399   O     0.23635   0.40091   0.46030   0.00000  Uiso   1.00
O400   O     0.25000   0.03037   0.66245   0.00000  Uiso   1.00
O401   O     0.26110   0.09904   0.54028   0.00000  Uiso   1.00
O402   O     0.34909   0.48635   0.96030   0.00000  Uiso   1.00
O403   O     0.15096   0.01110   0.04028   0.00000  Uiso   1.00
O404   O     0.01365   0.34909   0.96030   0.00000  Uiso   1.00
O405   O     0.48890   0.15096   0.04028   0.00000  Uiso   1.00
O406   O     0.15091   0.01365   0.96030   0.00000  Uiso   1.00
O407   O     0.34904   0.48890   0.04028   0.00000  Uiso   1.00
O408   O     0.48635   0.15091   0.96030   0.00000  Uiso   1.00
O409   O     0.01110   0.34903   0.04028   0.00000  Uiso   1.00
O410   O     0.03036   0.25000   0.33755   0.00000  Uiso   1.00
O411   O     0.46963   0.25000   0.66245   0.00000  Uiso   1.00
O412   O     0.25000   0.03037   0.33755   0.00000  Uiso   1.00
Zn413  Zn    0.20659   0.00000   0.21735   0.00000  Uiso   1.00
Zn414  Zn    0.04340   0.25000   0.28265   0.00000  Uiso   1.00
Zn415  Zn    0.25000   0.45659   0.71735   0.00000  Uiso   1.00
Zn416  Zn    0.25000   0.04341   0.28265   0.00000  Uiso   1.00
Zn417  Zn    0.04340   0.25000   0.71735   0.00000  Uiso   1.00
Zn418  Zn    0.45659   0.25000   0.28265   0.00000  Uiso   1.00
Zn419  Zn    0.25000   0.04341   0.71735   0.00000  Uiso   1.00
Zn420  Zn    0.25000   0.45659   0.28265   0.00000  Uiso   1.00
Zn421  Zn    0.29340   0.00000   0.78265   0.00000  Uiso   1.00
Zn422  Zn   -0.00000   0.20660   0.21735   0.00000  Uiso   1.00
Zn423  Zn   -0.00000   0.29341   0.78265   0.00000  Uiso   1.00
Zn424  Zn    0.29340   0.00000   0.21735   0.00000  Uiso   1.00
Zn425  Zn    0.20659   0.00000   0.78265   0.00000  Uiso   1.00
Zn426  Zn    0.00000   0.29340   0.21735   0.00000  Uiso   1.00
Zn427  Zn   -0.00000   0.20660   0.78265   0.00000  Uiso   1.00
Zn428  Zn    0.45659   0.25000   0.71735   0.00000  Uiso   1.00
C429   C     0.96713   0.25375   0.41870   0.00000  Uiso   1.00
C430   C     0.78291   0.49652   0.08132   0.00000  Uiso   1.00
C431   C     0.74649   0.46668   0.54077   0.00000  Uiso   1.00
C432   C     0.96675   0.25436   0.45926   0.00000  Uiso   1.00
C433   C     0.53332   0.24649   0.54077   0.00000  Uiso   1.00
C434   C     0.74564   0.46675   0.45926   0.00000  Uiso   1.00
C435   C     0.75351   0.03332   0.54077   0.00000  Uiso   1.00
C436   C     0.78325   0.49564   0.95926   0.00000  Uiso   1.00
C437   C     0.71668   0.00351   0.04077   0.00000  Uiso   1.00
C438   C     0.50436   0.28325   0.95926   0.00000  Uiso   1.00
C439   C     0.99649   0.21668   0.04077   0.00000  Uiso   1.00
C440   C     0.71675   0.00436   0.95926   0.00000  Uiso   1.00
C441   C     0.99625   0.21713   0.91870   0.00000  Uiso   1.00
C442   C     0.78332   0.49649   0.04077   0.00000  Uiso   1.00
C443   C     0.99564   0.21675   0.95926   0.00000  Uiso   1.00
C444   C     0.50351   0.28332   0.04077   0.00000  Uiso   1.00
C445   C     0.59813   0.34813   0.24999   0.00000  Uiso   1.00
C446   C     0.90187   0.15187   0.74999   0.00000  Uiso   1.00
C447   C     0.65187   0.09813   0.24999   0.00000  Uiso   1.00
C448   C     0.84813   0.40187   0.74999   0.00000  Uiso   1.00
C449   C     0.90187   0.15187   0.24999   0.00000  Uiso   1.00
C450   C     0.59813   0.34813   0.74999   0.00000  Uiso   1.00
C451   C     0.84813   0.40187   0.24999   0.00000  Uiso   1.00
C452   C     0.50348   0.28291   0.08132   0.00000  Uiso   1.00
C453   C     0.65187   0.09813   0.74999   0.00000  Uiso   1.00
C454   C     0.59813   0.15187   0.74999   0.00000  Uiso   1.00
C455   C     0.90187   0.34813   0.24999   0.00000  Uiso   1.00
C456   C     0.65187   0.40187   0.74999   0.00000  Uiso   1.00
C457   C     0.84813   0.09813   0.24999   0.00000  Uiso   1.00
C458   C     0.90187   0.34813   0.74999   0.00000  Uiso   1.00
C459   C     0.59813   0.15187   0.24999   0.00000  Uiso   1.00
C460   C     0.84813   0.09813   0.74999   0.00000  Uiso   1.00
C461   C     0.65187   0.40187   0.24999   0.00000  Uiso   1.00
C462   C     0.50000   0.25000   0.47965   0.00000  Uiso   1.00
C463   C     0.78287   0.49625   0.91870   0.00000  Uiso   1.00
C464   C     0.50000   0.25000   0.52037   0.00000  Uiso   1.00
C465   C     0.75000  -0.00000   0.47965   0.00000  Uiso   1.00
C466   C     0.75000  -0.00000   0.52037   0.00000  Uiso   1.00
C467   C     0.75000   0.00000   0.97964   0.00000  Uiso   1.00
C468   C     0.75000   0.00000   0.02037   0.00000  Uiso   1.00
C469   C     0.50000   0.25000   0.97964   0.00000  Uiso   1.00
C470   C     0.50000   0.25000   0.02037   0.00000  Uiso   1.00
C471   C     0.60339   0.19941   0.44893   0.00000  Uiso   1.00
C472   C     0.62781   0.17916   0.47787   0.00000  Uiso   1.00
C473   C     0.63693   0.14079   0.46361   0.00000  Uiso   1.00
C474   C     0.71709   0.00348   0.08132   0.00000  Uiso   1.00
C475   C     0.88404   0.22663   0.54355   0.00000  Uiso   1.00
C476   C     0.84932   0.23067   0.56775   0.00000  Uiso   1.00
C477   C     0.83046   0.19397   0.57382   0.00000  Uiso   1.00
C478   C     0.80059   0.10340   0.44893   0.00000  Uiso   1.00
C479   C     0.82084   0.12781   0.47787   0.00000  Uiso   1.00
C480   C     0.85920   0.13693   0.46361   0.00000  Uiso   1.00
C481   C     0.77338   0.38404   0.54355   0.00000  Uiso   1.00
C482   C     0.76934   0.34933   0.56775   0.00000  Uiso   1.00
C483   C     0.80604   0.33046   0.57382   0.00000  Uiso   1.00
C484   C     0.89661   0.30059   0.44893   0.00000  Uiso   1.00
C485   C     0.50375   0.28287   0.91870   0.00000  Uiso   1.00
C486   C     0.87219   0.32084   0.47786   0.00000  Uiso   1.00
C487   C     0.86307   0.35921   0.46361   0.00000  Uiso   1.00
C488   C     0.61596   0.27337   0.54355   0.00000  Uiso   1.00
C489   C     0.65067   0.26934   0.56775   0.00000  Uiso   1.00
C490   C     0.66954   0.30603   0.57382   0.00000  Uiso   1.00
C491   C     0.69941   0.39660   0.44893   0.00000  Uiso   1.00
C492   C     0.67916   0.37219   0.47787   0.00000  Uiso   1.00
C493   C     0.64080   0.36307   0.46361   0.00000  Uiso   1.00
C494   C     0.72662   0.11596   0.54355   0.00000  Uiso   1.00
C495   C     0.73066   0.15067   0.56775   0.00000  Uiso   1.00
C496   C     0.99652   0.21709   0.08132   0.00000  Uiso   1.00
C497   C     0.69396   0.16954   0.57382   0.00000  Uiso   1.00
C498   C     0.85340   0.44941   0.94893   0.00000  Uiso   1.00
C499   C     0.87781   0.42916   0.97787   0.00000  Uiso   1.00
C500   C     0.88693   0.39080   0.96361   0.00000  Uiso   1.00
C501   C     0.63404   0.47663   0.04355   0.00000  Uiso   1.00
C502   C     0.59933   0.48066   0.06775   0.00000  Uiso   1.00
C503   C     0.58046   0.44396   0.07382   0.00000  Uiso   1.00
C504   C     0.55059   0.35340   0.94893   0.00000  Uiso   1.00
C505   C     0.57084   0.37781   0.97787   0.00000  Uiso   1.00
C506   C     0.60920   0.38693   0.96361   0.00000  Uiso   1.00
C507   C     0.50000   0.25000   0.39844   0.00000  Uiso   1.00
C508   C     0.52337   0.13404   0.04355   0.00000  Uiso   1.00
C509   C     0.51934   0.09933   0.06775   0.00000  Uiso   1.00
C510   C     0.55604   0.08046   0.07382   0.00000  Uiso   1.00
C511   C     0.64660   0.05059   0.94893   0.00000  Uiso   1.00
C512   C     0.62219   0.07084   0.97787   0.00000  Uiso   1.00
C513   C     0.61307   0.10920   0.96361   0.00000  Uiso   1.00
C514   C     0.86596   0.02338   0.04355   0.00000  Uiso   1.00
C515   C     0.90067   0.01934   0.06776   0.00000  Uiso   1.00
C516   C     0.91954   0.05604   0.07382   0.00000  Uiso   1.00
C517   C     0.94941   0.14660   0.94893   0.00000  Uiso   1.00
C518   C     0.50000   0.25000   0.60158   0.00000  Uiso   1.00
C519   C     0.92916   0.12219   0.97787   0.00000  Uiso   1.00
C520   C     0.89079   0.11307   0.96361   0.00000  Uiso   1.00
C521   C     0.97663   0.36596   0.04355   0.00000  Uiso   1.00
C522   C     0.98066   0.40067   0.06776   0.00000  Uiso   1.00
C523   C     0.94396   0.41954   0.07382   0.00000  Uiso   1.00
C524   C     0.75000  -0.00000   0.39844   0.00000  Uiso   1.00
C525   C     0.53291   0.24652   0.58132   0.00000  Uiso   1.00
C526   C     0.75000  -0.00000   0.60158   0.00000  Uiso   1.00
C527   C     0.75000  -0.00000   0.89844   0.00000  Uiso   1.00
C528   C     0.75000   0.00000   0.10158   0.00000  Uiso   1.00
C529   C     0.50000   0.25000   0.89844   0.00000  Uiso   1.00
C530   C     0.50000   0.25000   0.10158   0.00000  Uiso   1.00
C531   C     0.56628   0.24081   0.47975   0.00000  Uiso   1.00
C532   C     0.93352   0.25701   0.52039   0.00000  Uiso   1.00
C533   C     0.75919   0.06628   0.47975   0.00000  Uiso   1.00
C534   C     0.74300   0.43352   0.52039   0.00000  Uiso   1.00
C535   C     0.93372   0.25919   0.47975   0.00000  Uiso   1.00
C536   C     0.74625   0.46713   0.41870   0.00000  Uiso   1.00
C537   C     0.56648   0.24299   0.52039   0.00000  Uiso   1.00
C538   C     0.74081   0.43372   0.47975   0.00000  Uiso   1.00
C539   C     0.75700   0.06648   0.52039   0.00000  Uiso   1.00
C540   C     0.81628   0.49081   0.97975   0.00000  Uiso   1.00
C541   C     0.68352   0.00701   0.02039   0.00000  Uiso   1.00
C542   C     0.50919   0.31628   0.97975   0.00000  Uiso   1.00
C543   C     0.99299   0.18352   0.02039   0.00000  Uiso   1.00
C544   C     0.68372   0.00919   0.97975   0.00000  Uiso   1.00
C545   C     0.81648   0.49299   0.02039   0.00000  Uiso   1.00
C546   C     0.99081   0.18372   0.97975   0.00000  Uiso   1.00
C547   C     0.75347   0.03291   0.58132   0.00000  Uiso   1.00
C548   C     0.50701   0.31648   0.02039   0.00000  Uiso   1.00
C549   C     0.75000   0.00000   0.35598   0.00000  Uiso   1.00
C550   C     0.75000  -0.00000   0.64403   0.00000  Uiso   1.00
C551   C     0.50000   0.25000   0.35598   0.00000  Uiso   1.00
C552   C     0.50000   0.25000   0.64403   0.00000  Uiso   1.00
C553   C     0.50000   0.25000   0.85598   0.00000  Uiso   1.00
C554   C     0.50000   0.25000   0.14403   0.00000  Uiso   1.00
C555   C     0.75000  -0.00000   0.85598   0.00000  Uiso   1.00
C556   C     0.75000   0.00000   0.14403   0.00000  Uiso   1.00
C557   C     0.67994   0.07006   0.25000   0.00000  Uiso   1.00
C558   C     0.53287   0.24625   0.41870   0.00000  Uiso   1.00
C559   C     0.82006   0.42994   0.75000   0.00000  Uiso   1.00
C560   C     0.92994   0.17994   0.25000   0.00000  Uiso   1.00
C561   C     0.57006   0.32006   0.75000   0.00000  Uiso   1.00
C562   C     0.82006   0.42994   0.25000   0.00000  Uiso   1.00
C563   C     0.67994   0.07006   0.75000   0.00000  Uiso   1.00
C564   C     0.57006   0.32006   0.25000   0.00000  Uiso   1.00
C565   C     0.92994   0.17994   0.75000   0.00000  Uiso   1.00
C566   C     0.67994   0.42994   0.75000   0.00000  Uiso   1.00
C567   C     0.82006   0.07006   0.25000   0.00000  Uiso   1.00
C568   C     0.92994   0.32006   0.75000   0.00000  Uiso   1.00
C569   C     0.96709   0.25348   0.58132   0.00000  Uiso   1.00
C570   C     0.57006   0.17994   0.25000   0.00000  Uiso   1.00
C571   C     0.82006   0.07006   0.75000   0.00000  Uiso   1.00
C572   C     0.67994   0.42994   0.25000   0.00000  Uiso   1.00
C573   C     0.57006   0.17994   0.75000   0.00000  Uiso   1.00
C574   C     0.92994   0.32006   0.25000   0.00000  Uiso   1.00
C575   C     0.62236   0.40439   0.22423   0.00000  Uiso   1.00
C576   C     0.87764   0.09562   0.77573   0.00000  Uiso   1.00
C577   C     0.59561   0.12236   0.22423   0.00000  Uiso   1.00
C578   C     0.90438   0.37764   0.77574   0.00000  Uiso   1.00
C579   C     0.87764   0.09561   0.22423   0.00000  Uiso   1.00
C580   C     0.75375   0.03287   0.41870   0.00000  Uiso   1.00
C581   C     0.62236   0.40438   0.77573   0.00000  Uiso   1.00
C582   C     0.90439   0.37764   0.22423   0.00000  Uiso   1.00
C583   C     0.59562   0.12236   0.77573   0.00000  Uiso   1.00
C584   C     0.62236   0.09562   0.77574   0.00000  Uiso   1.00
C585   C     0.87764   0.40439   0.22423   0.00000  Uiso   1.00
C586   C     0.59562   0.37764   0.77574   0.00000  Uiso   1.00
C587   C     0.90438   0.12236   0.22423   0.00000  Uiso   1.00
C588   C     0.87764   0.40438   0.77574   0.00000  Uiso   1.00
C589   C     0.62236   0.09562   0.22423   0.00000  Uiso   1.00
C590   C     0.90438   0.12236   0.77574   0.00000  Uiso   1.00
C591   C     0.74652   0.46709   0.58132   0.00000  Uiso   1.00
C592   C     0.59561   0.37764   0.22423   0.00000  Uiso   1.00
C593   C     0.87236   0.15439   0.72423   0.00000  Uiso   1.00
C594   C     0.62764   0.34562   0.27574   0.00000  Uiso   1.00
C595   C     0.84561   0.37236   0.72423   0.00000  Uiso   1.00
C596   C     0.65438   0.12764   0.27574   0.00000  Uiso   1.00
C597   C     0.62764   0.34561   0.72423   0.00000  Uiso   1.00
C598   C     0.87236   0.15438   0.27574   0.00000  Uiso   1.00
C599   C     0.65439   0.12764   0.72423   0.00000  Uiso   1.00
C600   C     0.84562   0.37236   0.27574   0.00000  Uiso   1.00
C601   C     0.87236   0.34562   0.27574   0.00000  Uiso   1.00
C602   C     0.71713   0.00375   0.91870   0.00000  Uiso   1.00
C603   C     0.62764   0.15438   0.72423   0.00000  Uiso   1.00
C604   C     0.84562   0.12764   0.27574   0.00000  Uiso   1.00
C605   C     0.65438   0.37236   0.72423   0.00000  Uiso   1.00
C606   C     0.62764   0.15438   0.27574   0.00000  Uiso   1.00
C607   C     0.87236   0.34562   0.72423   0.00000  Uiso   1.00
C608   C     0.65438   0.37236   0.27574   0.00000  Uiso   1.00
C609   C     0.84561   0.12764   0.72423   0.00000  Uiso   1.00
C610   C     0.53325   0.24564   0.45926   0.00000  Uiso   1.00
C611   C     0.96668   0.25351   0.54077   0.00000  Uiso   1.00
C612   C     0.75436   0.03325   0.45926   0.00000  Uiso   1.00
H613   H     0.61991   0.42694   0.20407   0.00000  Uiso   1.00
H614   H     0.88009   0.42694   0.20407   0.00000  Uiso   1.00
H615   H     0.74250   0.14368   0.59652   0.00000  Uiso   1.00
H616   H     0.74955   0.16977   0.55276   0.00000  Uiso   1.00
H617   H     0.68201   0.17755   0.54547   0.00000  Uiso   1.00
H618   H     0.69789   0.19449   0.59164   0.00000  Uiso   1.00
H619   H     0.67472   0.15110   0.58920   0.00000  Uiso   1.00
H620   H     0.86699   0.44933   0.92010   0.00000  Uiso   1.00
H621   H     0.82710   0.43438   0.94515   0.00000  Uiso   1.00
H622   H     0.90357   0.44470   0.98206   0.00000  Uiso   1.00
H623   H     0.86364   0.42696   0.00626   0.00000  Uiso   1.00
H624   H     0.86152   0.37485   0.95893   0.00000  Uiso   1.00
H625   H     0.57306   0.38009   0.79590   0.00000  Uiso   1.00
H626   H     0.90377   0.37654   0.98569   0.00000  Uiso   1.00
H627   H     0.90257   0.39213   0.93602   0.00000  Uiso   1.00
H628   H     0.65248   0.45670   0.05823   0.00000  Uiso   1.00
H629   H     0.62645   0.46601   0.01435   0.00000  Uiso   1.00
H630   H     0.60632   0.49251   0.09652   0.00000  Uiso   1.00
H631   H     0.58023   0.49955   0.05276   0.00000  Uiso   1.00
H632   H     0.57245   0.43202   0.04548   0.00000  Uiso   1.00
H633   H     0.55551   0.44789   0.09164   0.00000  Uiso   1.00
H634   H     0.59890   0.42473   0.08921   0.00000  Uiso   1.00
H635   H     0.55067   0.36699   0.92010   0.00000  Uiso   1.00
H636   H     0.92694   0.11991   0.20407   0.00000  Uiso   1.00
H637   H     0.56562   0.32710   0.94515   0.00000  Uiso   1.00
H638   H     0.55530   0.40357   0.98206   0.00000  Uiso   1.00
H639   H     0.57304   0.36363   0.00626   0.00000  Uiso   1.00
H640   H     0.62515   0.36152   0.95893   0.00000  Uiso   1.00
H641   H     0.62346   0.40377   0.98569   0.00000  Uiso   1.00
H642   H     0.60787   0.40257   0.93602   0.00000  Uiso   1.00
H643   H     0.54329   0.15248   0.05823   0.00000  Uiso   1.00
H644   H     0.53399   0.12645   0.01435   0.00000  Uiso   1.00
H645   H     0.50749   0.10632   0.09652   0.00000  Uiso   1.00
H646   H     0.50045   0.08023   0.05276   0.00000  Uiso   1.00
H647   H     0.88009   0.42694   0.79590   0.00000  Uiso   1.00
H648   H     0.56798   0.07245   0.04548   0.00000  Uiso   1.00
H649   H     0.55210   0.05551   0.09163   0.00000  Uiso   1.00
H650   H     0.57527   0.09890   0.08921   0.00000  Uiso   1.00
H651   H     0.63301   0.05067   0.92010   0.00000  Uiso   1.00
H652   H     0.67290   0.06562   0.94515   0.00000  Uiso   1.00
H653   H     0.59643   0.05530   0.98206   0.00000  Uiso   1.00
H654   H     0.63637   0.07304   0.00626   0.00000  Uiso   1.00
H655   H     0.63848   0.12515   0.95893   0.00000  Uiso   1.00
H656   H     0.59623   0.12346   0.98569   0.00000  Uiso   1.00
H657   H     0.59743   0.10787   0.93602   0.00000  Uiso   1.00
H658   H     0.61991   0.07306   0.20407   0.00000  Uiso   1.00
H659   H     0.84752   0.04330   0.05822   0.00000  Uiso   1.00
H660   H     0.87355   0.03399   0.01435   0.00000  Uiso   1.00
H661   H     0.89367   0.00750   0.09652   0.00000  Uiso   1.00
H662   H     0.91977   0.00045   0.05276   0.00000  Uiso   1.00
H663   H     0.92755   0.06798   0.04547   0.00000  Uiso   1.00
H664   H     0.94449   0.05211   0.09164   0.00000  Uiso   1.00
H665   H     0.90110   0.07528   0.08920   0.00000  Uiso   1.00
H666   H     0.94933   0.13301   0.92010   0.00000  Uiso   1.00
H667   H     0.93438   0.17291   0.94515   0.00000  Uiso   1.00
H668   H     0.94470   0.09643   0.98205   0.00000  Uiso   1.00
H669   H     0.92694   0.11991   0.79590   0.00000  Uiso   1.00
H670   H     0.92696   0.13636   0.00626   0.00000  Uiso   1.00
H671   H     0.87485   0.13848   0.95893   0.00000  Uiso   1.00
H672   H     0.87654   0.09623   0.98568   0.00000  Uiso   1.00
H673   H     0.89213   0.09744   0.93602   0.00000  Uiso   1.00
H674   H     0.95670   0.34752   0.05823   0.00000  Uiso   1.00
H675   H     0.96601   0.37355   0.01435   0.00000  Uiso   1.00
H676   H     0.99250   0.39368   0.09652   0.00000  Uiso   1.00
H677   H     0.99955   0.41977   0.05276   0.00000  Uiso   1.00
H678   H     0.93202   0.42755   0.04547   0.00000  Uiso   1.00
H679   H     0.94789   0.44449   0.09164   0.00000  Uiso   1.00
H680   H     0.57306   0.38009   0.20407   0.00000  Uiso   1.00
H681   H     0.92472   0.40110   0.08920   0.00000  Uiso   1.00
H682   H     0.86991   0.17694   0.70406   0.00000  Uiso   1.00
H683   H     0.63010   0.32306   0.29589   0.00000  Uiso   1.00
H684   H     0.82306   0.36991   0.70407   0.00000  Uiso   1.00
H685   H     0.88010   0.07306   0.79589   0.00000  Uiso   1.00
H686   H     0.67694   0.13010   0.29589   0.00000  Uiso   1.00
H687   H     0.63009   0.32306   0.70406   0.00000  Uiso   1.00
H688   H     0.86990   0.17694   0.29589   0.00000  Uiso   1.00
H689   H     0.67694   0.13009   0.70406   0.00000  Uiso   1.00
H690   H     0.82306   0.36990   0.29589   0.00000  Uiso   1.00
H691   H     0.86991   0.32306   0.29590   0.00000  Uiso   1.00
H692   H     0.63009   0.17694   0.70407   0.00000  Uiso   1.00
H693   H     0.82306   0.13009   0.29590   0.00000  Uiso   1.00
H694   H     0.67694   0.36991   0.70407   0.00000  Uiso   1.00
H695   H     0.63009   0.17694   0.29590   0.00000  Uiso   1.00
H696   H     0.57306   0.11991   0.20407   0.00000  Uiso   1.00
H697   H     0.86991   0.32306   0.70407   0.00000  Uiso   1.00
H698   H     0.67694   0.36991   0.29590   0.00000  Uiso   1.00
H699   H     0.82306   0.13009   0.70407   0.00000  Uiso   1.00
H700   H     0.94182   0.25643   0.40270   0.00000  Uiso   1.00
H701   H     0.55822   0.24367   0.59729   0.00000  Uiso   1.00
H702   H     0.74357   0.44182   0.40270   0.00000  Uiso   1.00
H703   H     0.75633   0.05822   0.59729   0.00000  Uiso   1.00
H704   H     0.55818   0.24357   0.40270   0.00000  Uiso   1.00
H705   H     0.94178   0.25633   0.59729   0.00000  Uiso   1.00
H706   H     0.75643   0.05818   0.40270   0.00000  Uiso   1.00
H707   H     0.92694   0.38010   0.79589   0.00000  Uiso   1.00
H708   H     0.74367   0.44178   0.59729   0.00000  Uiso   1.00
H709   H     0.69182   0.00643   0.90270   0.00000  Uiso   1.00
H710   H     0.80822   0.49367   0.09729   0.00000  Uiso   1.00
H711   H     0.99357   0.19182   0.90270   0.00000  Uiso   1.00
H712   H     0.50633   0.30822   0.09729   0.00000  Uiso   1.00
H713   H     0.80818   0.49357   0.90270   0.00000  Uiso   1.00
H714   H     0.69178   0.00633   0.09729   0.00000  Uiso   1.00
H715   H     0.50643   0.30818   0.90270   0.00000  Uiso   1.00
H716   H     0.99367   0.19178   0.09729   0.00000  Uiso   1.00
H717   H     0.61699   0.19933   0.42010   0.00000  Uiso   1.00
H718   H     0.88009   0.07306   0.20407   0.00000  Uiso   1.00
H719   H     0.57709   0.18437   0.44515   0.00000  Uiso   1.00
H720   H     0.65357   0.19470   0.48205   0.00000  Uiso   1.00
H721   H     0.61363   0.17696   0.50625   0.00000  Uiso   1.00
H722   H     0.61151   0.12485   0.45893   0.00000  Uiso   1.00
H723   H     0.65377   0.12653   0.48568   0.00000  Uiso   1.00
H724   H     0.65256   0.14212   0.43602   0.00000  Uiso   1.00
H725   H     0.90247   0.20671   0.55824   0.00000  Uiso   1.00
H726   H     0.87645   0.21601   0.51435   0.00000  Uiso   1.00
H727   H     0.85631   0.24252   0.59651   0.00000  Uiso   1.00
H728   H     0.83022   0.24955   0.55275   0.00000  Uiso   1.00
H729   H     0.61990   0.42694   0.79589   0.00000  Uiso   1.00
H730   H     0.82245   0.18202   0.54547   0.00000  Uiso   1.00
H731   H     0.80550   0.19791   0.59163   0.00000  Uiso   1.00
H732   H     0.84889   0.17474   0.58921   0.00000  Uiso   1.00
H733   H     0.80066   0.11699   0.42010   0.00000  Uiso   1.00
H734   H     0.81562   0.07710   0.44515   0.00000  Uiso   1.00
H735   H     0.80530   0.15357   0.48206   0.00000  Uiso   1.00
H736   H     0.82304   0.11364   0.50626   0.00000  Uiso   1.00
H737   H     0.87515   0.11152   0.45893   0.00000  Uiso   1.00
H738   H     0.87346   0.15377   0.48569   0.00000  Uiso   1.00
H739   H     0.85787   0.15257   0.43602   0.00000  Uiso   1.00
H740   H     0.92694   0.38009   0.20407   0.00000  Uiso   1.00
H741   H     0.79330   0.40248   0.55823   0.00000  Uiso   1.00
H742   H     0.78399   0.37645   0.51435   0.00000  Uiso   1.00
H743   H     0.75750   0.35632   0.59652   0.00000  Uiso   1.00
H744   H     0.75045   0.33023   0.55276   0.00000  Uiso   1.00
H745   H     0.81798   0.32245   0.54547   0.00000  Uiso   1.00
H746   H     0.80211   0.30551   0.59163   0.00000  Uiso   1.00
H747   H     0.82528   0.34890   0.58920   0.00000  Uiso   1.00
H748   H     0.88302   0.30067   0.42010   0.00000  Uiso   1.00
H749   H     0.92291   0.31563   0.44515   0.00000  Uiso   1.00
H750   H     0.84643   0.30530   0.48205   0.00000  Uiso   1.00
H751   H     0.57306   0.11990   0.79589   0.00000  Uiso   1.00
H752   H     0.88636   0.32304   0.50625   0.00000  Uiso   1.00
H753   H     0.88848   0.37515   0.45893   0.00000  Uiso   1.00
H754   H     0.84623   0.37347   0.48568   0.00000  Uiso   1.00
H755   H     0.84744   0.35788   0.43602   0.00000  Uiso   1.00
H756   H     0.59753   0.29329   0.55823   0.00000  Uiso   1.00
H757   H     0.62355   0.28398   0.51435   0.00000  Uiso   1.00
H758   H     0.64368   0.25749   0.59652   0.00000  Uiso   1.00
H759   H     0.66977   0.25045   0.55276   0.00000  Uiso   1.00
H760   H     0.67755   0.31798   0.54547   0.00000  Uiso   1.00
H761   H     0.69449   0.30210   0.59163   0.00000  Uiso   1.00
H762   H     0.61991   0.07306   0.79590   0.00000  Uiso   1.00
H763   H     0.65110   0.32527   0.58920   0.00000  Uiso   1.00
H764   H     0.69933   0.38301   0.42010   0.00000  Uiso   1.00
H765   H     0.68438   0.42290   0.44515   0.00000  Uiso   1.00
H766   H     0.69470   0.34643   0.48206   0.00000  Uiso   1.00
H767   H     0.67696   0.38636   0.50626   0.00000  Uiso   1.00
H768   H     0.62485   0.38848   0.45893   0.00000  Uiso   1.00
H769   H     0.62654   0.34622   0.48569   0.00000  Uiso   1.00
H770   H     0.64213   0.34743   0.43602   0.00000  Uiso   1.00
H771   H     0.70670   0.09752   0.55823   0.00000  Uiso   1.00
H772   H     0.71601   0.12355   0.51435   0.00000  Uiso   1.00
O773   O     0.75000   0.00000   0.25000   0.00000  Uiso   1.00
O774   O     0.75000   0.46963   0.66245   0.00000  Uiso   1.00
O775   O     0.96963   0.25000   0.33755   0.00000  Uiso   1.00
O776   O     0.53036   0.25000   0.66245   0.00000  Uiso   1.00
O777   O     0.50000   0.21964   0.83755   0.00000  Uiso   1.00
O778   O     0.50000   0.28037   0.16245   0.00000  Uiso   1.00
O779   O     0.78036   0.00000   0.83755   0.00000  Uiso   1.00
O780   O     0.71963   0.00000   0.16245   0.00000  Uiso   1.00
O781   O     0.50000   0.28037   0.83755   0.00000  Uiso   1.00
O782   O     0.50000   0.21964   0.16245   0.00000  Uiso   1.00
O783   O     0.71963   0.00000   0.83755   0.00000  Uiso   1.00
O784   O     0.75000   0.00000   0.75000   0.00000  Uiso   1.00
O785   O     0.78036   0.00000   0.16245   0.00000  Uiso   1.00
O786   O     0.70724   0.07308   0.27302   0.00000  Uiso   1.00
O787   O     0.79275   0.42693   0.72698   0.00000  Uiso   1.00
O788   O     0.92692   0.20725   0.27302   0.00000  Uiso   1.00
O789   O     0.57307   0.29275   0.72698   0.00000  Uiso   1.00
O790   O     0.79275   0.42693   0.27302   0.00000  Uiso   1.00
O791   O     0.70724   0.07308   0.72698   0.00000  Uiso   1.00
O792   O     0.57307   0.29275   0.27302   0.00000  Uiso   1.00
O793   O     0.92692   0.20725   0.72698   0.00000  Uiso   1.00
O794   O     0.70724   0.42692   0.72698   0.00000  Uiso   1.00
O795   O     0.50000   0.25000   0.25000   0.00000  Uiso   1.00
O796   O     0.79275   0.07308   0.27302   0.00000  Uiso   1.00
O797   O     0.92692   0.29276   0.72698   0.00000  Uiso   1.00
O798   O     0.57307   0.20724   0.27302   0.00000  Uiso   1.00
O799   O     0.79275   0.07308   0.72698   0.00000  Uiso   1.00
O800   O     0.70724   0.42692   0.27302   0.00000  Uiso   1.00
O801   O     0.57307   0.20724   0.72698   0.00000  Uiso   1.00
O802   O     0.92692   0.29276   0.27302   0.00000  Uiso   1.00
O803   O     0.95724   0.32308   0.77302   0.00000  Uiso   1.00
O804   O     0.54275   0.17692   0.22698   0.00000  Uiso   1.00
O805   O     0.67692   0.45724   0.77302   0.00000  Uiso   1.00
O806   O     0.50000   0.25000   0.75000   0.00000  Uiso   1.00
O807   O     0.82307   0.04276   0.22698   0.00000  Uiso   1.00
O808   O     0.54275   0.17692   0.77302   0.00000  Uiso   1.00
O809   O     0.95724   0.32308   0.22698   0.00000  Uiso   1.00
O810   O     0.82307   0.04276   0.77302   0.00000  Uiso   1.00
O811   O     0.67692   0.45724   0.22698   0.00000  Uiso   1.00
O812   O     0.95724   0.17693   0.22698   0.00000  Uiso   1.00
O813   O     0.54275   0.32307   0.77302   0.00000  Uiso   1.00
O814   O     0.67692   0.04276   0.22698   0.00000  Uiso   1.00
O815   O     0.82307   0.45725   0.77302   0.00000  Uiso   1.00
O816   O     0.54275   0.32307   0.22698   0.00000  Uiso   1.00
O817   O     0.75000   0.46963   0.33755   0.00000  Uiso   1.00
O818   O     0.95724   0.17693   0.77302   0.00000  Uiso   1.00
O819   O     0.82307   0.45725   0.22698   0.00000  Uiso   1.00
O820   O     0.67692   0.04276   0.77302   0.00000  Uiso   1.00
O821   O     0.59909   0.23634   0.46030   0.00000  Uiso   1.00
O822   O     0.90096   0.26110   0.54028   0.00000  Uiso   1.00
O823   O     0.76365   0.09909   0.46030   0.00000  Uiso   1.00
O824   O     0.73890   0.40096   0.54028   0.00000  Uiso   1.00
O825   O     0.90091   0.26366   0.46030   0.00000  Uiso   1.00
O826   O     0.59903   0.23890   0.54028   0.00000  Uiso   1.00
O827   O     0.73635   0.40091   0.46030   0.00000  Uiso   1.00
O828   O     0.75000   0.03037   0.66245   0.00000  Uiso   1.00
O829   O     0.76110   0.09904   0.54028   0.00000  Uiso   1.00
O830   O     0.84909   0.48635   0.96030   0.00000  Uiso   1.00
O831   O     0.65096   0.01110   0.04028   0.00000  Uiso   1.00
O832   O     0.51365   0.34909   0.96030   0.00000  Uiso   1.00
O833   O     0.98890   0.15096   0.04028   0.00000  Uiso   1.00
O834   O     0.65091   0.01365   0.96030   0.00000  Uiso   1.00
O835   O     0.84904   0.48890   0.04028   0.00000  Uiso   1.00
O836   O     0.98635   0.15091   0.96030   0.00000  Uiso   1.00
O837   O     0.51110   0.34903   0.04028   0.00000  Uiso   1.00
O838   O     0.53036   0.25000   0.33755   0.00000  Uiso   1.00
O839   O     0.96963   0.25000   0.66245   0.00000  Uiso   1.00
O840   O     0.75000   0.03037   0.33755   0.00000  Uiso   1.00
Zn841  Zn    0.70659   0.00000   0.21735   0.00000  Uiso   1.00
Zn842  Zn    0.54340   0.25000   0.28265   0.00000  Uiso   1.00
Zn843  Zn    0.75000   0.45659   0.71735   0.00000  Uiso   1.00
Zn844  Zn    0.75000   0.04341   0.28265   0.00000  Uiso   1.00
Zn845  Zn    0.54340   0.25000   0.71735   0.00000  Uiso   1.00
Zn846  Zn    0.95659   0.25000   0.28265   0.00000  Uiso   1.00
Zn847  Zn    0.75000   0.04341   0.71735   0.00000  Uiso   1.00
Zn848  Zn    0.75000   0.45659   0.28265   0.00000  Uiso   1.00
Zn849  Zn    0.79340   0.00000   0.78265   0.00000  Uiso   1.00
Zn850  Zn    0.50000   0.20660   0.21735   0.00000  Uiso   1.00
Zn851  Zn    0.50000   0.29341   0.78265   0.00000  Uiso   1.00
Zn852  Zn    0.79340   0.00000   0.21735   0.00000  Uiso   1.00
Zn853  Zn    0.70659   0.00000   0.78265   0.00000  Uiso   1.00
Zn854  Zn    0.50000   0.29340   0.21735   0.00000  Uiso   1.00
Zn855  Zn    0.50000   0.20660   0.78265   0.00000  Uiso   1.00
Zn856  Zn    0.95659   0.25000   0.71735   0.00000  Uiso   1.00
C857   C     0.46713   0.75375   0.41870   0.00000  Uiso   1.00
C858   C     0.28291   0.99652   0.08132   0.00000  Uiso   1.00
C859   C     0.24649   0.96668   0.54077   0.00000  Uiso   1.00
C860   C     0.46675   0.75436   0.45926   0.00000  Uiso   1.00
C861   C     0.03332   0.74649   0.54077   0.00000  Uiso   1.00
C862   C     0.24564   0.96675   0.45926   0.00000  Uiso   1.00
C863   C     0.25351   0.53332   0.54077   0.00000  Uiso   1.00
C864   C     0.28325   0.99564   0.95926   0.00000  Uiso   1.00
C865   C     0.21668   0.50351   0.04077   0.00000  Uiso   1.00
C866   C     0.00436   0.78325   0.95926   0.00000  Uiso   1.00
C867   C     0.49649   0.71668   0.04077   0.00000  Uiso   1.00
C868   C     0.21675   0.50436   0.95926   0.00000  Uiso   1.00
C869   C     0.49625   0.71713   0.91870   0.00000  Uiso   1.00
C870   C     0.28332   0.99649   0.04077   0.00000  Uiso   1.00
C871   C     0.49564   0.71675   0.95926   0.00000  Uiso   1.00
C872   C     0.00351   0.78332   0.04077   0.00000  Uiso   1.00
C873   C     0.09813   0.84813   0.24999   0.00000  Uiso   1.00
C874   C     0.40187   0.65187   0.74999   0.00000  Uiso   1.00
C875   C     0.15187   0.59813   0.24999   0.00000  Uiso   1.00
C876   C     0.34813   0.90187   0.74999   0.00000  Uiso   1.00
C877   C     0.40187   0.65187   0.24999   0.00000  Uiso   1.00
C878   C     0.09813   0.84813   0.74999   0.00000  Uiso   1.00
C879   C     0.34813   0.90187   0.24999   0.00000  Uiso   1.00
C880   C     0.00348   0.78291   0.08132   0.00000  Uiso   1.00
C881   C     0.15187   0.59813   0.74999   0.00000  Uiso   1.00
C882   C     0.09813   0.65187   0.74999   0.00000  Uiso   1.00
C883   C     0.40187   0.84813   0.24999   0.00000  Uiso   1.00
C884   C     0.15187   0.90187   0.74999   0.00000  Uiso   1.00
C885   C     0.34813   0.59813   0.24999   0.00000  Uiso   1.00
C886   C     0.40187   0.84813   0.74999   0.00000  Uiso   1.00
C887   C     0.09813   0.65187   0.24999   0.00000  Uiso   1.00
C888   C     0.34813   0.59813   0.74999   0.00000  Uiso   1.00
C889   C     0.15187   0.90187   0.24999   0.00000  Uiso   1.00
C890   C    -0.00000   0.75000   0.47965   0.00000  Uiso   1.00
C891   C     0.28287   0.99625   0.91870   0.00000  Uiso   1.00
C892   C    -0.00000   0.75000   0.52037   0.00000  Uiso   1.00
C893   C     0.25000   0.50000   0.47965   0.00000  Uiso   1.00
C894   C     0.25000   0.50000   0.52037   0.00000  Uiso   1.00
C895   C     0.25000   0.50000   0.97964   0.00000  Uiso   1.00
C896   C     0.25000   0.50000   0.02037   0.00000  Uiso   1.00
C897   C    -0.00000   0.75000   0.97964   0.00000  Uiso   1.00
C898   C    -0.00000   0.75000   0.02037   0.00000  Uiso   1.00
C899   C     0.10339   0.69941   0.44893   0.00000  Uiso   1.00
C900   C     0.12781   0.67916   0.47787   0.00000  Uiso   1.00
C901   C     0.13693   0.64079   0.46361   0.00000  Uiso   1.00
C902   C     0.21709   0.50348   0.08132   0.00000  Uiso   1.00
C903   C     0.38404   0.72663   0.54355   0.00000  Uiso   1.00
C904   C     0.34932   0.73067   0.56775   0.00000  Uiso   1.00
C905   C     0.33046   0.69397   0.57382   0.00000  Uiso   1.00
C906   C     0.30059   0.60340   0.44893   0.00000  Uiso   1.00
C907   C     0.32084   0.62781   0.47787   0.00000  Uiso   1.00
C908   C     0.35920   0.63693   0.46361   0.00000  Uiso   1.00
C909   C     0.27338   0.88404   0.54355   0.00000  Uiso   1.00
C910   C     0.26934   0.84933   0.56775   0.00000  Uiso   1.00
C911   C     0.30604   0.83046   0.57382   0.00000  Uiso   1.00
C912   C     0.39661   0.80059   0.44893   0.00000  Uiso   1.00
C913   C     0.00375   0.78287   0.91870   0.00000  Uiso   1.00
C914   C     0.37219   0.82084   0.47786   0.00000  Uiso   1.00
C915   C     0.36307   0.85921   0.46361   0.00000  Uiso   1.00
C916   C     0.11596   0.77337   0.54355   0.00000  Uiso   1.00
C917   C     0.15067   0.76934   0.56775   0.00000  Uiso   1.00
C918   C     0.16954   0.80603   0.57382   0.00000  Uiso   1.00
C919   C     0.19941   0.89660   0.44893   0.00000  Uiso   1.00
C920   C     0.17916   0.87219   0.47787   0.00000  Uiso   1.00
C921   C     0.14080   0.86307   0.46361   0.00000  Uiso   1.00
C922   C     0.22662   0.61596   0.54355   0.00000  Uiso   1.00
C923   C     0.23066   0.65067   0.56775   0.00000  Uiso   1.00
C924   C     0.49652   0.71709   0.08132   0.00000  Uiso   1.00
C925   C     0.19396   0.66954   0.57382   0.00000  Uiso   1.00
C926   C     0.35340   0.94941   0.94893   0.00000  Uiso   1.00
C927   C     0.37781   0.92916   0.97787   0.00000  Uiso   1.00
C928   C     0.38693   0.89080   0.96361   0.00000  Uiso   1.00
C929   C     0.13404   0.97663   0.04355   0.00000  Uiso   1.00
C930   C     0.09933   0.98066   0.06775   0.00000  Uiso   1.00
C931   C     0.08046   0.94396   0.07382   0.00000  Uiso   1.00
C932   C     0.05059   0.85340   0.94893   0.00000  Uiso   1.00
C933   C     0.07084   0.87781   0.97787   0.00000  Uiso   1.00
C934   C     0.10920   0.88693   0.96361   0.00000  Uiso   1.00
C935   C    -0.00000   0.75000   0.39844   0.00000  Uiso   1.00
C936   C     0.02337   0.63404   0.04355   0.00000  Uiso   1.00
C937   C     0.01934   0.59933   0.06775   0.00000  Uiso   1.00
C938   C     0.05604   0.58046   0.07382   0.00000  Uiso   1.00
C939   C     0.14660   0.55059   0.94893   0.00000  Uiso   1.00
C940   C     0.12219   0.57084   0.97787   0.00000  Uiso   1.00
C941   C     0.11307   0.60920   0.96361   0.00000  Uiso   1.00
C942   C     0.36596   0.52338   0.04355   0.00000  Uiso   1.00
C943   C     0.40067   0.51934   0.06776   0.00000  Uiso   1.00
C944   C     0.41954   0.55604   0.07382   0.00000  Uiso   1.00
C945   C     0.44941   0.64660   0.94893   0.00000  Uiso   1.00
C946   C    -0.00000   0.75000   0.60158   0.00000  Uiso   1.00
C947   C     0.42916   0.62219   0.97787   0.00000  Uiso   1.00
C948   C     0.39079   0.61307   0.96361   0.00000  Uiso   1.00
C949   C     0.47663   0.86596   0.04355   0.00000  Uiso   1.00
C950   C     0.48066   0.90067   0.06776   0.00000  Uiso   1.00
C951   C     0.44396   0.91954   0.07382   0.00000  Uiso   1.00
C952   C     0.25000   0.50000   0.39844   0.00000  Uiso   1.00
C953   C     0.03291   0.74652   0.58132   0.00000  Uiso   1.00
C954   C     0.25000   0.50000   0.60158   0.00000  Uiso   1.00
C955   C     0.25000   0.50000   0.89844   0.00000  Uiso   1.00
C956   C     0.25000   0.50000   0.10158   0.00000  Uiso   1.00
C957   C    -0.00000   0.75000   0.89844   0.00000  Uiso   1.00
C958   C    -0.00000   0.75000   0.10158   0.00000  Uiso   1.00
C959   C     0.06628   0.74081   0.47975   0.00000  Uiso   1.00
C960   C     0.43352   0.75701   0.52039   0.00000  Uiso   1.00
C961   C     0.25919   0.56628   0.47975   0.00000  Uiso   1.00
C962   C     0.24300   0.93352   0.52039   0.00000  Uiso   1.00
C963   C     0.43372   0.75919   0.47975   0.00000  Uiso   1.00
C964   C     0.24625   0.96713   0.41870   0.00000  Uiso   1.00
C965   C     0.06648   0.74299   0.52039   0.00000  Uiso   1.00
C966   C     0.24081   0.93372   0.47975   0.00000  Uiso   1.00
C967   C     0.25700   0.56648   0.52039   0.00000  Uiso   1.00
C968   C     0.31628   0.99081   0.97975   0.00000  Uiso   1.00
C969   C     0.18352   0.50701   0.02039   0.00000  Uiso   1.00
C970   C     0.00919   0.81628   0.97975   0.00000  Uiso   1.00
C971   C     0.49299   0.68352   0.02039   0.00000  Uiso   1.00
C972   C     0.18372   0.50919   0.97975   0.00000  Uiso   1.00
C973   C     0.31648   0.99299   0.02039   0.00000  Uiso   1.00
C974   C     0.49081   0.68372   0.97975   0.00000  Uiso   1.00
C975   C     0.25347   0.53291   0.58132   0.00000  Uiso   1.00
C976   C     0.00701   0.81648   0.02039   0.00000  Uiso   1.00
C977   C     0.25000   0.50000   0.35598   0.00000  Uiso   1.00
C978   C     0.25000   0.50000   0.64403   0.00000  Uiso   1.00
C979   C     0.00000   0.75000   0.35598   0.00000  Uiso   1.00
C980   C    -0.00000   0.75000   0.64403   0.00000  Uiso   1.00
C981   C     0.00000   0.75000   0.85598   0.00000  Uiso   1.00
C982   C    -0.00000   0.75000   0.14403   0.00000  Uiso   1.00
C983   C     0.25000   0.50000   0.85598   0.00000  Uiso   1.00
C984   C     0.25000   0.50000   0.14403   0.00000  Uiso   1.00
C985   C     0.17994   0.57006   0.25000   0.00000  Uiso   1.00
C986   C     0.03287   0.74625   0.41870   0.00000  Uiso   1.00
C987   C     0.32006   0.92994   0.75000   0.00000  Uiso   1.00
C988   C     0.42994   0.67994   0.25000   0.00000  Uiso   1.00
C989   C     0.07006   0.82006   0.75000   0.00000  Uiso   1.00
C990   C     0.32006   0.92994   0.25000   0.00000  Uiso   1.00
C991   C     0.17994   0.57006   0.75000   0.00000  Uiso   1.00
C992   C     0.07006   0.82006   0.25000   0.00000  Uiso   1.00
C993   C     0.42994   0.67994   0.75000   0.00000  Uiso   1.00
C994   C     0.17994   0.92994   0.75000   0.00000  Uiso   1.00
C995   C     0.32006   0.57006   0.25000   0.00000  Uiso   1.00
C996   C     0.42994   0.82006   0.75000   0.00000  Uiso   1.00
C997   C     0.46709   0.75348   0.58132   0.00000  Uiso   1.00
C998   C     0.07006   0.67994   0.25000   0.00000  Uiso   1.00
C999   C     0.32006   0.57006   0.75000   0.00000  Uiso   1.00
C1000  C     0.17994   0.92994   0.25000   0.00000  Uiso   1.00
C1001  C     0.07006   0.67994   0.75000   0.00000  Uiso   1.00
C1002  C     0.42994   0.82006   0.25000   0.00000  Uiso   1.00
C1003  C     0.12236   0.90439   0.22423   0.00000  Uiso   1.00
C1004  C     0.37764   0.59562   0.77573   0.00000  Uiso   1.00
C1005  C     0.09561   0.62236   0.22423   0.00000  Uiso   1.00
C1006  C     0.40438   0.87764   0.77574   0.00000  Uiso   1.00
C1007  C     0.37764   0.59561   0.22423   0.00000  Uiso   1.00
C1008  C     0.25375   0.53287   0.41870   0.00000  Uiso   1.00
C1009  C     0.12236   0.90438   0.77573   0.00000  Uiso   1.00
C1010  C     0.40439   0.87764   0.22423   0.00000  Uiso   1.00
C1011  C     0.09562   0.62236   0.77573   0.00000  Uiso   1.00
C1012  C     0.12236   0.59562   0.77574   0.00000  Uiso   1.00
C1013  C     0.37764   0.90439   0.22423   0.00000  Uiso   1.00
C1014  C     0.09562   0.87764   0.77574   0.00000  Uiso   1.00
C1015  C     0.40438   0.62236   0.22423   0.00000  Uiso   1.00
C1016  C     0.37764   0.90438   0.77574   0.00000  Uiso   1.00
C1017  C     0.12236   0.59562   0.22423   0.00000  Uiso   1.00
C1018  C     0.40438   0.62236   0.77574   0.00000  Uiso   1.00
C1019  C     0.24652   0.96709   0.58132   0.00000  Uiso   1.00
C1020  C     0.09561   0.87764   0.22423   0.00000  Uiso   1.00
C1021  C     0.37236   0.65439   0.72423   0.00000  Uiso   1.00
C1022  C     0.12764   0.84562   0.27574   0.00000  Uiso   1.00
C1023  C     0.34561   0.87236   0.72423   0.00000  Uiso   1.00
C1024  C     0.15438   0.62764   0.27574   0.00000  Uiso   1.00
C1025  C     0.12764   0.84561   0.72423   0.00000  Uiso   1.00
C1026  C     0.37236   0.65438   0.27574   0.00000  Uiso   1.00
C1027  C     0.15439   0.62764   0.72423   0.00000  Uiso   1.00
C1028  C     0.34562   0.87236   0.27574   0.00000  Uiso   1.00
C1029  C     0.37236   0.84562   0.27574   0.00000  Uiso   1.00
C1030  C     0.21713   0.50375   0.91870   0.00000  Uiso   1.00
C1031  C     0.12764   0.65438   0.72423   0.00000  Uiso   1.00
C1032  C     0.34562   0.62764   0.27574   0.00000  Uiso   1.00
C1033  C     0.15438   0.87236   0.72423   0.00000  Uiso   1.00
C1034  C     0.12764   0.65438   0.27574   0.00000  Uiso   1.00
C1035  C     0.37236   0.84562   0.72423   0.00000  Uiso   1.00
C1036  C     0.15438   0.87236   0.27574   0.00000  Uiso   1.00
C1037  C     0.34561   0.62764   0.72423   0.00000  Uiso   1.00
C1038  C     0.03325   0.74564   0.45926   0.00000  Uiso   1.00
C1039  C     0.46668   0.75351   0.54077   0.00000  Uiso   1.00
C1040  C     0.25436   0.53325   0.45926   0.00000  Uiso   1.00
H1041  H     0.11991   0.92694   0.20407   0.00000  Uiso   1.00
H1042  H     0.38009   0.92694   0.20407   0.00000  Uiso   1.00
H1043  H     0.24250   0.64368   0.59652   0.00000  Uiso   1.00
H1044  H     0.24955   0.66977   0.55276   0.00000  Uiso   1.00
H1045  H     0.18201   0.67755   0.54547   0.00000  Uiso   1.00
H1046  H     0.19789   0.69449   0.59164   0.00000  Uiso   1.00
H1047  H     0.17472   0.65110   0.58920   0.00000  Uiso   1.00
H1048  H     0.36699   0.94933   0.92010   0.00000  Uiso   1.00
H1049  H     0.32710   0.93438   0.94515   0.00000  Uiso   1.00
H1050  H     0.40357   0.94470   0.98206   0.00000  Uiso   1.00
H1051  H     0.36364   0.92696   0.00626   0.00000  Uiso   1.00
H1052  H     0.36152   0.87485   0.95893   0.00000  Uiso   1.00
H1053  H     0.07306   0.88009   0.79590   0.00000  Uiso   1.00
H1054  H     0.40377   0.87654   0.98569   0.00000  Uiso   1.00
H1055  H     0.40257   0.89213   0.93602   0.00000  Uiso   1.00
H1056  H     0.15248   0.95670   0.05823   0.00000  Uiso   1.00
H1057  H     0.12645   0.96601   0.01435   0.00000  Uiso   1.00
H1058  H     0.10632   0.99251   0.09652   0.00000  Uiso   1.00
H1059  H     0.08023   0.99955   0.05276   0.00000  Uiso   1.00
H1060  H     0.07245   0.93202   0.04548   0.00000  Uiso   1.00
H1061  H     0.05551   0.94789   0.09164   0.00000  Uiso   1.00
H1062  H     0.09890   0.92473   0.08921   0.00000  Uiso   1.00
H1063  H     0.05067   0.86699   0.92010   0.00000  Uiso   1.00
H1064  H     0.42694   0.61991   0.20407   0.00000  Uiso   1.00
H1065  H     0.06562   0.82710   0.94515   0.00000  Uiso   1.00
H1066  H     0.05530   0.90357   0.98206   0.00000  Uiso   1.00
H1067  H     0.07304   0.86363   0.00626   0.00000  Uiso   1.00
H1068  H     0.12515   0.86152   0.95893   0.00000  Uiso   1.00
H1069  H     0.12346   0.90377   0.98569   0.00000  Uiso   1.00
H1070  H     0.10787   0.90257   0.93602   0.00000  Uiso   1.00
H1071  H     0.04329   0.65248   0.05823   0.00000  Uiso   1.00
H1072  H     0.03399   0.62645   0.01435   0.00000  Uiso   1.00
H1073  H     0.00749   0.60632   0.09652   0.00000  Uiso   1.00
H1074  H     0.00045   0.58023   0.05276   0.00000  Uiso   1.00
H1075  H     0.38009   0.92694   0.79590   0.00000  Uiso   1.00
H1076  H     0.06798   0.57245   0.04548   0.00000  Uiso   1.00
H1077  H     0.05210   0.55551   0.09163   0.00000  Uiso   1.00
H1078  H     0.07527   0.59890   0.08921   0.00000  Uiso   1.00
H1079  H     0.13301   0.55067   0.92010   0.00000  Uiso   1.00
H1080  H     0.17290   0.56562   0.94515   0.00000  Uiso   1.00
H1081  H     0.09643   0.55530   0.98206   0.00000  Uiso   1.00
H1082  H     0.13637   0.57304   0.00626   0.00000  Uiso   1.00
H1083  H     0.13848   0.62515   0.95893   0.00000  Uiso   1.00
H1084  H     0.09623   0.62346   0.98569   0.00000  Uiso   1.00
H1085  H     0.09743   0.60787   0.93602   0.00000  Uiso   1.00
H1086  H     0.11991   0.57306   0.20407   0.00000  Uiso   1.00
H1087  H     0.34752   0.54330   0.05822   0.00000  Uiso   1.00
H1088  H     0.37355   0.53399   0.01435   0.00000  Uiso   1.00
H1089  H     0.39367   0.50750   0.09652   0.00000  Uiso   1.00
H1090  H     0.41977   0.50045   0.05276   0.00000  Uiso   1.00
H1091  H     0.42755   0.56798   0.04547   0.00000  Uiso   1.00
H1092  H     0.44449   0.55211   0.09164   0.00000  Uiso   1.00
H1093  H     0.40110   0.57528   0.08920   0.00000  Uiso   1.00
H1094  H     0.44933   0.63301   0.92010   0.00000  Uiso   1.00
H1095  H     0.43438   0.67291   0.94515   0.00000  Uiso   1.00
H1096  H     0.44470   0.59643   0.98205   0.00000  Uiso   1.00
H1097  H     0.42694   0.61991   0.79590   0.00000  Uiso   1.00
H1098  H     0.42696   0.63636   0.00626   0.00000  Uiso   1.00
H1099  H     0.37485   0.63848   0.95893   0.00000  Uiso   1.00
H1100  H     0.37654   0.59623   0.98568   0.00000  Uiso   1.00
H1101  H     0.39213   0.59744   0.93602   0.00000  Uiso   1.00
H1102  H     0.45670   0.84752   0.05823   0.00000  Uiso   1.00
H1103  H     0.46601   0.87355   0.01435   0.00000  Uiso   1.00
H1104  H     0.49250   0.89368   0.09652   0.00000  Uiso   1.00
H1105  H     0.49955   0.91977   0.05276   0.00000  Uiso   1.00
H1106  H     0.43202   0.92755   0.04547   0.00000  Uiso   1.00
H1107  H     0.44789   0.94449   0.09164   0.00000  Uiso   1.00
H1108  H     0.07306   0.88009   0.20407   0.00000  Uiso   1.00
H1109  H     0.42472   0.90110   0.08920   0.00000  Uiso   1.00
H1110  H     0.36991   0.67694   0.70406   0.00000  Uiso   1.00
H1111  H     0.13010   0.82306   0.29589   0.00000  Uiso   1.00
H1112  H     0.32306   0.86991   0.70407   0.00000  Uiso   1.00
H1113  H     0.38010   0.57306   0.79589   0.00000  Uiso   1.00
H1114  H     0.17694   0.63010   0.29589   0.00000  Uiso   1.00
H1115  H     0.13009   0.82306   0.70406   0.00000  Uiso   1.00
H1116  H     0.36990   0.67694   0.29589   0.00000  Uiso   1.00
H1117  H     0.17694   0.63009   0.70406   0.00000  Uiso   1.00
H1118  H     0.32306   0.86990   0.29589   0.00000  Uiso   1.00
H1119  H     0.36991   0.82306   0.29590   0.00000  Uiso   1.00
H1120  H     0.13009   0.67694   0.70407   0.00000  Uiso   1.00
H1121  H     0.32306   0.63009   0.29590   0.00000  Uiso   1.00
H1122  H     0.17694   0.86991   0.70407   0.00000  Uiso   1.00
H1123  H     0.13009   0.67694   0.29590   0.00000  Uiso   1.00
H1124  H     0.07306   0.61991   0.20407   0.00000  Uiso   1.00
H1125  H     0.36991   0.82306   0.70407   0.00000  Uiso   1.00
H1126  H     0.17694   0.86991   0.29590   0.00000  Uiso   1.00
H1127  H     0.32306   0.63009   0.70407   0.00000  Uiso   1.00
H1128  H     0.44182   0.75643   0.40270   0.00000  Uiso   1.00
H1129  H     0.05822   0.74367   0.59729   0.00000  Uiso   1.00
H1130  H     0.24357   0.94182   0.40270   0.00000  Uiso   1.00
H1131  H     0.25633   0.55822   0.59729   0.00000  Uiso   1.00
H1132  H     0.05818   0.74357   0.40270   0.00000  Uiso   1.00
H1133  H     0.44178   0.75633   0.59729   0.00000  Uiso   1.00
H1134  H     0.25643   0.55818   0.40270   0.00000  Uiso   1.00
H1135  H     0.42694   0.88010   0.79589   0.00000  Uiso   1.00
H1136  H     0.24367   0.94178   0.59729   0.00000  Uiso   1.00
H1137  H     0.19182   0.50643   0.90270   0.00000  Uiso   1.00
H1138  H     0.30822   0.99367   0.09729   0.00000  Uiso   1.00
H1139  H     0.49357   0.69182   0.90270   0.00000  Uiso   1.00
H1140  H     0.00633   0.80822   0.09729   0.00000  Uiso   1.00
H1141  H     0.30818   0.99357   0.90270   0.00000  Uiso   1.00
H1142  H     0.19178   0.50633   0.09729   0.00000  Uiso   1.00
H1143  H     0.00643   0.80818   0.90270   0.00000  Uiso   1.00
H1144  H     0.49367   0.69178   0.09729   0.00000  Uiso   1.00
H1145  H     0.11699   0.69933   0.42010   0.00000  Uiso   1.00
H1146  H     0.38009   0.57306   0.20407   0.00000  Uiso   1.00
H1147  H     0.07709   0.68437   0.44515   0.00000  Uiso   1.00
H1148  H     0.15357   0.69470   0.48205   0.00000  Uiso   1.00
H1149  H     0.11363   0.67696   0.50625   0.00000  Uiso   1.00
H1150  H     0.11151   0.62485   0.45893   0.00000  Uiso   1.00
H1151  H     0.15377   0.62653   0.48568   0.00000  Uiso   1.00
H1152  H     0.15256   0.64212   0.43602   0.00000  Uiso   1.00
H1153  H     0.40247   0.70671   0.55824   0.00000  Uiso   1.00
H1154  H     0.37645   0.71601   0.51435   0.00000  Uiso   1.00
H1155  H     0.35631   0.74252   0.59651   0.00000  Uiso   1.00
H1156  H     0.33022   0.74955   0.55275   0.00000  Uiso   1.00
H1157  H     0.11990   0.92694   0.79589   0.00000  Uiso   1.00
H1158  H     0.32245   0.68202   0.54547   0.00000  Uiso   1.00
H1159  H     0.30550   0.69791   0.59163   0.00000  Uiso   1.00
H1160  H     0.34889   0.67474   0.58921   0.00000  Uiso   1.00
H1161  H     0.30066   0.61699   0.42010   0.00000  Uiso   1.00
H1162  H     0.31562   0.57710   0.44515   0.00000  Uiso   1.00
H1163  H     0.30530   0.65357   0.48206   0.00000  Uiso   1.00
H1164  H     0.32304   0.61364   0.50626   0.00000  Uiso   1.00
H1165  H     0.37515   0.61152   0.45893   0.00000  Uiso   1.00
H1166  H     0.37346   0.65377   0.48569   0.00000  Uiso   1.00
H1167  H     0.35787   0.65257   0.43602   0.00000  Uiso   1.00
H1168  H     0.42694   0.88009   0.20407   0.00000  Uiso   1.00
H1169  H     0.29330   0.90248   0.55823   0.00000  Uiso   1.00
H1170  H     0.28399   0.87645   0.51435   0.00000  Uiso   1.00
H1171  H     0.25750   0.85632   0.59652   0.00000  Uiso   1.00
H1172  H     0.25045   0.83023   0.55276   0.00000  Uiso   1.00
H1173  H     0.31798   0.82245   0.54547   0.00000  Uiso   1.00
H1174  H     0.30211   0.80551   0.59163   0.00000  Uiso   1.00
H1175  H     0.32528   0.84890   0.58920   0.00000  Uiso   1.00
H1176  H     0.38302   0.80067   0.42010   0.00000  Uiso   1.00
H1177  H     0.42291   0.81563   0.44515   0.00000  Uiso   1.00
H1178  H     0.34643   0.80530   0.48205   0.00000  Uiso   1.00
H1179  H     0.07306   0.61990   0.79589   0.00000  Uiso   1.00
H1180  H     0.38636   0.82304   0.50625   0.00000  Uiso   1.00
H1181  H     0.38848   0.87515   0.45893   0.00000  Uiso   1.00
H1182  H     0.34623   0.87347   0.48568   0.00000  Uiso   1.00
H1183  H     0.34744   0.85788   0.43602   0.00000  Uiso   1.00
H1184  H     0.09753   0.79329   0.55823   0.00000  Uiso   1.00
H1185  H     0.12355   0.78398   0.51435   0.00000  Uiso   1.00
H1186  H     0.14368   0.75749   0.59652   0.00000  Uiso   1.00
H1187  H     0.16977   0.75045   0.55276   0.00000  Uiso   1.00
H1188  H     0.17755   0.81798   0.54547   0.00000  Uiso   1.00
H1189  H     0.19449   0.80210   0.59163   0.00000  Uiso   1.00
H1190  H     0.11991   0.57306   0.79590   0.00000  Uiso   1.00
H1191  H     0.15110   0.82527   0.58920   0.00000  Uiso   1.00
H1192  H     0.19933   0.88301   0.42010   0.00000  Uiso   1.00
H1193  H     0.18438   0.92290   0.44515   0.00000  Uiso   1.00
H1194  H     0.19470   0.84643   0.48206   0.00000  Uiso   1.00
H1195  H     0.17696   0.88636   0.50626   0.00000  Uiso   1.00
H1196  H     0.12485   0.88848   0.45893   0.00000  Uiso   1.00
H1197  H     0.12654   0.84622   0.48569   0.00000  Uiso   1.00
H1198  H     0.14213   0.84743   0.43602   0.00000  Uiso   1.00
H1199  H     0.20670   0.59752   0.55823   0.00000  Uiso   1.00
H1200  H     0.21601   0.62355   0.51435   0.00000  Uiso   1.00
O1201  O     0.25000   0.50000   0.25000   0.00000  Uiso   1.00
O1202  O     0.25000   0.96963   0.66245   0.00000  Uiso   1.00
O1203  O     0.46963   0.75000   0.33755   0.00000  Uiso   1.00
O1204  O     0.03036   0.75000   0.66245   0.00000  Uiso   1.00
O1205  O    -0.00000   0.71964   0.83755   0.00000  Uiso   1.00
O1206  O    -0.00000   0.78037   0.16245   0.00000  Uiso   1.00
O1207  O     0.28036   0.50000   0.83755   0.00000  Uiso   1.00
O1208  O     0.21963   0.50000   0.16245   0.00000  Uiso   1.00
O1209  O    -0.00000   0.78037   0.83755   0.00000  Uiso   1.00
O1210  O    -0.00000   0.71964   0.16245   0.00000  Uiso   1.00
O1211  O     0.21963   0.50000   0.83755   0.00000  Uiso   1.00
O1212  O     0.25000   0.50000   0.75000   0.00000  Uiso   1.00
O1213  O     0.28036   0.50000   0.16245   0.00000  Uiso   1.00
O1214  O     0.20724   0.57308   0.27302   0.00000  Uiso   1.00
O1215  O     0.29275   0.92693   0.72698   0.00000  Uiso   1.00
O1216  O     0.42692   0.70725   0.27302   0.00000  Uiso   1.00
O1217  O     0.07307   0.79275   0.72698   0.00000  Uiso   1.00
O1218  O     0.29275   0.92693   0.27302   0.00000  Uiso   1.00
O1219  O     0.20724   0.57308   0.72698   0.00000  Uiso   1.00
O1220  O     0.07307   0.79275   0.27302   0.00000  Uiso   1.00
O1221  O     0.42692   0.70725   0.72698   0.00000  Uiso   1.00
O1222  O     0.20724   0.92692   0.72698   0.00000  Uiso   1.00
O1223  O     0.00000   0.75000   0.25000   0.00000  Uiso   1.00
O1224  O     0.29275   0.57308   0.27302   0.00000  Uiso   1.00
O1225  O     0.42692   0.79276   0.72698   0.00000  Uiso   1.00
O1226  O     0.07307   0.70724   0.27302   0.00000  Uiso   1.00
O1227  O     0.29275   0.57308   0.72698   0.00000  Uiso   1.00
O1228  O     0.20724   0.92692   0.27302   0.00000  Uiso   1.00
O1229  O     0.07307   0.70724   0.72698   0.00000  Uiso   1.00
O1230  O     0.42692   0.79276   0.27302   0.00000  Uiso   1.00
O1231  O     0.45724   0.82308   0.77302   0.00000  Uiso   1.00
O1232  O     0.04275   0.67692   0.22698   0.00000  Uiso   1.00
O1233  O     0.17692   0.95724   0.77302   0.00000  Uiso   1.00
O1234  O     0.00000   0.75000   0.75000   0.00000  Uiso   1.00
O1235  O     0.32307   0.54276   0.22698   0.00000  Uiso   1.00
O1236  O     0.04275   0.67692   0.77302   0.00000  Uiso   1.00
O1237  O     0.45724   0.82308   0.22698   0.00000  Uiso   1.00
O1238  O     0.32307   0.54276   0.77302   0.00000  Uiso   1.00
O1239  O     0.17692   0.95724   0.22698   0.00000  Uiso   1.00
O1240  O     0.45724   0.67693   0.22698   0.00000  Uiso   1.00
O1241  O     0.04275   0.82307   0.77302   0.00000  Uiso   1.00
O1242  O     0.17692   0.54276   0.22698   0.00000  Uiso   1.00
O1243  O     0.32307   0.95725   0.77302   0.00000  Uiso   1.00
O1244  O     0.04275   0.82307   0.22698   0.00000  Uiso   1.00
O1245  O     0.25000   0.96963   0.33755   0.00000  Uiso   1.00
O1246  O     0.45724   0.67693   0.77302   0.00000  Uiso   1.00
O1247  O     0.32307   0.95725   0.22698   0.00000  Uiso   1.00
O1248  O     0.17692   0.54276   0.77302   0.00000  Uiso   1.00
O1249  O     0.09909   0.73634   0.46030   0.00000  Uiso   1.00
O1250  O     0.40096   0.76110   0.54028   0.00000  Uiso   1.00
O1251  O     0.26365   0.59909   0.46030   0.00000  Uiso   1.00
O1252  O     0.23890   0.90096   0.54028   0.00000  Uiso   1.00
O1253  O     0.40091   0.76366   0.46030   0.00000  Uiso   1.00
O1254  O     0.09903   0.73890   0.54028   0.00000  Uiso   1.00
O1255  O     0.23635   0.90091   0.46030   0.00000  Uiso   1.00
O1256  O     0.25000   0.53037   0.66245   0.00000  Uiso   1.00
O1257  O     0.26110   0.59904   0.54028   0.00000  Uiso   1.00
O1258  O     0.34909   0.98635   0.96030   0.00000  Uiso   1.00
O1259  O     0.15096   0.51110   0.04028   0.00000  Uiso   1.00
O1260  O     0.01365   0.84909   0.96030   0.00000  Uiso   1.00
O1261  O     0.48890   0.65096   0.04028   0.00000  Uiso   1.00
O1262  O     0.15091   0.51365   0.96030   0.00000  Uiso   1.00
O1263  O     0.34904   0.98890   0.04028   0.00000  Uiso   1.00
O1264  O     0.48635   0.65091   0.96030   0.00000  Uiso   1.00
O1265  O     0.01110   0.84903   0.04028   0.00000  Uiso   1.00
O1266  O     0.03036   0.75000   0.33755   0.00000  Uiso   1.00
O1267  O     0.46963   0.75000   0.66245   0.00000  Uiso   1.00
O1268  O     0.25000   0.53037   0.33755   0.00000  Uiso   1.00
Zn1269 Zn    0.20659   0.50000   0.21735   0.00000  Uiso   1.00
Zn1270 Zn    0.04340   0.75000   0.28265   0.00000  Uiso   1.00
Zn1271 Zn    0.25000   0.95659   0.71735   0.00000  Uiso   1.00
Zn1272 Zn    0.25000   0.54341   0.28265   0.00000  Uiso   1.00
Zn1273 Zn    0.04340   0.75000   0.71735   0.00000  Uiso   1.00
Zn1274 Zn    0.45659   0.75000   0.28265   0.00000  Uiso   1.00
Zn1275 Zn    0.25000   0.54341   0.71735   0.00000  Uiso   1.00
Zn1276 Zn    0.25000   0.95659   0.28265   0.00000  Uiso   1.00
Zn1277 Zn    0.29340   0.50000   0.78265   0.00000  Uiso   1.00
Zn1278 Zn   -0.00000   0.70660   0.21735   0.00000  Uiso   1.00
Zn1279 Zn   -0.00000   0.79341   0.78265   0.00000  Uiso   1.00
Zn1280 Zn    0.29340   0.50000   0.21735   0.00000  Uiso   1.00
Zn1281 Zn    0.20659   0.50000   0.78265   0.00000  Uiso   1.00
Zn1282 Zn    0.00000   0.79340   0.21735   0.00000  Uiso   1.00
Zn1283 Zn   -0.00000   0.70660   0.78265   0.00000  Uiso   1.00
Zn1284 Zn    0.45659   0.75000   0.71735   0.00000  Uiso   1.00
C1285  C     0.96713   0.75375   0.41870   0.00000  Uiso   1.00
C1286  C     0.78291   0.99652   0.08132   0.00000  Uiso   1.00
C1287  C     0.74649   0.96668   0.54077   0.00000  Uiso   1.00
C1288  C     0.96675   0.75436   0.45926   0.00000  Uiso   1.00
C1289  C     0.53332   0.74649   0.54077   0.00000  Uiso   1.00
C1290  C     0.74564   0.96675   0.45926   0.00000  Uiso   1.00
C1291  C     0.75351   0.53332   0.54077   0.00000  Uiso   1.00
C1292  C     0.78325   0.99564   0.95926   0.00000  Uiso   1.00
C1293  C     0.71668   0.50351   0.04077   0.00000  Uiso   1.00
C1294  C     0.50436   0.78325   0.95926   0.00000  Uiso   1.00
C1295  C     0.99649   0.71668   0.04077   0.00000  Uiso   1.00
C1296  C     0.71675   0.50436   0.95926   0.00000  Uiso   1.00
C1297  C     0.99625   0.71713   0.91870   0.00000  Uiso   1.00
C1298  C     0.78332   0.99649   0.04077   0.00000  Uiso   1.00
C1299  C     0.99564   0.71675   0.95926   0.00000  Uiso   1.00
C1300  C     0.50351   0.78332   0.04077   0.00000  Uiso   1.00
C1301  C     0.59813   0.84813   0.24999   0.00000  Uiso   1.00
C1302  C     0.90187   0.65187   0.74999   0.00000  Uiso   1.00
C1303  C     0.65187   0.59813   0.24999   0.00000  Uiso   1.00
C1304  C     0.84813   0.90187   0.74999   0.00000  Uiso   1.00
C1305  C     0.90187   0.65187   0.24999   0.00000  Uiso   1.00
C1306  C     0.59813   0.84813   0.74999   0.00000  Uiso   1.00
C1307  C     0.84813   0.90187   0.24999   0.00000  Uiso   1.00
C1308  C     0.50348   0.78291   0.08132   0.00000  Uiso   1.00
C1309  C     0.65187   0.59813   0.74999   0.00000  Uiso   1.00
C1310  C     0.59813   0.65187   0.74999   0.00000  Uiso   1.00
C1311  C     0.90187   0.84813   0.24999   0.00000  Uiso   1.00
C1312  C     0.65187   0.90187   0.74999   0.00000  Uiso   1.00
C1313  C     0.84813   0.59813   0.24999   0.00000  Uiso   1.00
C1314  C     0.90187   0.84813   0.74999   0.00000  Uiso   1.00
C1315  C     0.59813   0.65187   0.24999   0.00000  Uiso   1.00
C1316  C     0.84813   0.59813   0.74999   0.00000  Uiso   1.00
C1317  C     0.65187   0.90187   0.24999   0.00000  Uiso   1.00
C1318  C     0.50000   0.75000   0.47965   0.00000  Uiso   1.00
C1319  C     0.78287   0.99625   0.91870   0.00000  Uiso   1.00
C1320  C     0.50000   0.75000   0.52037   0.00000  Uiso   1.00
C1321  C     0.75000   0.50000   0.47965   0.00000  Uiso   1.00
C1322  C     0.75000   0.50000   0.52037   0.00000  Uiso   1.00
C1323  C     0.75000   0.50000   0.97964   0.00000  Uiso   1.00
C1324  C     0.75000   0.50000   0.02037   0.00000  Uiso   1.00
C1325  C     0.50000   0.75000   0.97964   0.00000  Uiso   1.00
C1326  C     0.50000   0.75000   0.02037   0.00000  Uiso   1.00
C1327  C     0.60339   0.69941   0.44893   0.00000  Uiso   1.00
C1328  C     0.62781   0.67916   0.47787   0.00000  Uiso   1.00
C1329  C     0.63693   0.64079   0.46361   0.00000  Uiso   1.00
C1330  C     0.71709   0.50348   0.08132   0.00000  Uiso   1.00
C1331  C     0.88404   0.72663   0.54355   0.00000  Uiso   1.00
C1332  C     0.84932   0.73067   0.56775   0.00000  Uiso   1.00
C1333  C     0.83046   0.69397   0.57382   0.00000  Uiso   1.00
C1334  C     0.80059   0.60340   0.44893   0.00000  Uiso   1.00
C1335  C     0.82084   0.62781   0.47787   0.00000  Uiso   1.00
C1336  C     0.85920   0.63693   0.46361   0.00000  Uiso   1.00
C1337  C     0.77338   0.88404   0.54355   0.00000  Uiso   1.00
C1338  C     0.76934   0.84933   0.56775   0.00000  Uiso   1.00
C1339  C     0.80604   0.83046   0.57382   0.00000  Uiso   1.00
C1340  C     0.89661   0.80059   0.44893   0.00000  Uiso   1.00
C1341  C     0.50375   0.78287   0.91870   0.00000  Uiso   1.00
C1342  C     0.87219   0.82084   0.47786   0.00000  Uiso   1.00
C1343  C     0.86307   0.85921   0.46361   0.00000  Uiso   1.00
C1344  C     0.61596   0.77337   0.54355   0.00000  Uiso   1.00
C1345  C     0.65067   0.76934   0.56775   0.00000  Uiso   1.00
C1346  C     0.66954   0.80603   0.57382   0.00000  Uiso   1.00
C1347  C     0.69941   0.89660   0.44893   0.00000  Uiso   1.00
C1348  C     0.67916   0.87219   0.47787   0.00000  Uiso   1.00
C1349  C     0.64080   0.86307   0.46361   0.00000  Uiso   1.00
C1350  C     0.72662   0.61596   0.54355   0.00000  Uiso   1.00
C1351  C     0.73066   0.65067   0.56775   0.00000  Uiso   1.00
C1352  C     0.99652   0.71709   0.08132   0.00000  Uiso   1.00
C1353  C     0.69396   0.66954   0.57382   0.00000  Uiso   1.00
C1354  C     0.85340   0.94941   0.94893   0.00000  Uiso   1.00
C1355  C     0.87781   0.92916   0.97787   0.00000  Uiso   1.00
C1356  C     0.88693   0.89080   0.96361   0.00000  Uiso   1.00
C1357  C     0.63404   0.97663   0.04355   0.00000  Uiso   1.00
C1358  C     0.59933   0.98066   0.06775   0.00000  Uiso   1.00
C1359  C     0.58046   0.94396   0.07382   0.00000  Uiso   1.00
C1360  C     0.55059   0.85340   0.94893   0.00000  Uiso   1.00
C1361  C     0.57084   0.87781   0.97787   0.00000  Uiso   1.00
C1362  C     0.60920   0.88693   0.96361   0.00000  Uiso   1.00
C1363  C     0.50000   0.75000   0.39844   0.00000  Uiso   1.00
C1364  C     0.52337   0.63404   0.04355   0.00000  Uiso   1.00
C1365  C     0.51934   0.59933   0.06775   0.00000  Uiso   1.00
C1366  C     0.55604   0.58046   0.07382   0.00000  Uiso   1.00
C1367  C     0.64660   0.55059   0.94893   0.00000  Uiso   1.00
C1368  C     0.62219   0.57084   0.97787   0.00000  Uiso   1.00
C1369  C     0.61307   0.60920   0.96361   0.00000  Uiso   1.00
C1370  C     0.86596   0.52338   0.04355   0.00000  Uiso   1.00
C1371  C     0.90067   0.51934   0.06776   0.00000  Uiso   1.00
C1372  C     0.91954   0.55604   0.07382   0.00000  Uiso   1.00
C1373  C     0.94941   0.64660   0.94893   0.00000  Uiso   1.00
C1374  C     0.50000   0.75000   0.60158   0.00000  Uiso   1.00
C1375  C     0.92916   0.62219   0.97787   0.00000  Uiso   1.00
C1376  C     0.89079   0.61307   0.96361   0.00000  Uiso   1.00
C1377  C     0.97663   0.86596   0.04355   0.00000  Uiso   1.00
C1378  C     0.98066   0.90067   0.06776   0.00000  Uiso   1.00
C1379  C     0.94396   0.91954   0.07382   0.00000  Uiso   1.00
C1380  C     0.75000   0.50000   0.39844   0.00000  Uiso   1.00
C1381  C     0.53291   0.74652   0.58132   0.00000  Uiso   1.00
C1382  C     0.75000   0.50000   0.60158   0.00000  Uiso   1.00
C1383  C     0.75000   0.50000   0.89844   0.00000  Uiso   1.00
C1384  C     0.75000   0.50000   0.10158   0.00000  Uiso   1.00
C1385  C     0.50000   0.75000   0.89844   0.00000  Uiso   1.00
C1386  C     0.50000   0.75000   0.10158   0.00000  Uiso   1.00
C1387  C     0.56628   0.74081   0.47975   0.00000  Uiso   1.00
C1388  C     0.93352   0.75701   0.52039   0.00000  Uiso   1.00
C1389  C     0.75919   0.56628   0.47975   0.00000  Uiso   1.00
C1390  C     0.74300   0.93352   0.52039   0.00000  Uiso   1.00
C1391  C     0.93372   0.75919   0.47975   0.00000  Uiso   1.00
C1392  C     0.74625   0.96713   0.41870   0.00000  Uiso   1.00
C1393  C     0.56648   0.74299   0.52039   0.00000  Uiso   1.00
C1394  C     0.74081   0.93372   0.47975   0.00000  Uiso   1.00
C1395  C     0.75700   0.56648   0.52039   0.00000  Uiso   1.00
C1396  C     0.81628   0.99081   0.97975   0.00000  Uiso   1.00
C1397  C     0.68352   0.50701   0.02039   0.00000  Uiso   1.00
C1398  C     0.50919   0.81628   0.97975   0.00000  Uiso   1.00
C1399  C     0.99299   0.68352   0.02039   0.00000  Uiso   1.00
C1400  C     0.68372   0.50919   0.97975   0.00000  Uiso   1.00
C1401  C     0.81648   0.99299   0.02039   0.00000  Uiso   1.00
C1402  C     0.99081   0.68372   0.97975   0.00000  Uiso   1.00
C1403  C     0.75347   0.53291   0.58132   0.00000  Uiso   1.00
C1404  C     0.50701   0.81648   0.02039   0.00000  Uiso   1.00
C1405  C     0.75000   0.50000   0.35598   0.00000  Uiso   1.00
C1406  C     0.75000   0.50000   0.64403   0.00000  Uiso   1.00
C1407  C     0.50000   0.75000   0.35598   0.00000  Uiso   1.00
C1408  C     0.50000   0.75000   0.64403   0.00000  Uiso   1.00
C1409  C     0.50000   0.75000   0.85598   0.00000  Uiso   1.00
C1410  C     0.50000   0.75000   0.14403   0.00000  Uiso   1.00
C1411  C     0.75000   0.50000   0.85598   0.00000  Uiso   1.00
C1412  C     0.75000   0.50000   0.14403   0.00000  Uiso   1.00
C1413  C     0.67994   0.57006   0.25000   0.00000  Uiso   1.00
C1414  C     0.53287   0.74625   0.41870   0.00000  Uiso   1.00
C1415  C     0.82006   0.92994   0.75000   0.00000  Uiso   1.00
C1416  C     0.92994   0.67994   0.25000   0.00000  Uiso   1.00
C1417  C     0.57006   0.82006   0.75000   0.00000  Uiso   1.00
C1418  C     0.82006   0.92994   0.25000   0.00000  Uiso   1.00
C1419  C     0.67994   0.57006   0.75000   0.00000  Uiso   1.00
C1420  C     0.57006   0.82006   0.25000   0.00000  Uiso   1.00
C1421  C     0.92994   0.67994   0.75000   0.00000  Uiso   1.00
C1422  C     0.67994   0.92994   0.75000   0.00000  Uiso   1.00
C1423  C     0.82006   0.57006   0.25000   0.00000  Uiso   1.00
C1424  C     0.92994   0.82006   0.75000   0.00000  Uiso   1.00
C1425  C     0.96709   0.75348   0.58132   0.00000  Uiso   1.00
C1426  C     0.57006   0.67994   0.25000   0.00000  Uiso   1.00
C1427  C     0.82006   0.57006   0.75000   0.00000  Uiso   1.00
C1428  C     0.67994   0.92994   0.25000   0.00000  Uiso   1.00
C1429  C     0.57006   0.67994   0.75000   0.00000  Uiso   1.00
C1430  C     0.92994   0.82006   0.25000   0.00000  Uiso   1.00
C1431  C     0.62236   0.90439   0.22423   0.00000  Uiso   1.00
C1432  C     0.87764   0.59562   0.77573   0.00000  Uiso   1.00
C1433  C     0.59561   0.62236   0.22423   0.00000  Uiso   1.00
C1434  C     0.90438   0.87764   0.77574   0.00000  Uiso   1.00
C1435  C     0.87764   0.59561   0.22423   0.00000  Uiso   1.00
C1436  C     0.75375   0.53287   0.41870   0.00000  Uiso   1.00
C1437  C     0.62236   0.90438   0.77573   0.00000  Uiso   1.00
C1438  C     0.90439   0.87764   0.22423   0.00000  Uiso   1.00
C1439  C     0.59562   0.62236   0.77573   0.00000  Uiso   1.00
C1440  C     0.62236   0.59562   0.77574   0.00000  Uiso   1.00
C1441  C     0.87764   0.90439   0.22423   0.00000  Uiso   1.00
C1442  C     0.59562   0.87764   0.77574   0.00000  Uiso   1.00
C1443  C     0.90438   0.62236   0.22423   0.00000  Uiso   1.00
C1444  C     0.87764   0.90438   0.77574   0.00000  Uiso   1.00
C1445  C     0.62236   0.59562   0.22423   0.00000  Uiso   1.00
C1446  C     0.90438   0.62236   0.77574   0.00000  Uiso   1.00
C1447  C     0.74652   0.96709   0.58132   0.00000  Uiso   1.00
C1448  C     0.59561   0.87764   0.22423   0.00000  Uiso   1.00
C1449  C     0.87236   0.65439   0.72423   0.00000  Uiso   1.00
C1450  C     0.62764   0.84562   0.27574   0.00000  Uiso   1.00
C1451  C     0.84561   0.87236   0.72423   0.00000  Uiso   1.00
C1452  C     0.65438   0.62764   0.27574   0.00000  Uiso   1.00
C1453  C     0.62764   0.84561   0.72423   0.00000  Uiso   1.00
C1454  C     0.87236   0.65438   0.27574   0.00000  Uiso   1.00
C1455  C     0.65439   0.62764   0.72423   0.00000  Uiso   1.00
C1456  C     0.84562   0.87236   0.27574   0.00000  Uiso   1.00
C1457  C     0.87236   0.84562   0.27574   0.00000  Uiso   1.00
C1458  C     0.71713   0.50375   0.91870   0.00000  Uiso   1.00
C1459  C     0.62764   0.65438   0.72423   0.00000  Uiso   1.00
C1460  C     0.84562   0.62764   0.27574   0.00000  Uiso   1.00
C1461  C     0.65438   0.87236   0.72423   0.00000  Uiso   1.00
C1462  C     0.62764   0.65438   0.27574   0.00000  Uiso   1.00
C1463  C     0.87236   0.84562   0.72423   0.00000  Uiso   1.00
C1464  C     0.65438   0.87236   0.27574   0.00000  Uiso   1.00
C1465  C     0.84561   0.62764   0.72423   0.00000  Uiso   1.00
C1466  C     0.53325   0.74564   0.45926   0.00000  Uiso   1.00
C1467  C     0.96668   0.75351   0.54077   0.00000  Uiso   1.00
C1468  C     0.75436   0.53325   0.45926   0.00000  Uiso   1.00
H1469  H     0.61991   0.92694   0.20407   0.00000  Uiso   1.00
H1470  H     0.88009   0.92694   0.20407   0.00000  Uiso   1.00
H1471  H     0.74250   0.64368   0.59652   0.00000  Uiso   1.00
H1472  H     0.74955   0.66977   0.55276   0.00000  Uiso   1.00
H1473  H     0.68201   0.67755   0.54547   0.00000  Uiso   1.00
H1474  H     0.69789   0.69449   0.59164   0.00000  Uiso   1.00
H1475  H     0.67472   0.65110   0.58920   0.00000  Uiso   1.00
H1476  H     0.86699   0.94933   0.92010   0.00000  Uiso   1.00
H1477  H     0.82710   0.93438   0.94515   0.00000  Uiso   1.00
H1478  H     0.90357   0.94470   0.98206   0.00000  Uiso   1.00
H1479  H     0.86364   0.92696   0.00626   0.00000  Uiso   1.00
H1480  H     0.86152   0.87485   0.95893   0.00000  Uiso   1.00
H1481  H     0.57306   0.88009   0.79590   0.00000  Uiso   1.00
H1482  H     0.90377   0.87654   0.98569   0.00000  Uiso   1.00
H1483  H     0.90257   0.89213   0.93602   0.00000  Uiso   1.00
H1484  H     0.65248   0.95670   0.05823   0.00000  Uiso   1.00
H1485  H     0.62645   0.96601   0.01435   0.00000  Uiso   1.00
H1486  H     0.60632   0.99251   0.09652   0.00000  Uiso   1.00
H1487  H     0.58023   0.99955   0.05276   0.00000  Uiso   1.00
H1488  H     0.57245   0.93202   0.04548   0.00000  Uiso   1.00
H1489  H     0.55551   0.94789   0.09164   0.00000  Uiso   1.00
H1490  H     0.59890   0.92473   0.08921   0.00000  Uiso   1.00
H1491  H     0.55067   0.86699   0.92010   0.00000  Uiso   1.00
H1492  H     0.92694   0.61991   0.20407   0.00000  Uiso   1.00
H1493  H     0.56562   0.82710   0.94515   0.00000  Uiso   1.00
H1494  H     0.55530   0.90357   0.98206   0.00000  Uiso   1.00
H1495  H     0.57304   0.86363   0.00626   0.00000  Uiso   1.00
H1496  H     0.62515   0.86152   0.95893   0.00000  Uiso   1.00
H1497  H     0.62346   0.90377   0.98569   0.00000  Uiso   1.00
H1498  H     0.60787   0.90257   0.93602   0.00000  Uiso   1.00
H1499  H     0.54329   0.65248   0.05823   0.00000  Uiso   1.00
H1500  H     0.53399   0.62645   0.01435   0.00000  Uiso   1.00
H1501  H     0.50749   0.60632   0.09652   0.00000  Uiso   1.00
H1502  H     0.50045   0.58023   0.05276   0.00000  Uiso   1.00
H1503  H     0.88009   0.92694   0.79590   0.00000  Uiso   1.00
H1504  H     0.56798   0.57245   0.04548   0.00000  Uiso   1.00
H1505  H     0.55210   0.55551   0.09163   0.00000  Uiso   1.00
H1506  H     0.57527   0.59890   0.08921   0.00000  Uiso   1.00
H1507  H     0.63301   0.55067   0.92010   0.00000  Uiso   1.00
H1508  H     0.67290   0.56562   0.94515   0.00000  Uiso   1.00
H1509  H     0.59643   0.55530   0.98206   0.00000  Uiso   1.00
H1510  H     0.63637   0.57304   0.00626   0.00000  Uiso   1.00
H1511  H     0.63848   0.62515   0.95893   0.00000  Uiso   1.00
H1512  H     0.59623   0.62346   0.98569   0.00000  Uiso   1.00
H1513  H     0.59743   0.60787   0.93602   0.00000  Uiso   1.00
H1514  H     0.61991   0.57306   0.20407   0.00000  Uiso   1.00
H1515  H     0.84752   0.54330   0.05822   0.00000  Uiso   1.00
H1516  H     0.87355   0.53399   0.01435   0.00000  Uiso   1.00
H1517  H     0.89367   0.50750   0.09652   0.00000  Uiso   1.00
H1518  H     0.91977   0.50045   0.05276   0.00000  Uiso   1.00
H1519  H     0.92755   0.56798   0.04547   0.00000  Uiso   1.00
H1520  H     0.94449   0.55211   0.09164   0.00000  Uiso   1.00
H1521  H     0.90110   0.57528   0.08920   0.00000  Uiso   1.00
H1522  H     0.94933   0.63301   0.92010   0.00000  Uiso   1.00
H1523  H     0.93438   0.67291   0.94515   0.00000  Uiso   1.00
H1524  H     0.94470   0.59643   0.98205   0.00000  Uiso   1.00
H1525  H     0.92694   0.61991   0.79590   0.00000  Uiso   1.00
H1526  H     0.92696   0.63636   0.00626   0.00000  Uiso   1.00
H1527  H     0.87485   0.63848   0.95893   0.00000  Uiso   1.00
H1528  H     0.87654   0.59623   0.98568   0.00000  Uiso   1.00
H1529  H     0.89213   0.59744   0.93602   0.00000  Uiso   1.00
H1530  H     0.95670   0.84752   0.05823   0.00000  Uiso   1.00
H1531  H     0.96601   0.87355   0.01435   0.00000  Uiso   1.00
H1532  H     0.99250   0.89368   0.09652   0.00000  Uiso   1.00
H1533  H     0.99955   0.91977   0.05276   0.00000  Uiso   1.00
H1534  H     0.93202   0.92755   0.04547   0.00000  Uiso   1.00
H1535  H     0.94789   0.94449   0.09164   0.00000  Uiso   1.00
H1536  H     0.57306   0.88009   0.20407   0.00000  Uiso   1.00
H1537  H     0.92472   0.90110   0.08920   0.00000  Uiso   1.00
H1538  H     0.86991   0.67694   0.70406   0.00000  Uiso   1.00
H1539  H     0.63010   0.82306   0.29589   0.00000  Uiso   1.00
H1540  H     0.82306   0.86991   0.70407   0.00000  Uiso   1.00
H1541  H     0.88010   0.57306   0.79589   0.00000  Uiso   1.00
H1542  H     0.67694   0.63010   0.29589   0.00000  Uiso   1.00
H1543  H     0.63009   0.82306   0.70406   0.00000  Uiso   1.00
H1544  H     0.86990   0.67694   0.29589   0.00000  Uiso   1.00
H1545  H     0.67694   0.63009   0.70406   0.00000  Uiso   1.00
H1546  H     0.82306   0.86990   0.29589   0.00000  Uiso   1.00
H1547  H     0.86991   0.82306   0.29590   0.00000  Uiso   1.00
H1548  H     0.63009   0.67694   0.70407   0.00000  Uiso   1.00
H1549  H     0.82306   0.63009   0.29590   0.00000  Uiso   1.00
H1550  H     0.67694   0.86991   0.70407   0.00000  Uiso   1.00
H1551  H     0.63009   0.67694   0.29590   0.00000  Uiso   1.00
H1552  H     0.57306   0.61991   0.20407   0.00000  Uiso   1.00
H1553  H     0.86991   0.82306   0.70407   0.00000  Uiso   1.00
H1554  H     0.67694   0.86991   0.29590   0.00000  Uiso   1.00
H1555  H     0.82306   0.63009   0.70407   0.00000  Uiso   1.00
H1556  H     0.94182   0.75643   0.40270   0.00000  Uiso   1.00
H1557  H     0.55822   0.74367   0.59729   0.00000  Uiso   1.00
H1558  H     0.74357   0.94182   0.40270   0.00000  Uiso   1.00
H1559  H     0.75633   0.55822   0.59729   0.00000  Uiso   1.00
H1560  H     0.55818   0.74357   0.40270   0.00000  Uiso   1.00
H1561  H     0.94178   0.75633   0.59729   0.00000  Uiso   1.00
H1562  H     0.75643   0.55818   0.40270   0.00000  Uiso   1.00
H1563  H     0.92694   0.88010   0.79589   0.00000  Uiso   1.00
H1564  H     0.74367   0.94178   0.59729   0.00000  Uiso   1.00
H1565  H     0.69182   0.50643   0.90270   0.00000  Uiso   1.00
H1566  H     0.80822   0.99367   0.09729   0.00000  Uiso   1.00
H1567  H     0.99357   0.69182   0.90270   0.00000  Uiso   1.00
H1568  H     0.50633   0.80822   0.09729   0.00000  Uiso   1.00
H1569  H     0.80818   0.99357   0.90270   0.00000  Uiso   1.00
H1570  H     0.69178   0.50633   0.09729   0.00000  Uiso   1.00
H1571  H     0.50643   0.80818   0.90270   0.00000  Uiso   1.00
H1572  H     0.99367   0.69178   0.09729   0.00000  Uiso   1.00
H1573  H     0.61699   0.69933   0.42010   0.00000  Uiso   1.00
H1574  H     0.88009   0.57306   0.20407   0.00000  Uiso   1.00
H1575  H     0.57709   0.68437   0.44515   0.00000  Uiso   1.00
H1576  H     0.65357   0.69470   0.48205   0.00000  Uiso   1.00
H1577  H     0.61363   0.67696   0.50625   0.00000  Uiso   1.00
H1578  H     0.61151   0.62485   0.45893   0.00000  Uiso   1.00
H1579  H     0.65377   0.62653   0.48568   0.00000  Uiso   1.00
H1580  H     0.65256   0.64212   0.43602   0.00000  Uiso   1.00
H1581  H     0.90247   0.70671   0.55824   0.00000  Uiso   1.00
H1582  H     0.87645   0.71601   0.51435   0.00000  Uiso   1.00
H1583  H     0.85631   0.74252   0.59651   0.00000  Uiso   1.00
H1584  H     0.83022   0.74955   0.55275   0.00000  Uiso   1.00
H1585  H     0.61990   0.92694   0.79589   0.00000  Uiso   1.00
H1586  H     0.82245   0.68202   0.54547   0.00000  Uiso   1.00
H1587  H     0.80550   0.69791   0.59163   0.00000  Uiso   1.00
H1588  H     0.84889   0.67474   0.58921   0.00000  Uiso   1.00
H1589  H     0.80066   0.61699   0.42010   0.00000  Uiso   1.00
H1590  H     0.81562   0.57710   0.44515   0.00000  Uiso   1.00
H1591  H     0.80530   0.65357   0.48206   0.00000  Uiso   1.00
H1592  H     0.82304   0.61364   0.50626   0.00000  Uiso   1.00
H1593  H     0.87515   0.61152   0.45893   0.00000  Uiso   1.00
H1594  H     0.87346   0.65377   0.48569   0.00000  Uiso   1.00
H1595  H     0.85787   0.65257   0.43602   0.00000  Uiso   1.00
H1596  H     0.92694   0.88009   0.20407   0.00000  Uiso   1.00
H1597  H     0.79330   0.90248   0.55823   0.00000  Uiso   1.00
H1598  H     0.78399   0.87645   0.51435   0.00000  Uiso   1.00
H1599  H     0.75750   0.85632   0.59652   0.00000  Uiso   1.00
H1600  H     0.75045   0.83023   0.55276   0.00000  Uiso   1.00
H1601  H     0.81798   0.82245   0.54547   0.00000  Uiso   1.00
H1602  H     0.80211   0.80551   0.59163   0.00000  Uiso   1.00
H1603  H     0.82528   0.84890   0.58920   0.00000  Uiso   1.00
H1604  H     0.88302   0.80067   0.42010   0.00000  Uiso   1.00
H1605  H     0.92291   0.81563   0.44515   0.00000  Uiso   1.00
H1606  H     0.84643   0.80530   0.48205   0.00000  Uiso   1.00
H1607  H     0.57306   0.61990   0.79589   0.00000  Uiso   1.00
H1608  H     0.88636   0.82304   0.50625   0.00000  Uiso   1.00
H1609  H     0.88848   0.87515   0.45893   0.00000  Uiso   1.00
H1610  H     0.84623   0.87347   0.48568   0.00000  Uiso   1.00
H1611  H     0.84744   0.85788   0.43602   0.00000  Uiso   1.00
H1612  H     0.59753   0.79329   0.55823   0.00000  Uiso   1.00
H1613  H     0.62355   0.78398   0.51435   0.00000  Uiso   1.00
H1614  H     0.64368   0.75749   0.59652   0.00000  Uiso   1.00
H1615  H     0.66977   0.75045   0.55276   0.00000  Uiso   1.00
H1616  H     0.67755   0.81798   0.54547   0.00000  Uiso   1.00
H1617  H     0.69449   0.80210   0.59163   0.00000  Uiso   1.00
H1618  H     0.61991   0.57306   0.79590   0.00000  Uiso   1.00
H1619  H     0.65110   0.82527   0.58920   0.00000  Uiso   1.00
H1620  H     0.69933   0.88301   0.42010   0.00000  Uiso   1.00
H1621  H     0.68438   0.92290   0.44515   0.00000  Uiso   1.00
H1622  H     0.69470   0.84643   0.48206   0.00000  Uiso   1.00
H1623  H     0.67696   0.88636   0.50626   0.00000  Uiso   1.00
H1624  H     0.62485   0.88848   0.45893   0.00000  Uiso   1.00
H1625  H     0.62654   0.84622   0.48569   0.00000  Uiso   1.00
H1626  H     0.64213   0.84743   0.43602   0.00000  Uiso   1.00
H1627  H     0.70670   0.59752   0.55823   0.00000  Uiso   1.00
H1628  H     0.71601   0.62355   0.51435   0.00000  Uiso   1.00
O1629  O     0.75000   0.50000   0.25000   0.00000  Uiso   1.00
O1630  O     0.75000   0.96963   0.66245   0.00000  Uiso   1.00
O1631  O     0.96963   0.75000   0.33755   0.00000  Uiso   1.00
O1632  O     0.53036   0.75000   0.66245   0.00000  Uiso   1.00
O1633  O     0.50000   0.71964   0.83755   0.00000  Uiso   1.00
O1634  O     0.50000   0.78037   0.16245   0.00000  Uiso   1.00
O1635  O     0.78036   0.50000   0.83755   0.00000  Uiso   1.00
O1636  O     0.71963   0.50000   0.16245   0.00000  Uiso   1.00
O1637  O     0.50000   0.78037   0.83755   0.00000  Uiso   1.00
O1638  O     0.50000   0.71964   0.16245   0.00000  Uiso   1.00
O1639  O     0.71963   0.50000   0.83755   0.00000  Uiso   1.00
O1640  O     0.75000   0.50000   0.75000   0.00000  Uiso   1.00
O1641  O     0.78036   0.50000   0.16245   0.00000  Uiso   1.00
O1642  O     0.70724   0.57308   0.27302   0.00000  Uiso   1.00
O1643  O     0.79275   0.92693   0.72698   0.00000  Uiso   1.00
O1644  O     0.92692   0.70725   0.27302   0.00000  Uiso   1.00
O1645  O     0.57307   0.79275   0.72698   0.00000  Uiso   1.00
O1646  O     0.79275   0.92693   0.27302   0.00000  Uiso   1.00
O1647  O     0.70724   0.57308   0.72698   0.00000  Uiso   1.00
O1648  O     0.57307   0.79275   0.27302   0.00000  Uiso   1.00
O1649  O     0.92692   0.70725   0.72698   0.00000  Uiso   1.00
O1650  O     0.70724   0.92692   0.72698   0.00000  Uiso   1.00
O1651  O     0.50000   0.75000   0.25000   0.00000  Uiso   1.00
O1652  O     0.79275   0.57308   0.27302   0.00000  Uiso   1.00
O1653  O     0.92692   0.79276   0.72698   0.00000  Uiso   1.00
O1654  O     0.57307   0.70724   0.27302   0.00000  Uiso   1.00
O1655  O     0.79275   0.57308   0.72698   0.00000  Uiso   1.00
O1656  O     0.70724   0.92692   0.27302   0.00000  Uiso   1.00
O1657  O     0.57307   0.70724   0.72698   0.00000  Uiso   1.00
O1658  O     0.92692   0.79276   0.27302   0.00000  Uiso   1.00
O1659  O     0.95724   0.82308   0.77302   0.00000  Uiso   1.00
O1660  O     0.54275   0.67692   0.22698   0.00000  Uiso   1.00
O1661  O     0.67692   0.95724   0.77302   0.00000  Uiso   1.00
O1662  O     0.50000   0.75000   0.75000   0.00000  Uiso   1.00
O1663  O     0.82307   0.54276   0.22698   0.00000  Uiso   1.00
O1664  O     0.54275   0.67692   0.77302   0.00000  Uiso   1.00
O1665  O     0.95724   0.82308   0.22698   0.00000  Uiso   1.00
O1666  O     0.82307   0.54276   0.77302   0.00000  Uiso   1.00
O1667  O     0.67692   0.95724   0.22698   0.00000  Uiso   1.00
O1668  O     0.95724   0.67693   0.22698   0.00000  Uiso   1.00
O1669  O     0.54275   0.82307   0.77302   0.00000  Uiso   1.00
O1670  O     0.67692   0.54276   0.22698   0.00000  Uiso   1.00
O1671  O     0.82307   0.95725   0.77302   0.00000  Uiso   1.00
O1672  O     0.54275   0.82307   0.22698   0.00000  Uiso   1.00
O1673  O     0.75000   0.96963   0.33755   0.00000  Uiso   1.00
O1674  O     0.95724   0.67693   0.77302   0.00000  Uiso   1.00
O1675  O     0.82307   0.95725   0.22698   0.00000  Uiso   1.00
O1676  O     0.67692   0.54276   0.77302   0.00000  Uiso   1.00
O1677  O     0.59909   0.73634   0.46030   0.00000  Uiso   1.00
O1678  O     0.90096   0.76110   0.54028   0.00000  Uiso   1.00
O1679  O     0.76365   0.59909   0.46030   0.00000  Uiso   1.00
O1680  O     0.73890   0.90096   0.54028   0.00000  Uiso   1.00
O1681  O     0.90091   0.76366   0.46030   0.00000  Uiso   1.00
O1682  O     0.59903   0.73890   0.54028   0.00000  Uiso   1.00
O1683  O     0.73635   0.90091   0.46030   0.00000  Uiso   1.00
O1684  O     0.75000   0.53037   0.66245   0.00000  Uiso   1.00
O1685  O     0.76110   0.59904   0.54028   0.00000  Uiso   1.00
O1686  O     0.84909   0.98635   0.96030   0.00000  Uiso   1.00
O1687  O     0.65096   0.51110   0.04028   0.00000  Uiso   1.00
O1688  O     0.51365   0.84909   0.96030   0.00000  Uiso   1.00
O1689  O     0.98890   0.65096   0.04028   0.00000  Uiso   1.00
O1690  O     0.65091   0.51365   0.96030   0.00000  Uiso   1.00
O1691  O     0.84904   0.98890   0.04028   0.00000  Uiso   1.00
O1692  O     0.98635   0.65091   0.96030   0.00000  Uiso   1.00
O1693  O     0.51110   0.84903   0.04028   0.00000  Uiso   1.00
O1694  O     0.53036   0.75000   0.33755   0.00000  Uiso   1.00
O1695  O     0.96963   0.75000   0.66245   0.00000  Uiso   1.00
O1696  O     0.75000   0.53037   0.33755   0.00000  Uiso   1.00
Zn1697 Zn    0.70659   0.50000   0.21735   0.00000  Uiso   1.00
Zn1698 Zn    0.54340   0.75000   0.28265   0.00000  Uiso   1.00
Zn1699 Zn    0.75000   0.95659   0.71735   0.00000  Uiso   1.00
Zn1700 Zn    0.75000   0.54341   0.28265   0.00000  Uiso   1.00
Zn1701 Zn    0.54340   0.75000   0.71735   0.00000  Uiso   1.00
Zn1702 Zn    0.95659   0.75000   0.28265   0.00000  Uiso   1.00
Zn1703 Zn    0.75000   0.54341   0.71735   0.00000  Uiso   1.00
Zn1704 Zn    0.75000   0.95659   0.28265   0.00000  Uiso   1.00
Zn1705 Zn    0.79340   0.50000   0.78265   0.00000  Uiso   1.00
Zn1706 Zn    0.50000   0.70660   0.21735   0.00000  Uiso   1.00
Zn1707 Zn    0.50000   0.79341   0.78265   0.00000  Uiso   1.00
Zn1708 Zn    0.79340   0.50000   0.21735   0.00000  Uiso   1.00
Zn1709 Zn    0.70659   0.50000   0.78265   0.00000  Uiso   1.00
Zn1710 Zn    0.50000   0.79340   0.21735   0.00000  Uiso   1.00
Zn1711 Zn    0.50000   0.70660   0.78265   0.00000  Uiso   1.00
Zn1712 Zn    0.95659   0.75000   0.71735   0.00000  Uiso   1.00
loop_
_geom_bond_atom_site_label_1
_geom_bond_atom_site_label_2
_geom_bond_distance
_geom_bond_site_symmetry_2
_ccdc_geom_bond_type
C1     H272    1.083   .     S
C1     C507    1.399   .     A
C1     C4      1.397   .     A
C2     C14     1.397   .     A
C2     H282    1.083   .     S
C2     C956    1.399   .     S
C3     C163    1.397   .     A
C3     C106    1.409   .     A
C3     C894    1.414   .     A
C4     C107    1.412   .     A
C4     C462    1.415   .     A
C5     C97     1.397   .     A
C5     C109    1.409   .     A
C5     C36     1.414   .     S
C6     C110    1.412   .     A
C6     C893    1.415   .     A
C6     C108    1.397   .     A
C7     C119    1.397   .     A
C7     C111    1.409   .     A
C7     C38     1.414   .     S
C8     C35     1.397   .     A
C8     C112    1.412   .     A
C8     C895    1.415   .     S
C9     C46     1.397   .     A
C9     C40     1.414   .     A
C9     C113    1.409   .     A
C10    C114    1.412   .     A
C10    C57     1.397   .     A
C10    C41     1.415   .     S
C11    C115    1.409   .     A
C11    C68     1.397   .     A
C11    C470    1.414   .     A
C12    C174    1.397   .     A
C12    C116    1.412   .     A
C12    C39     1.415   .     A
C13    H283    1.083   .     S
C13    C15     1.397   .     A
C13    C529    1.399   .     A
C14    C117    1.409   .     A
C14    C896    1.414   .     S
C15    C118    1.412   .     A
C15    C469    1.415   .     A
C16    C120    1.409   .     A
C16    C24     1.397   .     A
C16    C42     1.414   .     S
C17    C164    1.402   .     A
C17    C166    1.402   .     A
C17    C136    1.454   .     S
C18    C137    1.454   .     S
C18    C165    1.402   .     A
C18    C162    1.402   .     A
C19    C129    1.454   .     S
C19    C161    1.402   .     A
C19    C168    1.402   .     A
C20    C160    1.402   .     A
C20    C167    1.402   .     A
C20    C131    1.454   .     S
C21    C170    1.402   .     A
C21    C132    1.454   .     S
C21    C159    1.402   .     A
C22    C133    1.454   .     S
C22    C158    1.402   .     A
C22    C169    1.402   .     A
C23    C134    1.454   .     S
C23    C157    1.402   .     A
C23    C172    1.402   .     A
C24    H284    1.083   .     S
C24    C102    1.399   .     S
C25    C171    1.402   .     A
C25    C156    1.402   .     A
C25    C135    1.454   .     S
C26    C155    1.402   .     A
C26    C145    1.454   .     S
C26    C175    1.402   .     A
C27    C154    1.402   .     A
C27    C146    1.454   .     S
C27    C173    1.402   .     A
C28    C153    1.402   .     A
C28    C177    1.402   .     A
C28    C138    1.454   .     S
C29    C151    1.402   .     A
C29    C176    1.402   .     A
C29    C139    1.454   .     S
C30    C150    1.402   .     A
C30    C179    1.402   .     A
C30    C140    1.454   .     S
C31    C178    1.402   .     A
C31    C149    1.402   .     A
C31    C142    1.454   .     S
C32    C181    1.402   .     A
C32    C148    1.402   .     A
C32    C143    1.454   .     S
C33    C147    1.402   .     A
C33    C144    1.454   .     S
C33    C180    1.402   .     A
C34    C36     1.403   .     A
C34    C432    1.415   1_455 A
C34    C182    1.415   .     S
C35    H285    1.083   .     S
C35    C955    1.399   .     A
C36    C611    1.414   1_455 A
C37    C38     1.403   .     A
C37    C862    1.415   1_545 A
C37    C184    1.415   .     S
C38    C859    1.414   1_545 A
C39    C864    1.415   1_545 S
C39    C40     1.403   1_556 S
C40    C870    1.414   1_545 S
C40    C39     1.403   1_554 S
C41    C443    1.415   1_455 A
C41    C42     1.403   1_556 S
C42    C439    1.414   1_455 A
C42    C41     1.403   1_554 S
C43    C44     1.531   .     S
C43    H291    1.117   .     S
C43    O393    1.417   .     S
C43    H289    1.111   .     S
C44    C45     1.526   .     S
C44    H293    1.110   .     S
C44    H292    1.111   .     S
C45    H295    1.110   .     S
C45    H294    1.111   .     S
C45    H296    1.111   .     S
C46    H286    1.083   .     S
C46    C100    1.399   .     A
C47    O394    1.412   .     S
C47    H298    1.114   .     S
C47    H297    1.116   .     S
C47    C48     1.528   .     S
C48    H300    1.112   .     S
C48    C49     1.526   .     S
C48    H299    1.112   .     S
C49    H302    1.110   .     S
C49    H304    1.111   .     S
C49    H303    1.110   .     S
C50    H305    1.111   .     S
C50    H306    1.117   .     S
C50    C51     1.531   .     S
C50    O395    1.417   .     S
C51    C52     1.526   .     S
C51    H308    1.110   .     S
C51    H307    1.111   .     S
C52    H310    1.110   .     S
C52    H309    1.111   .     S
C52    H311    1.111   .     S
C53    O396    1.412   .     S
C53    C54     1.528   .     S
C53    H314    1.114   .     S
C53    H313    1.116   .     S
C54    H316    1.111   .     S
C54    C55     1.526   .     S
C54    H315    1.112   .     S
C55    H317    1.110   .     S
C55    H318    1.110   .     S
C55    H319    1.111   .     S
C56    H321    1.117   .     S
C56    C58     1.531   .     S
C56    O397    1.417   .     S
C56    H320    1.111   .     S
C57    H287    1.083   .     S
C57    C101    1.399   .     S
C58    H324    1.110   .     S
C58    H322    1.111   .     S
C58    C59     1.526   .     S
C59    H326    1.110   .     S
C59    H327    1.111   .     S
C59    H325    1.111   .     S
C60    H328    1.116   .     S
C60    C61     1.528   .     S
C60    H329    1.114   .     S
C60    O398    1.412   .     S
C61    C62     1.526   .     S
C61    H330    1.112   .     S
C61    H331    1.112   .     S
C62    H332    1.110   .     S
C62    H335    1.111   .     S
C62    H333    1.110   .     S
C63    O399    1.417   .     S
C63    H337    1.117   .     S
C63    C64     1.531   .     S
C63    H336    1.111   .     S
C64    H339    1.110   .     S
C64    H338    1.111   .     S
C64    C65     1.526   .     S
C65    H342    1.111   .     S
C65    H341    1.110   .     S
C65    H340    1.111   .     S
C66    C67     1.528   .     S
C66    O401    1.411   .     S
C66    H343    1.116   .     S
C66    H344    1.114   .     S
C67    H187    1.112   .     S
C67    H188    1.112   .     S
C67    C69     1.526   .     S
C68    C530    1.399   .     A
C68    H288    1.083   .     S
C69    H190    1.110   .     S
C69    H191    1.111   .     S
C69    H189    1.110   .     S
C70    H192    1.111   .     S
C70    H193    1.117   .     S
C70    O402    1.417   .     S
C70    C71     1.531   .     S
C71    H194    1.111   .     S
C71    C72     1.526   .     S
C71    H195    1.110   1_556 S
C72    H196    1.111   .     S
C72    H199    1.111   .     S
C72    H198    1.110   .     S
C73    C74     1.528   .     S
C73    H201    1.114   .     S
C73    H200    1.116   .     S
C73    O1259   1.411   .     S
C74    H203    1.111   .     S
C74    H202    1.112   .     S
C74    C75     1.526   .     S
C75    H205    1.110   .     S
C75    H206    1.111   .     S
C75    H204    1.110   .     S
C76    C77     1.531   .     S
C76    H209    1.117   .     S
C76    O404    1.417   .     S
C76    H207    1.111   .     S
C77    H210    1.111   .     S
C77    C78     1.526   .     S
C77    H211    1.110   1_556 S
C78    H214    1.111   .     S
C78    H212    1.111   .     S
C78    H213    1.110   .     S
C79    C429    1.399   1_455 A
C79    C123    1.463   .     S
C79    C130    1.399   .     S
C80    H216    1.114   .     S
C80    H215    1.116   .     S
C80    C81     1.528   .     S
C80    O833    1.412   1_455 S
C81    H217    1.112   .     S
C81    C82     1.526   .     S
C81    H218    1.112   .     S
C82    H222    1.111   .     S
C82    H220    1.110   .     S
C82    H221    1.110   .     S
C83    H223    1.111   .     S
C83    C84     1.531   .     S
C83    O406    1.417   .     S
C83    H224    1.117   .     S
C84    H225    1.111   .     S
C84    C85     1.526   .     S
C84    H226    1.110   1_556 S
C85    H229    1.111   .     S
C85    H228    1.110   .     S
C85    H227    1.111   .     S
C86    H231    1.116   .     S
C86    H232    1.114   .     S
C86    C87     1.528   .     S
C86    O1263   1.412   1_545 S
C87    H233    1.112   .     S
C87    C88     1.526   .     S
C87    H234    1.112   .     S
C88    H236    1.110   .     S
C88    H235    1.110   .     S
C88    H237    1.111   .     S
C89    H238    1.111   .     S
C89    C91     1.531   .     S
C89    H239    1.117   .     S
C89    O408    1.417   .     S
C90    C569    1.399   1_455 A
C90    C124    1.462   .     S
C90    C97     1.399   .     S
C91    C92     1.526   .     S
C91    H240    1.111   .     S
C91    H242    1.110   1_556 S
C92    H243    1.111   .     S
C92    H245    1.111   .     S
C92    H244    1.110   .     S
C93    H247    1.114   .     S
C93    H246    1.116   .     S
C93    C94     1.528   .     S
C93    O837    1.411   .     S
C94    H248    1.112   .     S
C94    C95     1.526   .     S
C94    H249    1.112   .     S
C95    H253    1.111   .     S
C95    H250    1.110   .     S
C95    H251    1.110   .     S
C96    C964    1.399   1_545 A
C96    C121    1.463   .     S
C96    C152    1.399   .     S
C97    H273    1.083   .     S
C98    C122    1.462   .     S
C98    C1019   1.399   1_545 A
C98    C119    1.399   .     S
C99    C127    1.463   .     S
C99    C891    1.399   1_545 A
C99    C174    1.399   .     S
C100   C128    1.462   .     S
C100   C858    1.399   1_545 S
C101   C441    1.399   1_455 A
C101   C125    1.463   .     S
C102   C126    1.462   .     S
C102   C496    1.399   1_455 A
C103   O393    1.386   .     S
C103   C109    1.402   .     A
C103   C182    1.412   .     A
C104   C183    1.409   .     A
C104   C107    1.402   .     A
C104   O394    1.384   .     S
C105   C184    1.412   .     A
C105   O395    1.386   .     S
C105   C111    1.402   .     A
C106   O396    1.384   .     S
C106   C110    1.402   .     A
C107   O397    1.386   .     S
C108   C952    1.399   .     A
C108   H274    1.083   .     S
C109   O398    1.384   .     S
C110   O399    1.386   .     S
C111   O401    1.384   .     S
C112   O402    1.386   .     S
C112   C117    1.402   1_556 S
C113   O403    1.384   .     S
C113   C116    1.402   1_554 S
C114   O404    1.386   .     S
C114   C120    1.402   1_556 S
C115   O405    1.384   .     S
C115   C118    1.402   1_554 S
C116   O406    1.386   .     S
C116   C113    1.402   1_556 S
C117   O407    1.384   .     S
C117   C112    1.402   1_554 S
C118   O408    1.386   .     S
C118   C115    1.402   1_556 S
C119   H275    1.083   .     S
C120   O409    1.384   .     S
C120   C114    1.402   1_554 S
C121   O412    1.281   .     A
C121   O1245   1.281   1_545 S
C122   O1202   1.281   1_545 A
C122   O400    1.281   .     S
C123   O410    1.281   .     A
C123   O775    1.281   1_455 S
C124   O839    1.281   1_455 A
C124   O348    1.281   .     S
C125   O349    1.281   .     S
C125   O353    1.281   .     S
C126   O350    1.281   .     A
C126   O354    1.281   .     A
C127   O351    1.281   .     S
C127   O355    1.281   .     S
C128   O352    1.281   .     A
C128   O357    1.281   .     A
C129   O386    1.281   .     A
C129   O358    1.281   .     A
C130   H276    1.083   .     S
C130   C182    1.397   .     A
C131   O387    1.281   .     A
C131   O359    1.281   .     A
C132   O360    1.281   .     A
C132   O384    1.281   .     A
C133   O385    1.281   .     A
C133   O361    1.281   .     A
C134   O391    1.281   .     A
C134   O362    1.281   .     A
C135   O392    1.281   .     A
C135   O363    1.281   .     A
C136   O388    1.281   .     A
C136   O364    1.281   .     A
C137   O390    1.281   .     A
C137   O365    1.281   .     A
C138   O366    1.281   .     A
C138   O377    1.281   .     A
C139   O379    1.281   .     A
C139   O368    1.281   .     A
C140   O375    1.281   .     A
C140   O369    1.281   .     A
C141   C518    1.399   .     A
C141   C183    1.397   .     A
C141   H277    1.083   .     S
C142   O370    1.281   .     A
C142   O376    1.281   .     A
C143   O371    1.281   .     A
C143   O382    1.281   .     A
C144   O383    1.281   .     A
C144   O372    1.281   .     A
C145   O380    1.281   .     A
C145   O373    1.281   .     A
C146   O374    1.281   .     A
C146   O381    1.281   .     A
C147   C164    1.386   .     A
C147   H185    1.083   .     S
C148   C162    1.385   .     A
C148   H257    1.083   .     S
C149   C161    1.386   .     A
C149   H268    1.083   .     S
C150   H279    1.083   .     S
C150   C160    1.385   .     A
C151   C159    1.386   .     A
C151   H290    1.083   .     S
C152   H278    1.083   .     S
C152   C184    1.397   .     A
C153   C158    1.385   .     A
C153   H301    1.083   .     S
C154   H312    1.083   .     S
C154   C157    1.386   .     A
C155   C156    1.385   .     A
C155   H323    1.083   .     S
C156   H334    1.083   .     S
C157   H186    1.083   .     S
C158   H197    1.083   .     S
C159   H208    1.083   .     S
C160   H219    1.083   .     S
C161   H230    1.083   .     S
C162   H241    1.083   .     S
C163   C954    1.399   .     A
C163   H280    1.083   .     S
C164   H252    1.083   .     S
C165   H254    1.083   .     S
C165   C181    1.386   .     A
C166   H255    1.083   .     S
C166   C180    1.385   .     A
C167   C179    1.386   .     A
C167   H256    1.083   .     S
C168   H258    1.083   .     S
C168   C178    1.385   .     A
C169   C177    1.386   .     A
C169   H259    1.083   .     S
C170   C176    1.385   .     A
C170   H260    1.083   .     S
C171   H261    1.083   .     S
C171   C175    1.386   .     A
C172   C173    1.385   .     A
C172   H262    1.083   .     S
C173   H263    1.083   .     S
C174   H281    1.083   .     S
C175   H264    1.083   .     S
C176   H265    1.083   .     S
C177   H266    1.083   .     S
C178   H267    1.083   .     S
C179   H269    1.083   .     S
C180   H270    1.083   .     S
C181   H271    1.083   .     S
C183   C464    1.414   .     A
H195   C71     1.110   1_554 S
H211   C77     1.110   1_554 S
H226   C84     1.110   1_554 S
H242   C91     1.110   1_554 S
O345   Zn416   1.948   .     S
O345   Zn413   1.948   .     S
O345   Zn424   1.948   .     S
O345   Zn1276  1.948   1_545 S
O346   Zn415   1.951   .     S
O346   C978    1.281   .     A
O347   Zn418   1.951   .     S
O347   C551    1.281   .     S
O348   Zn417   1.951   .     S
O349   Zn427   1.951   .     S
O350   Zn426   1.951   .     S
O351   Zn421   1.951   .     S
O352   Zn413   1.951   .     S
O353   Zn423   1.951   .     S
O354   Zn422   1.951   .     S
O355   Zn425   1.951   .     S
O356   Zn425   1.948   .     S
O356   Zn419   1.948   .     S
O356   Zn421   1.948   .     S
O356   Zn1271  1.948   1_545 S
O357   Zn424   1.951   .     S
O358   Zn416   1.935   .     S
O359   Zn415   1.935   .     S
O360   Zn418   1.935   .     S
O361   Zn417   1.935   .     S
O362   Zn420   1.935   .     S
O363   Zn419   1.935   .     S
O364   Zn414   1.935   .     S
O365   Zn428   1.935   .     S
O366   Zn415   1.935   .     S
O367   Zn426   1.948   .     S
O367   Zn414   1.948   .     S
O367   Zn846   1.948   1_455 S
O367   Zn422   1.948   .     S
O368   Zn416   1.935   .     S
O369   Zn428   1.935   .     S
O370   Zn414   1.935   .     S
O371   Zn419   1.935   .     S
O372   Zn420   1.935   .     S
O373   Zn417   1.935   .     S
O374   Zn418   1.935   .     S
O375   Zn851   1.935   .     S
O376   Zn422   1.935   .     S
O377   Zn1281  1.935   .     S
O378   Zn417   1.948   .     S
O378   Zn423   1.948   .     S
O378   Zn427   1.948   .     S
O378   Zn856   1.948   1_455 S
O379   Zn424   1.935   .     S
O380   Zn427   1.935   .     S
O381   Zn854   1.935   .     S
O382   Zn421   1.935   .     S
O383   Zn1269  1.935   .     S
O384   Zn850   1.935   .     S
O385   Zn423   1.935   .     S
O386   Zn413   1.935   .     S
O387   Zn1277  1.935   .     S
O388   Zn426   1.935   .     S
O389   Zn420   1.951   .     S
O389   C977    1.281   .     S
O390   Zn855   1.935   .     S
O391   Zn1280  1.935   .     S
O392   Zn425   1.935   .     S
O400   Zn419   1.951   .     S
O403   C929    1.411   1_545 S
O405   C508    1.412   .     S
O407   C942    1.412   .     S
O409   C521    1.411   1_455 S
O410   Zn414   1.951   .     S
O411   Zn428   1.951   .     S
O411   C552    1.281   .     A
O412   Zn416   1.951   .     S
Zn413  O1239   1.935   1_545 S
Zn415  O1212   1.948   .     S
Zn418  O795    1.948   .     S
Zn420  O1201   1.948   .     S
Zn421  O1243   1.935   1_545 S
Zn422  O812    1.935   1_455 S
Zn423  O803    1.935   1_455 S
Zn424  O1247   1.935   1_545 S
Zn425  O1233   1.935   1_545 S
Zn426  O809    1.935   1_455 S
Zn427  O818    1.935   1_455 S
Zn428  O806    1.948   .     S
C429   H700    1.083   .     S
C429   C79     1.399   1_655 A
C429   C432    1.397   .     A
C430   C442    1.397   .     A
C430   H710    1.083   .     S
C430   C1384   1.399   .     S
C431   C591    1.397   .     A
C431   C534    1.409   .     A
C431   C1322   1.414   .     A
C432   C535    1.412   .     A
C432   C34     1.415   1_655 A
C433   C525    1.397   .     A
C433   C537    1.409   .     A
C433   C464    1.414   .     S
C434   C538    1.412   .     A
C434   C1321   1.415   .     A
C434   C536    1.397   .     A
C435   C547    1.397   .     A
C435   C539    1.409   .     A
C435   C466    1.414   .     S
C436   C463    1.397   .     A
C436   C540    1.412   .     A
C436   C1323   1.415   .     S
C437   C474    1.397   .     A
C437   C468    1.414   .     A
C437   C541    1.409   .     A
C438   C542    1.412   .     A
C438   C485    1.397   .     A
C438   C469    1.415   .     S
C439   C543    1.409   .     A
C439   C496    1.397   .     A
C439   C42     1.414   1_655 A
C440   C602    1.397   .     A
C440   C544    1.412   .     A
C440   C467    1.415   .     A
C441   H711    1.083   .     S
C441   C443    1.397   .     A
C441   C101    1.399   1_655 A
C442   C545    1.409   .     A
C442   C1324   1.414   .     S
C443   C546    1.412   .     A
C443   C41     1.415   1_655 A
C444   C548    1.409   .     A
C444   C452    1.397   .     A
C444   C470    1.414   .     S
C445   C592    1.402   .     A
C445   C594    1.402   .     A
C445   C564    1.454   .     S
C446   C565    1.454   .     S
C446   C593    1.402   .     A
C446   C590    1.402   .     A
C447   C557    1.454   .     S
C447   C589    1.402   .     A
C447   C596    1.402   .     A
C448   C588    1.402   .     A
C448   C595    1.402   .     A
C448   C559    1.454   .     S
C449   C598    1.402   .     A
C449   C560    1.454   .     S
C449   C587    1.402   .     A
C450   C561    1.454   .     S
C450   C586    1.402   .     A
C450   C597    1.402   .     A
C451   C562    1.454   .     S
C451   C585    1.402   .     A
C451   C600    1.402   .     A
C452   H712    1.083   .     S
C452   C530    1.399   .     S
C453   C599    1.402   .     A
C453   C584    1.402   .     A
C453   C563    1.454   .     S
C454   C583    1.402   .     A
C454   C573    1.454   .     S
C454   C603    1.402   .     A
C455   C582    1.402   .     A
C455   C574    1.454   .     S
C455   C601    1.402   .     A
C456   C581    1.402   .     A
C456   C605    1.402   .     A
C456   C566    1.454   .     S
C457   C579    1.402   .     A
C457   C604    1.402   .     A
C457   C567    1.454   .     S
C458   C578    1.402   .     A
C458   C607    1.402   .     A
C458   C568    1.454   .     S
C459   C606    1.402   .     A
C459   C577    1.402   .     A
C459   C570    1.454   .     S
C460   C609    1.402   .     A
C460   C576    1.402   .     A
C460   C571    1.454   .     S
C461   C575    1.402   .     A
C461   C572    1.454   .     S
C461   C608    1.402   .     A
C462   C464    1.403   .     A
C462   C610    1.415   .     S
C463   H713    1.083   .     S
C463   C1383   1.399   .     A
C465   C466    1.403   .     A
C465   C1290   1.415   1_545 A
C465   C612    1.415   .     S
C466   C1287   1.414   1_545 A
C467   C1292   1.415   1_545 S
C467   C468    1.403   1_556 S
C468   C1298   1.414   1_545 S
C468   C467    1.403   1_554 S
C469   C470    1.403   1_556 S
C470   C469    1.403   1_554 S
C471   C472    1.531   .     S
C471   H719    1.117   .     S
C471   O821    1.417   .     S
C471   H717    1.111   .     S
C472   C473    1.526   .     S
C472   H721    1.110   .     S
C472   H720    1.111   .     S
C473   H723    1.110   .     S
C473   H722    1.111   .     S
C473   H724    1.111   .     S
C474   H714    1.083   .     S
C474   C528    1.399   .     A
C475   O822    1.412   .     S
C475   H726    1.114   .     S
C475   H725    1.116   .     S
C475   C476    1.528   .     S
C476   H728    1.112   .     S
C476   C477    1.526   .     S
C476   H727    1.112   .     S
C477   H730    1.110   .     S
C477   H732    1.111   .     S
C477   H731    1.110   .     S
C478   H733    1.111   .     S
C478   H734    1.117   .     S
C478   C479    1.531   .     S
C478   O823    1.417   .     S
C479   C480    1.526   .     S
C479   H736    1.110   .     S
C479   H735    1.111   .     S
C480   H738    1.110   .     S
C480   H737    1.111   .     S
C480   H739    1.111   .     S
C481   O824    1.412   .     S
C481   C482    1.528   .     S
C481   H742    1.114   .     S
C481   H741    1.116   .     S
C482   H744    1.111   .     S
C482   C483    1.526   .     S
C482   H743    1.112   .     S
C483   H745    1.110   .     S
C483   H746    1.110   .     S
C483   H747    1.111   .     S
C484   H749    1.117   .     S
C484   C486    1.531   .     S
C484   O825    1.417   .     S
C484   H748    1.111   .     S
C485   H715    1.083   .     S
C485   C529    1.399   .     S
C486   H752    1.110   .     S
C486   H750    1.111   .     S
C486   C487    1.526   .     S
C487   H754    1.110   .     S
C487   H755    1.111   .     S
C487   H753    1.111   .     S
C488   H756    1.116   .     S
C488   C489    1.528   .     S
C488   H757    1.114   .     S
C488   O826    1.412   .     S
C489   C490    1.526   .     S
C489   H758    1.112   .     S
C489   H759    1.112   .     S
C490   H760    1.110   .     S
C490   H763    1.111   .     S
C490   H761    1.110   .     S
C491   O827    1.417   .     S
C491   H765    1.117   .     S
C491   C492    1.531   .     S
C491   H764    1.111   .     S
C492   H767    1.110   .     S
C492   H766    1.111   .     S
C492   C493    1.526   .     S
C493   H770    1.111   .     S
C493   H769    1.110   .     S
C493   H768    1.111   .     S
C494   C495    1.528   .     S
C494   O829    1.411   .     S
C494   H771    1.116   .     S
C494   H772    1.114   .     S
C495   H615    1.112   .     S
C495   H616    1.112   .     S
C495   C497    1.526   .     S
C496   C102    1.399   1_655 A
C496   H716    1.083   .     S
C497   H618    1.110   .     S
C497   H619    1.111   .     S
C497   H617    1.110   .     S
C498   H620    1.111   .     S
C498   H621    1.117   .     S
C498   O830    1.417   .     S
C498   C499    1.531   .     S
C499   H622    1.111   .     S
C499   C500    1.526   .     S
C499   H623    1.110   1_556 S
C500   H624    1.111   .     S
C500   H627    1.111   .     S
C500   H626    1.110   .     S
C501   C502    1.528   .     S
C501   H629    1.114   .     S
C501   H628    1.116   .     S
C501   O1687   1.411   .     S
C502   H631    1.111   .     S
C502   H630    1.112   .     S
C502   C503    1.526   .     S
C503   H633    1.110   .     S
C503   H634    1.111   .     S
C503   H632    1.110   .     S
C504   C505    1.531   .     S
C504   H637    1.117   .     S
C504   O832    1.417   .     S
C504   H635    1.111   .     S
C505   H638    1.111   .     S
C505   C506    1.526   .     S
C505   H639    1.110   1_556 S
C506   H642    1.111   .     S
C506   H640    1.111   .     S
C506   H641    1.110   .     S
C507   C551    1.463   .     S
C507   C558    1.399   .     S
C508   H644    1.114   .     S
C508   H643    1.116   .     S
C508   C509    1.528   .     S
C509   H645    1.112   .     S
C509   C510    1.526   .     S
C509   H646    1.112   .     S
C510   H650    1.111   .     S
C510   H648    1.110   .     S
C510   H649    1.110   .     S
C511   H651    1.111   .     S
C511   C512    1.531   .     S
C511   O834    1.417   .     S
C511   H652    1.117   .     S
C512   H653    1.111   .     S
C512   C513    1.526   .     S
C512   H654    1.110   1_556 S
C513   H657    1.111   .     S
C513   H656    1.110   .     S
C513   H655    1.111   .     S
C514   H659    1.116   .     S
C514   H660    1.114   .     S
C514   C515    1.528   .     S
C514   O1691   1.412   1_545 S
C515   H661    1.112   .     S
C515   C516    1.526   .     S
C515   H662    1.112   .     S
C516   H664    1.110   .     S
C516   H663    1.110   .     S
C516   H665    1.111   .     S
C517   H666    1.111   .     S
C517   C519    1.531   .     S
C517   H667    1.117   .     S
C517   O836    1.417   .     S
C518   C552    1.462   .     S
C518   C525    1.399   .     S
C519   C520    1.526   .     S
C519   H668    1.111   .     S
C519   H670    1.110   1_556 S
C520   H671    1.111   .     S
C520   H673    1.111   .     S
C520   H672    1.110   .     S
C521   H675    1.114   .     S
C521   H674    1.116   .     S
C521   C522    1.528   .     S
C521   O409    1.411   1_655 S
C522   H676    1.112   .     S
C522   C523    1.526   .     S
C522   H677    1.112   .     S
C523   H681    1.111   .     S
C523   H678    1.110   .     S
C523   H679    1.110   .     S
C524   C1392   1.399   1_545 A
C524   C549    1.463   .     S
C524   C580    1.399   .     S
C525   H701    1.083   .     S
C526   C550    1.462   .     S
C526   C1447   1.399   1_545 A
C526   C547    1.399   .     S
C527   C555    1.463   .     S
C527   C1319   1.399   1_545 A
C527   C602    1.399   .     S
C528   C556    1.462   .     S
C528   C1286   1.399   1_545 S
C529   C553    1.463   .     S
C530   C554    1.462   .     S
C531   O821    1.386   .     S
C531   C537    1.402   .     A
C531   C610    1.412   .     A
C532   C611    1.409   .     A
C532   C535    1.402   .     A
C532   O822    1.384   .     S
C533   C612    1.412   .     A
C533   O823    1.386   .     S
C533   C539    1.402   .     A
C534   O824    1.384   .     S
C534   C538    1.402   .     A
C535   O825    1.386   .     S
C536   C1380   1.399   .     A
C536   H702    1.083   .     S
C537   O826    1.384   .     S
C538   O827    1.386   .     S
C539   O829    1.384   .     S
C540   O830    1.386   .     S
C540   C545    1.402   1_556 S
C541   O831    1.384   .     S
C541   C544    1.402   1_554 S
C542   O832    1.386   .     S
C542   C548    1.402   1_556 S
C543   O833    1.384   .     S
C543   C546    1.402   1_554 S
C544   O834    1.386   .     S
C544   C541    1.402   1_556 S
C545   O835    1.384   .     S
C545   C540    1.402   1_554 S
C546   O836    1.386   .     S
C546   C543    1.402   1_556 S
C547   H703    1.083   .     S
C548   O837    1.384   .     S
C548   C542    1.402   1_554 S
C549   O840    1.281   .     A
C549   O1673   1.281   1_545 S
C550   O1630   1.281   1_545 A
C550   O828    1.281   .     S
C551   O838    1.281   .     A
C552   O776    1.281   .     S
C553   O777    1.281   .     S
C553   O781    1.281   .     S
C554   O778    1.281   .     A
C554   O782    1.281   .     A
C555   O779    1.281   .     S
C555   O783    1.281   .     S
C556   O780    1.281   .     A
C556   O785    1.281   .     A
C557   O814    1.281   .     A
C557   O786    1.281   .     A
C558   H704    1.083   .     S
C558   C610    1.397   .     A
C559   O815    1.281   .     A
C559   O787    1.281   .     A
C560   O788    1.281   .     A
C560   O812    1.281   .     A
C561   O813    1.281   .     A
C561   O789    1.281   .     A
C562   O819    1.281   .     A
C562   O790    1.281   .     A
C563   O820    1.281   .     A
C563   O791    1.281   .     A
C564   O816    1.281   .     A
C564   O792    1.281   .     A
C565   O818    1.281   .     A
C565   O793    1.281   .     A
C566   O794    1.281   .     A
C566   O805    1.281   .     A
C567   O807    1.281   .     A
C567   O796    1.281   .     A
C568   O803    1.281   .     A
C568   O797    1.281   .     A
C569   C90     1.399   1_655 A
C569   C611    1.397   .     A
C569   H705    1.083   .     S
C570   O798    1.281   .     A
C570   O804    1.281   .     A
C571   O799    1.281   .     A
C571   O810    1.281   .     A
C572   O811    1.281   .     A
C572   O800    1.281   .     A
C573   O808    1.281   .     A
C573   O801    1.281   .     A
C574   O802    1.281   .     A
C574   O809    1.281   .     A
C575   C592    1.386   .     A
C575   H613    1.083   .     S
C576   C590    1.385   .     A
C576   H685    1.083   .     S
C577   C589    1.386   .     A
C577   H696    1.083   .     S
C578   H707    1.083   .     S
C578   C588    1.385   .     A
C579   C587    1.386   .     A
C579   H718    1.083   .     S
C580   H706    1.083   .     S
C580   C612    1.397   .     A
C581   C586    1.385   .     A
C581   H729    1.083   .     S
C582   H740    1.083   .     S
C582   C585    1.386   .     A
C583   C584    1.385   .     A
C583   H751    1.083   .     S
C584   H762    1.083   .     S
C585   H614    1.083   .     S
C586   H625    1.083   .     S
C587   H636    1.083   .     S
C588   H647    1.083   .     S
C589   H658    1.083   .     S
C590   H669    1.083   .     S
C591   C1382   1.399   .     A
C591   H708    1.083   .     S
C592   H680    1.083   .     S
C593   H682    1.083   .     S
C593   C609    1.386   .     A
C594   H683    1.083   .     S
C594   C608    1.385   .     A
C595   C607    1.386   .     A
C595   H684    1.083   .     S
C596   H686    1.083   .     S
C596   C606    1.385   .     A
C597   C605    1.386   .     A
C597   H687    1.083   .     S
C598   C604    1.385   .     A
C598   H688    1.083   .     S
C599   H689    1.083   .     S
C599   C603    1.386   .     A
C600   C601    1.385   .     A
C600   H690    1.083   .     S
C601   H691    1.083   .     S
C602   H709    1.083   .     S
C603   H692    1.083   .     S
C604   H693    1.083   .     S
C605   H694    1.083   .     S
C606   H695    1.083   .     S
C607   H697    1.083   .     S
C608   H698    1.083   .     S
C609   H699    1.083   .     S
C611   C36     1.414   1_655 A
H623   C499    1.110   1_554 S
H639   C505    1.110   1_554 S
H654   C512    1.110   1_554 S
H670   C519    1.110   1_554 S
O773   Zn844   1.948   .     S
O773   Zn841   1.948   .     S
O773   Zn852   1.948   .     S
O773   Zn1704  1.948   1_545 S
O774   Zn843   1.951   .     S
O774   C1406   1.281   .     A
O775   Zn846   1.951   .     S
O775   C123    1.281   1_655 S
O776   Zn845   1.951   .     S
O777   Zn855   1.951   .     S
O778   Zn854   1.951   .     S
O779   Zn849   1.951   .     S
O780   Zn841   1.951   .     S
O781   Zn851   1.951   .     S
O782   Zn850   1.951   .     S
O783   Zn853   1.951   .     S
O784   Zn853   1.948   .     S
O784   Zn847   1.948   .     S
O784   Zn849   1.948   .     S
O784   Zn1699  1.948   1_545 S
O785   Zn852   1.951   .     S
O786   Zn844   1.935   .     S
O787   Zn843   1.935   .     S
O788   Zn846   1.935   .     S
O789   Zn845   1.935   .     S
O790   Zn848   1.935   .     S
O791   Zn847   1.935   .     S
O792   Zn842   1.935   .     S
O793   Zn856   1.935   .     S
O794   Zn843   1.935   .     S
O795   Zn854   1.948   .     S
O795   Zn842   1.948   .     S
O795   Zn850   1.948   .     S
O796   Zn844   1.935   .     S
O797   Zn856   1.935   .     S
O798   Zn842   1.935   .     S
O799   Zn847   1.935   .     S
O800   Zn848   1.935   .     S
O801   Zn845   1.935   .     S
O802   Zn846   1.935   .     S
O803   Zn423   1.935   1_655 S
O804   Zn850   1.935   .     S
O805   Zn1709  1.935   .     S
O806   Zn845   1.948   .     S
O806   Zn851   1.948   .     S
O806   Zn855   1.948   .     S
O807   Zn852   1.935   .     S
O808   Zn855   1.935   .     S
O809   Zn426   1.935   1_655 S
O810   Zn849   1.935   .     S
O811   Zn1697  1.935   .     S
O812   Zn422   1.935   1_655 S
O813   Zn851   1.935   .     S
O814   Zn841   1.935   .     S
O815   Zn1705  1.935   .     S
O816   Zn854   1.935   .     S
O817   Zn848   1.951   .     S
O817   C1405   1.281   .     S
O818   Zn427   1.935   1_655 S
O819   Zn1708  1.935   .     S
O820   Zn853   1.935   .     S
O828   Zn847   1.951   .     S
O831   C1357   1.411   1_545 S
O833   C80     1.412   1_655 S
O835   C1370   1.412   .     S
O838   Zn842   1.951   .     S
O839   Zn856   1.951   .     S
O839   C124    1.281   1_655 A
O840   Zn844   1.951   .     S
Zn841  O1667   1.935   1_545 S
Zn843  O1640   1.948   .     S
Zn846  O367    1.948   1_655 S
Zn848  O1629   1.948   .     S
Zn849  O1671   1.935   1_545 S
Zn852  O1675   1.935   1_545 S
Zn853  O1661   1.935   1_545 S
Zn856  O378    1.948   1_655 S
C857   H1128   1.083   .     S
C857   C1363   1.399   .     A
C857   C860    1.397   .     A
C858   C870    1.397   .     A
C858   H1138   1.083   .     S
C858   C100    1.399   1_565 S
C859   C1019   1.397   .     A
C859   C962    1.409   .     A
C859   C38     1.414   1_565 A
C860   C963    1.412   .     A
C860   C1318   1.415   .     A
C861   C953    1.397   .     A
C861   C965    1.409   .     A
C861   C892    1.414   .     S
C862   C966    1.412   .     A
C862   C37     1.415   1_565 A
C862   C964    1.397   .     A
C863   C975    1.397   .     A
C863   C967    1.409   .     A
C863   C894    1.414   .     S
C864   C891    1.397   .     A
C864   C968    1.412   .     A
C864   C39     1.415   1_565 S
C865   C902    1.397   .     A
C865   C896    1.414   .     A
C865   C969    1.409   .     A
C866   C970    1.412   .     A
C866   C913    1.397   .     A
C866   C897    1.415   .     S
C867   C971    1.409   .     A
C867   C924    1.397   .     A
C867   C1326   1.414   .     A
C868   C1030   1.397   .     A
C868   C972    1.412   .     A
C868   C895    1.415   .     A
C869   H1139   1.083   .     S
C869   C871    1.397   .     A
C869   C1385   1.399   .     A
C870   C973    1.409   .     A
C870   C40     1.414   1_565 S
C871   C974    1.412   .     A
C871   C1325   1.415   .     A
C872   C976    1.409   .     A
C872   C880    1.397   .     A
C872   C898    1.414   .     S
C873   C1020   1.402   .     A
C873   C1022   1.402   .     A
C873   C992    1.454   .     S
C874   C993    1.454   .     S
C874   C1021   1.402   .     A
C874   C1018   1.402   .     A
C875   C985    1.454   .     S
C875   C1017   1.402   .     A
C875   C1024   1.402   .     A
C876   C1016   1.402   .     A
C876   C1023   1.402   .     A
C876   C987    1.454   .     S
C877   C1026   1.402   .     A
C877   C988    1.454   .     S
C877   C1015   1.402   .     A
C878   C989    1.454   .     S
C878   C1014   1.402   .     A
C878   C1025   1.402   .     A
C879   C990    1.454   .     S
C879   C1013   1.402   .     A
C879   C1028   1.402   .     A
C880   H1140   1.083   .     S
C880   C958    1.399   .     S
C881   C1027   1.402   .     A
C881   C1012   1.402   .     A
C881   C991    1.454   .     S
C882   C1011   1.402   .     A
C882   C1001   1.454   .     S
C882   C1031   1.402   .     A
C883   C1010   1.402   .     A
C883   C1002   1.454   .     S
C883   C1029   1.402   .     A
C884   C1009   1.402   .     A
C884   C1033   1.402   .     A
C884   C994    1.454   .     S
C885   C1007   1.402   .     A
C885   C1032   1.402   .     A
C885   C995    1.454   .     S
C886   C1006   1.402   .     A
C886   C1035   1.402   .     A
C886   C996    1.454   .     S
C887   C1034   1.402   .     A
C887   C1005   1.402   .     A
C887   C998    1.454   .     S
C888   C1037   1.402   .     A
C888   C1004   1.402   .     A
C888   C999    1.454   .     S
C889   C1003   1.402   .     A
C889   C1000   1.454   .     S
C889   C1036   1.402   .     A
C890   C892    1.403   .     A
C890   C1288   1.415   1_455 A
C890   C1038   1.415   .     S
C891   H1141   1.083   .     S
C891   C99     1.399   1_565 A
C892   C1467   1.414   1_455 A
C893   C894    1.403   .     A
C893   C1040   1.415   .     S
C895   C896    1.403   1_556 S
C896   C895    1.403   1_554 S
C897   C1299   1.415   1_455 A
C897   C898    1.403   1_556 S
C898   C1295   1.414   1_455 A
C898   C897    1.403   1_554 S
C899   C900    1.531   .     S
C899   H1147   1.117   .     S
C899   O1249   1.417   .     S
C899   H1145   1.111   .     S
C900   C901    1.526   .     S
C900   H1149   1.110   .     S
C900   H1148   1.111   .     S
C901   H1151   1.110   .     S
C901   H1150   1.111   .     S
C901   H1152   1.111   .     S
C902   H1142   1.083   .     S
C902   C956    1.399   .     A
C903   O1250   1.412   .     S
C903   H1154   1.114   .     S
C903   H1153   1.116   .     S
C903   C904    1.528   .     S
C904   H1156   1.112   .     S
C904   C905    1.526   .     S
C904   H1155   1.112   .     S
C905   H1158   1.110   .     S
C905   H1160   1.111   .     S
C905   H1159   1.110   .     S
C906   H1161   1.111   .     S
C906   H1162   1.117   .     S
C906   C907    1.531   .     S
C906   O1251   1.417   .     S
C907   C908    1.526   .     S
C907   H1164   1.110   .     S
C907   H1163   1.111   .     S
C908   H1166   1.110   .     S
C908   H1165   1.111   .     S
C908   H1167   1.111   .     S
C909   O1252   1.412   .     S
C909   C910    1.528   .     S
C909   H1170   1.114   .     S
C909   H1169   1.116   .     S
C910   H1172   1.111   .     S
C910   C911    1.526   .     S
C910   H1171   1.112   .     S
C911   H1173   1.110   .     S
C911   H1174   1.110   .     S
C911   H1175   1.111   .     S
C912   H1177   1.117   .     S
C912   C914    1.531   .     S
C912   O1253   1.417   .     S
C912   H1176   1.111   .     S
C913   H1143   1.083   .     S
C913   C957    1.399   .     S
C914   H1180   1.110   .     S
C914   H1178   1.111   .     S
C914   C915    1.526   .     S
C915   H1182   1.110   .     S
C915   H1183   1.111   .     S
C915   H1181   1.111   .     S
C916   H1184   1.116   .     S
C916   C917    1.528   .     S
C916   H1185   1.114   .     S
C916   O1254   1.412   .     S
C917   C918    1.526   .     S
C917   H1186   1.112   .     S
C917   H1187   1.112   .     S
C918   H1188   1.110   .     S
C918   H1191   1.111   .     S
C918   H1189   1.110   .     S
C919   O1255   1.417   .     S
C919   H1193   1.117   .     S
C919   C920    1.531   .     S
C919   H1192   1.111   .     S
C920   H1195   1.110   .     S
C920   H1194   1.111   .     S
C920   C921    1.526   .     S
C921   H1198   1.111   .     S
C921   H1197   1.110   .     S
C921   H1196   1.111   .     S
C922   C923    1.528   .     S
C922   O1257   1.411   .     S
C922   H1199   1.116   .     S
C922   H1200   1.114   .     S
C923   H1043   1.112   .     S
C923   H1044   1.112   .     S
C923   C925    1.526   .     S
C924   C1386   1.399   .     A
C924   H1144   1.083   .     S
C925   H1046   1.110   .     S
C925   H1047   1.111   .     S
C925   H1045   1.110   .     S
C926   H1048   1.111   .     S
C926   H1049   1.117   .     S
C926   O1258   1.417   .     S
C926   C927    1.531   .     S
C927   H1050   1.111   .     S
C927   C928    1.526   .     S
C927   H1051   1.110   1_556 S
C928   H1052   1.111   .     S
C928   H1055   1.111   .     S
C928   H1054   1.110   .     S
C929   C930    1.528   .     S
C929   H1057   1.114   .     S
C929   H1056   1.116   .     S
C929   O403    1.411   1_565 S
C930   H1059   1.111   .     S
C930   H1058   1.112   .     S
C930   C931    1.526   .     S
C931   H1061   1.110   .     S
C931   H1062   1.111   .     S
C931   H1060   1.110   .     S
C932   C933    1.531   .     S
C932   H1065   1.117   .     S
C932   O1260   1.417   .     S
C932   H1063   1.111   .     S
C933   H1066   1.111   .     S
C933   C934    1.526   .     S
C933   H1067   1.110   1_556 S
C934   H1070   1.111   .     S
C934   H1068   1.111   .     S
C934   H1069   1.110   .     S
C935   C1285   1.399   1_455 A
C935   C979    1.463   .     S
C935   C986    1.399   .     S
C936   H1072   1.114   .     S
C936   H1071   1.116   .     S
C936   C937    1.528   .     S
C936   O1689   1.412   1_455 S
C937   H1073   1.112   .     S
C937   C938    1.526   .     S
C937   H1074   1.112   .     S
C938   H1078   1.111   .     S
C938   H1076   1.110   .     S
C938   H1077   1.110   .     S
C939   H1079   1.111   .     S
C939   C940    1.531   .     S
C939   O1262   1.417   .     S
C939   H1080   1.117   .     S
C940   H1081   1.111   .     S
C940   C941    1.526   .     S
C940   H1082   1.110   1_556 S
C941   H1085   1.111   .     S
C941   H1084   1.110   .     S
C941   H1083   1.111   .     S
C942   H1087   1.116   .     S
C942   H1088   1.114   .     S
C942   C943    1.528   .     S
C943   H1089   1.112   .     S
C943   C944    1.526   .     S
C943   H1090   1.112   .     S
C944   H1092   1.110   .     S
C944   H1091   1.110   .     S
C944   H1093   1.111   .     S
C945   H1094   1.111   .     S
C945   C947    1.531   .     S
C945   H1095   1.117   .     S
C945   O1264   1.417   .     S
C946   C1425   1.399   1_455 A
C946   C980    1.462   .     S
C946   C953    1.399   .     S
C947   C948    1.526   .     S
C947   H1096   1.111   .     S
C947   H1098   1.110   1_556 S
C948   H1099   1.111   .     S
C948   H1101   1.111   .     S
C948   H1100   1.110   .     S
C949   H1103   1.114   .     S
C949   H1102   1.116   .     S
C949   C950    1.528   .     S
C949   O1693   1.411   .     S
C950   H1104   1.112   .     S
C950   C951    1.526   .     S
C950   H1105   1.112   .     S
C951   H1109   1.111   .     S
C951   H1106   1.110   .     S
C951   H1107   1.110   .     S
C952   C977    1.463   .     S
C952   C1008   1.399   .     S
C953   H1129   1.083   .     S
C954   C978    1.462   .     S
C954   C975    1.399   .     S
C955   C983    1.463   .     S
C955   C1030   1.399   .     S
C956   C984    1.462   .     S
C957   C1297   1.399   1_455 A
C957   C981    1.463   .     S
C958   C982    1.462   .     S
C958   C1352   1.399   1_455 A
C959   O1249   1.386   .     S
C959   C965    1.402   .     A
C959   C1038   1.412   .     A
C960   C1039   1.409   .     A
C960   C963    1.402   .     A
C960   O1250   1.384   .     S
C961   C1040   1.412   .     A
C961   O1251   1.386   .     S
C961   C967    1.402   .     A
C962   O1252   1.384   .     S
C962   C966    1.402   .     A
C963   O1253   1.386   .     S
C964   C96     1.399   1_565 A
C964   H1130   1.083   .     S
C965   O1254   1.384   .     S
C966   O1255   1.386   .     S
C967   O1257   1.384   .     S
C968   O1258   1.386   .     S
C968   C973    1.402   1_556 S
C969   O1259   1.384   .     S
C969   C972    1.402   1_554 S
C970   O1260   1.386   .     S
C970   C976    1.402   1_556 S
C971   O1261   1.384   .     S
C971   C974    1.402   1_554 S
C972   O1262   1.386   .     S
C972   C969    1.402   1_556 S
C973   O1263   1.384   .     S
C973   C968    1.402   1_554 S
C974   O1264   1.386   .     S
C974   C971    1.402   1_556 S
C975   H1131   1.083   .     S
C976   O1265   1.384   .     S
C976   C970    1.402   1_554 S
C977   O1268   1.281   .     A
C978   O1256   1.281   .     S
C979   O1266   1.281   .     A
C979   O1631   1.281   1_455 S
C980   O1695   1.281   1_455 A
C980   O1204   1.281   .     S
C981   O1205   1.281   .     S
C981   O1209   1.281   .     S
C982   O1206   1.281   .     A
C982   O1210   1.281   .     A
C983   O1207   1.281   .     S
C983   O1211   1.281   .     S
C984   O1208   1.281   .     A
C984   O1213   1.281   .     A
C985   O1242   1.281   .     A
C985   O1214   1.281   .     A
C986   H1132   1.083   .     S
C986   C1038   1.397   .     A
C987   O1243   1.281   .     A
C987   O1215   1.281   .     A
C988   O1216   1.281   .     A
C988   O1240   1.281   .     A
C989   O1241   1.281   .     A
C989   O1217   1.281   .     A
C990   O1247   1.281   .     A
C990   O1218   1.281   .     A
C991   O1248   1.281   .     A
C991   O1219   1.281   .     A
C992   O1244   1.281   .     A
C992   O1220   1.281   .     A
C993   O1246   1.281   .     A
C993   O1221   1.281   .     A
C994   O1222   1.281   .     A
C994   O1233   1.281   .     A
C995   O1235   1.281   .     A
C995   O1224   1.281   .     A
C996   O1231   1.281   .     A
C996   O1225   1.281   .     A
C997   C1374   1.399   .     A
C997   C1039   1.397   .     A
C997   H1133   1.083   .     S
C998   O1226   1.281   .     A
C998   O1232   1.281   .     A
C999   O1227   1.281   .     A
C999   O1238   1.281   .     A
C1000  O1239   1.281   .     A
C1000  O1228   1.281   .     A
C1001  O1236   1.281   .     A
C1001  O1229   1.281   .     A
C1002  O1230   1.281   .     A
C1002  O1237   1.281   .     A
C1003  C1020   1.386   .     A
C1003  H1041   1.083   .     S
C1004  C1018   1.385   .     A
C1004  H1113   1.083   .     S
C1005  C1017   1.386   .     A
C1005  H1124   1.083   .     S
C1006  H1135   1.083   .     S
C1006  C1016   1.385   .     A
C1007  C1015   1.386   .     A
C1007  H1146   1.083   .     S
C1008  H1134   1.083   .     S
C1008  C1040   1.397   .     A
C1009  C1014   1.385   .     A
C1009  H1157   1.083   .     S
C1010  H1168   1.083   .     S
C1010  C1013   1.386   .     A
C1011  C1012   1.385   .     A
C1011  H1179   1.083   .     S
C1012  H1190   1.083   .     S
C1013  H1042   1.083   .     S
C1014  H1053   1.083   .     S
C1015  H1064   1.083   .     S
C1016  H1075   1.083   .     S
C1017  H1086   1.083   .     S
C1018  H1097   1.083   .     S
C1019  C98     1.399   1_565 A
C1019  H1136   1.083   .     S
C1020  H1108   1.083   .     S
C1021  H1110   1.083   .     S
C1021  C1037   1.386   .     A
C1022  H1111   1.083   .     S
C1022  C1036   1.385   .     A
C1023  C1035   1.386   .     A
C1023  H1112   1.083   .     S
C1024  H1114   1.083   .     S
C1024  C1034   1.385   .     A
C1025  C1033   1.386   .     A
C1025  H1115   1.083   .     S
C1026  C1032   1.385   .     A
C1026  H1116   1.083   .     S
C1027  H1117   1.083   .     S
C1027  C1031   1.386   .     A
C1028  C1029   1.385   .     A
C1028  H1118   1.083   .     S
C1029  H1119   1.083   .     S
C1030  H1137   1.083   .     S
C1031  H1120   1.083   .     S
C1032  H1121   1.083   .     S
C1033  H1122   1.083   .     S
C1034  H1123   1.083   .     S
C1035  H1125   1.083   .     S
C1036  H1126   1.083   .     S
C1037  H1127   1.083   .     S
C1039  C1320   1.414   .     A
H1051  C927    1.110   1_554 S
H1067  C933    1.110   1_554 S
H1082  C940    1.110   1_554 S
H1098  C947    1.110   1_554 S
O1201  Zn1272  1.948   .     S
O1201  Zn1269  1.948   .     S
O1201  Zn1280  1.948   .     S
O1202  Zn1271  1.951   .     S
O1202  C122    1.281   1_565 A
O1203  Zn1274  1.951   .     S
O1203  C1407   1.281   .     S
O1204  Zn1273  1.951   .     S
O1205  Zn1283  1.951   .     S
O1206  Zn1282  1.951   .     S
O1207  Zn1277  1.951   .     S
O1208  Zn1269  1.951   .     S
O1209  Zn1279  1.951   .     S
O1210  Zn1278  1.951   .     S
O1211  Zn1281  1.951   .     S
O1212  Zn1281  1.948   .     S
O1212  Zn1275  1.948   .     S
O1212  Zn1277  1.948   .     S
O1213  Zn1280  1.951   .     S
O1214  Zn1272  1.935   .     S
O1215  Zn1271  1.935   .     S
O1216  Zn1274  1.935   .     S
O1217  Zn1273  1.935   .     S
O1218  Zn1276  1.935   .     S
O1219  Zn1275  1.935   .     S
O1220  Zn1270  1.935   .     S
O1221  Zn1284  1.935   .     S
O1222  Zn1271  1.935   .     S
O1223  Zn1282  1.948   .     S
O1223  Zn1270  1.948   .     S
O1223  Zn1702  1.948   1_455 S
O1223  Zn1278  1.948   .     S
O1224  Zn1272  1.935   .     S
O1225  Zn1284  1.935   .     S
O1226  Zn1270  1.935   .     S
O1227  Zn1275  1.935   .     S
O1228  Zn1276  1.935   .     S
O1229  Zn1273  1.935   .     S
O1230  Zn1274  1.935   .     S
O1231  Zn1707  1.935   .     S
O1232  Zn1278  1.935   .     S
O1233  Zn425   1.935   1_565 S
O1234  Zn1273  1.948   .     S
O1234  Zn1279  1.948   .     S
O1234  Zn1283  1.948   .     S
O1234  Zn1712  1.948   1_455 S
O1235  Zn1280  1.935   .     S
O1236  Zn1283  1.935   .     S
O1237  Zn1710  1.935   .     S
O1238  Zn1277  1.935   .     S
O1239  Zn413   1.935   1_565 S
O1240  Zn1706  1.935   .     S
O1241  Zn1279  1.935   .     S
O1242  Zn1269  1.935   .     S
O1243  Zn421   1.935   1_565 S
O1244  Zn1282  1.935   .     S
O1245  Zn1276  1.951   .     S
O1245  C121    1.281   1_565 S
O1246  Zn1711  1.935   .     S
O1247  Zn424   1.935   1_565 S
O1248  Zn1281  1.935   .     S
O1256  Zn1275  1.951   .     S
O1261  C1364   1.412   .     S
O1263  C86     1.412   1_565 S
O1265  C1377   1.411   1_455 S
O1266  Zn1270  1.951   .     S
O1267  Zn1284  1.951   .     S
O1267  C1408   1.281   .     A
O1268  Zn1272  1.951   .     S
Zn1271 O356    1.948   1_565 S
Zn1274 O1651   1.948   .     S
Zn1276 O345    1.948   1_565 S
Zn1278 O1668   1.935   1_455 S
Zn1279 O1659   1.935   1_455 S
Zn1282 O1665   1.935   1_455 S
Zn1283 O1674   1.935   1_455 S
Zn1284 O1662   1.948   .     S
C1285  H1556   1.083   .     S
C1285  C935    1.399   1_655 A
C1285  C1288   1.397   .     A
C1286  C1298   1.397   .     A
C1286  H1566   1.083   .     S
C1286  C528    1.399   1_565 S
C1287  C1447   1.397   .     A
C1287  C1390   1.409   .     A
C1287  C466    1.414   1_565 A
C1288  C1391   1.412   .     A
C1288  C890    1.415   1_655 A
C1289  C1381   1.397   .     A
C1289  C1393   1.409   .     A
C1289  C1320   1.414   .     S
C1290  C1394   1.412   .     A
C1290  C465    1.415   1_565 A
C1290  C1392   1.397   .     A
C1291  C1403   1.397   .     A
C1291  C1395   1.409   .     A
C1291  C1322   1.414   .     S
C1292  C1319   1.397   .     A
C1292  C1396   1.412   .     A
C1292  C467    1.415   1_565 S
C1293  C1330   1.397   .     A
C1293  C1324   1.414   .     A
C1293  C1397   1.409   .     A
C1294  C1398   1.412   .     A
C1294  C1341   1.397   .     A
C1294  C1325   1.415   .     S
C1295  C1399   1.409   .     A
C1295  C1352   1.397   .     A
C1295  C898    1.414   1_655 A
C1296  C1458   1.397   .     A
C1296  C1400   1.412   .     A
C1296  C1323   1.415   .     A
C1297  H1567   1.083   .     S
C1297  C1299   1.397   .     A
C1297  C957    1.399   1_655 A
C1298  C1401   1.409   .     A
C1298  C468    1.414   1_565 S
C1299  C1402   1.412   .     A
C1299  C897    1.415   1_655 A
C1300  C1404   1.409   .     A
C1300  C1308   1.397   .     A
C1300  C1326   1.414   .     S
C1301  C1448   1.402   .     A
C1301  C1450   1.402   .     A
C1301  C1420   1.454   .     S
C1302  C1421   1.454   .     S
C1302  C1449   1.402   .     A
C1302  C1446   1.402   .     A
C1303  C1413   1.454   .     S
C1303  C1445   1.402   .     A
C1303  C1452   1.402   .     A
C1304  C1444   1.402   .     A
C1304  C1451   1.402   .     A
C1304  C1415   1.454   .     S
C1305  C1454   1.402   .     A
C1305  C1416   1.454   .     S
C1305  C1443   1.402   .     A
C1306  C1417   1.454   .     S
C1306  C1442   1.402   .     A
C1306  C1453   1.402   .     A
C1307  C1418   1.454   .     S
C1307  C1441   1.402   .     A
C1307  C1456   1.402   .     A
C1308  H1568   1.083   .     S
C1308  C1386   1.399   .     S
C1309  C1455   1.402   .     A
C1309  C1440   1.402   .     A
C1309  C1419   1.454   .     S
C1310  C1439   1.402   .     A
C1310  C1429   1.454   .     S
C1310  C1459   1.402   .     A
C1311  C1438   1.402   .     A
C1311  C1430   1.454   .     S
C1311  C1457   1.402   .     A
C1312  C1437   1.402   .     A
C1312  C1461   1.402   .     A
C1312  C1422   1.454   .     S
C1313  C1435   1.402   .     A
C1313  C1460   1.402   .     A
C1313  C1423   1.454   .     S
C1314  C1434   1.402   .     A
C1314  C1463   1.402   .     A
C1314  C1424   1.454   .     S
C1315  C1462   1.402   .     A
C1315  C1433   1.402   .     A
C1315  C1426   1.454   .     S
C1316  C1465   1.402   .     A
C1316  C1432   1.402   .     A
C1316  C1427   1.454   .     S
C1317  C1431   1.402   .     A
C1317  C1428   1.454   .     S
C1317  C1464   1.402   .     A
C1318  C1320   1.403   .     A
C1318  C1466   1.415   .     S
C1319  H1569   1.083   .     S
C1319  C527    1.399   1_565 A
C1321  C1322   1.403   .     A
C1321  C1468   1.415   .     S
C1323  C1324   1.403   1_556 S
C1324  C1323   1.403   1_554 S
C1325  C1326   1.403   1_556 S
C1326  C1325   1.403   1_554 S
C1327  C1328   1.531   .     S
C1327  H1575   1.117   .     S
C1327  O1677   1.417   .     S
C1327  H1573   1.111   .     S
C1328  C1329   1.526   .     S
C1328  H1577   1.110   .     S
C1328  H1576   1.111   .     S
C1329  H1579   1.110   .     S
C1329  H1578   1.111   .     S
C1329  H1580   1.111   .     S
C1330  H1570   1.083   .     S
C1330  C1384   1.399   .     A
C1331  O1678   1.412   .     S
C1331  H1582   1.114   .     S
C1331  H1581   1.116   .     S
C1331  C1332   1.528   .     S
C1332  H1584   1.112   .     S
C1332  C1333   1.526   .     S
C1332  H1583   1.112   .     S
C1333  H1586   1.110   .     S
C1333  H1588   1.111   .     S
C1333  H1587   1.110   .     S
C1334  H1589   1.111   .     S
C1334  H1590   1.117   .     S
C1334  C1335   1.531   .     S
C1334  O1679   1.417   .     S
C1335  C1336   1.526   .     S
C1335  H1592   1.110   .     S
C1335  H1591   1.111   .     S
C1336  H1594   1.110   .     S
C1336  H1593   1.111   .     S
C1336  H1595   1.111   .     S
C1337  O1680   1.412   .     S
C1337  C1338   1.528   .     S
C1337  H1598   1.114   .     S
C1337  H1597   1.116   .     S
C1338  H1600   1.111   .     S
C1338  C1339   1.526   .     S
C1338  H1599   1.112   .     S
C1339  H1601   1.110   .     S
C1339  H1602   1.110   .     S
C1339  H1603   1.111   .     S
C1340  H1605   1.117   .     S
C1340  C1342   1.531   .     S
C1340  O1681   1.417   .     S
C1340  H1604   1.111   .     S
C1341  H1571   1.083   .     S
C1341  C1385   1.399   .     S
C1342  H1608   1.110   .     S
C1342  H1606   1.111   .     S
C1342  C1343   1.526   .     S
C1343  H1610   1.110   .     S
C1343  H1611   1.111   .     S
C1343  H1609   1.111   .     S
C1344  H1612   1.116   .     S
C1344  C1345   1.528   .     S
C1344  H1613   1.114   .     S
C1344  O1682   1.412   .     S
C1345  C1346   1.526   .     S
C1345  H1614   1.112   .     S
C1345  H1615   1.112   .     S
C1346  H1616   1.110   .     S
C1346  H1619   1.111   .     S
C1346  H1617   1.110   .     S
C1347  O1683   1.417   .     S
C1347  H1621   1.117   .     S
C1347  C1348   1.531   .     S
C1347  H1620   1.111   .     S
C1348  H1623   1.110   .     S
C1348  H1622   1.111   .     S
C1348  C1349   1.526   .     S
C1349  H1626   1.111   .     S
C1349  H1625   1.110   .     S
C1349  H1624   1.111   .     S
C1350  C1351   1.528   .     S
C1350  O1685   1.411   .     S
C1350  H1627   1.116   .     S
C1350  H1628   1.114   .     S
C1351  H1471   1.112   .     S
C1351  H1472   1.112   .     S
C1351  C1353   1.526   .     S
C1352  C958    1.399   1_655 A
C1352  H1572   1.083   .     S
C1353  H1474   1.110   .     S
C1353  H1475   1.111   .     S
C1353  H1473   1.110   .     S
C1354  H1476   1.111   .     S
C1354  H1477   1.117   .     S
C1354  O1686   1.417   .     S
C1354  C1355   1.531   .     S
C1355  H1478   1.111   .     S
C1355  C1356   1.526   .     S
C1355  H1479   1.110   1_556 S
C1356  H1480   1.111   .     S
C1356  H1483   1.111   .     S
C1356  H1482   1.110   .     S
C1357  C1358   1.528   .     S
C1357  H1485   1.114   .     S
C1357  H1484   1.116   .     S
C1357  O831    1.411   1_565 S
C1358  H1487   1.111   .     S
C1358  H1486   1.112   .     S
C1358  C1359   1.526   .     S
C1359  H1489   1.110   .     S
C1359  H1490   1.111   .     S
C1359  H1488   1.110   .     S
C1360  C1361   1.531   .     S
C1360  H1493   1.117   .     S
C1360  O1688   1.417   .     S
C1360  H1491   1.111   .     S
C1361  H1494   1.111   .     S
C1361  C1362   1.526   .     S
C1361  H1495   1.110   1_556 S
C1362  H1498   1.111   .     S
C1362  H1496   1.111   .     S
C1362  H1497   1.110   .     S
C1363  C1407   1.463   .     S
C1363  C1414   1.399   .     S
C1364  H1500   1.114   .     S
C1364  H1499   1.116   .     S
C1364  C1365   1.528   .     S
C1365  H1501   1.112   .     S
C1365  C1366   1.526   .     S
C1365  H1502   1.112   .     S
C1366  H1506   1.111   .     S
C1366  H1504   1.110   .     S
C1366  H1505   1.110   .     S
C1367  H1507   1.111   .     S
C1367  C1368   1.531   .     S
C1367  O1690   1.417   .     S
C1367  H1508   1.117   .     S
C1368  H1509   1.111   .     S
C1368  C1369   1.526   .     S
C1368  H1510   1.110   1_556 S
C1369  H1513   1.111   .     S
C1369  H1512   1.110   .     S
C1369  H1511   1.111   .     S
C1370  H1515   1.116   .     S
C1370  H1516   1.114   .     S
C1370  C1371   1.528   .     S
C1371  H1517   1.112   .     S
C1371  C1372   1.526   .     S
C1371  H1518   1.112   .     S
C1372  H1520   1.110   .     S
C1372  H1519   1.110   .     S
C1372  H1521   1.111   .     S
C1373  H1522   1.111   .     S
C1373  C1375   1.531   .     S
C1373  H1523   1.117   .     S
C1373  O1692   1.417   .     S
C1374  C1408   1.462   .     S
C1374  C1381   1.399   .     S
C1375  C1376   1.526   .     S
C1375  H1524   1.111   .     S
C1375  H1526   1.110   1_556 S
C1376  H1527   1.111   .     S
C1376  H1529   1.111   .     S
C1376  H1528   1.110   .     S
C1377  H1531   1.114   .     S
C1377  H1530   1.116   .     S
C1377  C1378   1.528   .     S
C1377  O1265   1.411   1_655 S
C1378  H1532   1.112   .     S
C1378  C1379   1.526   .     S
C1378  H1533   1.112   .     S
C1379  H1537   1.111   .     S
C1379  H1534   1.110   .     S
C1379  H1535   1.110   .     S
C1380  C1405   1.463   .     S
C1380  C1436   1.399   .     S
C1381  H1557   1.083   .     S
C1382  C1406   1.462   .     S
C1382  C1403   1.399   .     S
C1383  C1411   1.463   .     S
C1383  C1458   1.399   .     S
C1384  C1412   1.462   .     S
C1385  C1409   1.463   .     S
C1386  C1410   1.462   .     S
C1387  O1677   1.386   .     S
C1387  C1393   1.402   .     A
C1387  C1466   1.412   .     A
C1388  C1467   1.409   .     A
C1388  C1391   1.402   .     A
C1388  O1678   1.384   .     S
C1389  C1468   1.412   .     A
C1389  O1679   1.386   .     S
C1389  C1395   1.402   .     A
C1390  O1680   1.384   .     S
C1390  C1394   1.402   .     A
C1391  O1681   1.386   .     S
C1392  C524    1.399   1_565 A
C1392  H1558   1.083   .     S
C1393  O1682   1.384   .     S
C1394  O1683   1.386   .     S
C1395  O1685   1.384   .     S
C1396  O1686   1.386   .     S
C1396  C1401   1.402   1_556 S
C1397  O1687   1.384   .     S
C1397  C1400   1.402   1_554 S
C1398  O1688   1.386   .     S
C1398  C1404   1.402   1_556 S
C1399  O1689   1.384   .     S
C1399  C1402   1.402   1_554 S
C1400  O1690   1.386   .     S
C1400  C1397   1.402   1_556 S
C1401  O1691   1.384   .     S
C1401  C1396   1.402   1_554 S
C1402  O1692   1.386   .     S
C1402  C1399   1.402   1_556 S
C1403  H1559   1.083   .     S
C1404  O1693   1.384   .     S
C1404  C1398   1.402   1_554 S
C1405  O1696   1.281   .     A
C1406  O1684   1.281   .     S
C1407  O1694   1.281   .     A
C1408  O1632   1.281   .     S
C1409  O1633   1.281   .     S
C1409  O1637   1.281   .     S
C1410  O1634   1.281   .     A
C1410  O1638   1.281   .     A
C1411  O1635   1.281   .     S
C1411  O1639   1.281   .     S
C1412  O1636   1.281   .     A
C1412  O1641   1.281   .     A
C1413  O1670   1.281   .     A
C1413  O1642   1.281   .     A
C1414  H1560   1.083   .     S
C1414  C1466   1.397   .     A
C1415  O1671   1.281   .     A
C1415  O1643   1.281   .     A
C1416  O1644   1.281   .     A
C1416  O1668   1.281   .     A
C1417  O1669   1.281   .     A
C1417  O1645   1.281   .     A
C1418  O1675   1.281   .     A
C1418  O1646   1.281   .     A
C1419  O1676   1.281   .     A
C1419  O1647   1.281   .     A
C1420  O1672   1.281   .     A
C1420  O1648   1.281   .     A
C1421  O1674   1.281   .     A
C1421  O1649   1.281   .     A
C1422  O1650   1.281   .     A
C1422  O1661   1.281   .     A
C1423  O1663   1.281   .     A
C1423  O1652   1.281   .     A
C1424  O1659   1.281   .     A
C1424  O1653   1.281   .     A
C1425  C946    1.399   1_655 A
C1425  C1467   1.397   .     A
C1425  H1561   1.083   .     S
C1426  O1654   1.281   .     A
C1426  O1660   1.281   .     A
C1427  O1655   1.281   .     A
C1427  O1666   1.281   .     A
C1428  O1667   1.281   .     A
C1428  O1656   1.281   .     A
C1429  O1664   1.281   .     A
C1429  O1657   1.281   .     A
C1430  O1658   1.281   .     A
C1430  O1665   1.281   .     A
C1431  C1448   1.386   .     A
C1431  H1469   1.083   .     S
C1432  C1446   1.385   .     A
C1432  H1541   1.083   .     S
C1433  C1445   1.386   .     A
C1433  H1552   1.083   .     S
C1434  H1563   1.083   .     S
C1434  C1444   1.385   .     A
C1435  C1443   1.386   .     A
C1435  H1574   1.083   .     S
C1436  H1562   1.083   .     S
C1436  C1468   1.397   .     A
C1437  C1442   1.385   .     A
C1437  H1585   1.083   .     S
C1438  H1596   1.083   .     S
C1438  C1441   1.386   .     A
C1439  C1440   1.385   .     A
C1439  H1607   1.083   .     S
C1440  H1618   1.083   .     S
C1441  H1470   1.083   .     S
C1442  H1481   1.083   .     S
C1443  H1492   1.083   .     S
C1444  H1503   1.083   .     S
C1445  H1514   1.083   .     S
C1446  H1525   1.083   .     S
C1447  C526    1.399   1_565 A
C1447  H1564   1.083   .     S
C1448  H1536   1.083   .     S
C1449  H1538   1.083   .     S
C1449  C1465   1.386   .     A
C1450  H1539   1.083   .     S
C1450  C1464   1.385   .     A
C1451  C1463   1.386   .     A
C1451  H1540   1.083   .     S
C1452  H1542   1.083   .     S
C1452  C1462   1.385   .     A
C1453  C1461   1.386   .     A
C1453  H1543   1.083   .     S
C1454  C1460   1.385   .     A
C1454  H1544   1.083   .     S
C1455  H1545   1.083   .     S
C1455  C1459   1.386   .     A
C1456  C1457   1.385   .     A
C1456  H1546   1.083   .     S
C1457  H1547   1.083   .     S
C1458  H1565   1.083   .     S
C1459  H1548   1.083   .     S
C1460  H1549   1.083   .     S
C1461  H1550   1.083   .     S
C1462  H1551   1.083   .     S
C1463  H1553   1.083   .     S
C1464  H1554   1.083   .     S
C1465  H1555   1.083   .     S
C1467  C892    1.414   1_655 A
H1479  C1355   1.110   1_554 S
H1495  C1361   1.110   1_554 S
H1510  C1368   1.110   1_554 S
H1526  C1375   1.110   1_554 S
O1629  Zn1700  1.948   .     S
O1629  Zn1697  1.948   .     S
O1629  Zn1708  1.948   .     S
O1630  Zn1699  1.951   .     S
O1630  C550    1.281   1_565 A
O1631  Zn1702  1.951   .     S
O1631  C979    1.281   1_655 S
O1632  Zn1701  1.951   .     S
O1633  Zn1711  1.951   .     S
O1634  Zn1710  1.951   .     S
O1635  Zn1705  1.951   .     S
O1636  Zn1697  1.951   .     S
O1637  Zn1707  1.951   .     S
O1638  Zn1706  1.951   .     S
O1639  Zn1709  1.951   .     S
O1640  Zn1709  1.948   .     S
O1640  Zn1703  1.948   .     S
O1640  Zn1705  1.948   .     S
O1641  Zn1708  1.951   .     S
O1642  Zn1700  1.935   .     S
O1643  Zn1699  1.935   .     S
O1644  Zn1702  1.935   .     S
O1645  Zn1701  1.935   .     S
O1646  Zn1704  1.935   .     S
O1647  Zn1703  1.935   .     S
O1648  Zn1698  1.935   .     S
O1649  Zn1712  1.935   .     S
O1650  Zn1699  1.935   .     S
O1651  Zn1710  1.948   .     S
O1651  Zn1698  1.948   .     S
O1651  Zn1706  1.948   .     S
O1652  Zn1700  1.935   .     S
O1653  Zn1712  1.935   .     S
O1654  Zn1698  1.935   .     S
O1655  Zn1703  1.935   .     S
O1656  Zn1704  1.935   .     S
O1657  Zn1701  1.935   .     S
O1658  Zn1702  1.935   .     S
O1659  Zn1279  1.935   1_655 S
O1660  Zn1706  1.935   .     S
O1661  Zn853   1.935   1_565 S
O1662  Zn1701  1.948   .     S
O1662  Zn1707  1.948   .     S
O1662  Zn1711  1.948   .     S
O1663  Zn1708  1.935   .     S
O1664  Zn1711  1.935   .     S
O1665  Zn1282  1.935   1_655 S
O1666  Zn1705  1.935   .     S
O1667  Zn841   1.935   1_565 S
O1668  Zn1278  1.935   1_655 S
O1669  Zn1707  1.935   .     S
O1670  Zn1697  1.935   .     S
O1671  Zn849   1.935   1_565 S
O1672  Zn1710  1.935   .     S
O1673  Zn1704  1.951   .     S
O1673  C549    1.281   1_565 S
O1674  Zn1283  1.935   1_655 S
O1675  Zn852   1.935   1_565 S
O1676  Zn1709  1.935   .     S
O1684  Zn1703  1.951   .     S
O1689  C936    1.412   1_655 S
O1691  C514    1.412   1_565 S
O1694  Zn1698  1.951   .     S
O1695  Zn1712  1.951   .     S
O1695  C980    1.281   1_655 A
O1696  Zn1700  1.951   .     S
Zn1699 O784    1.948   1_565 S
Zn1702 O1223   1.948   1_655 S
Zn1704 O773    1.948   1_565 S
Zn1712 O1234   1.948   1_655 S
