data_str_m3_o10_o17_pcu_sym.166
_audit_creation_date              2020-01-03
_audit_creation_method            'Materials Studio'
_symmetry_space_group_name_H-M    'P1'
_symmetry_Int_Tables_number       1
_symmetry_cell_setting            triclinic
loop_
_symmetry_equiv_pos_as_xyz
  x,y,z
_cell_length_a                    23.7906
_cell_length_b                    26.0852
_cell_length_c                    29.8779
_cell_angle_alpha                 93.7172
_cell_angle_beta                  86.2294
_cell_angle_gamma                 92.5561
loop_
_atom_site_label
_atom_site_type_symbol
_atom_site_fract_x
_atom_site_fract_y
_atom_site_fract_z
_atom_site_U_iso_or_equiv
_atom_site_adp_type
_atom_site_occupancy
O1     O     0.12975   0.24619   0.25298   0.00000  Uiso   1.00
O2     O     0.20358   0.08714   0.24701   0.00000  Uiso   1.00
O3     O     0.22613   0.23721   0.24518   0.00000  Uiso   1.00
O4     O     0.10720   0.09613   0.25482   0.00000  Uiso   1.00
C5     C     0.18117   0.26429   0.24849   0.00000  Uiso   1.00
C6     C     0.15216   0.06904   0.25151   0.00000  Uiso   1.00
O7     O     0.11847   0.17117   0.31998   0.00000  Uiso   1.00
O8     O     0.21486   0.16216   0.18002   0.00000  Uiso   1.00
O9     O     0.21485   0.16219   0.31217   0.00000  Uiso   1.00
O10    O     0.11848   0.17115   0.18782   0.00000  Uiso   1.00
C11    C     0.16732   0.16687   0.33631   0.00000  Uiso   1.00
C12    C     0.16602   0.16647   0.16369   0.00000  Uiso   1.00
Zn13   Zn    0.10231   0.17266   0.25521   0.00000  Uiso   1.00
Zn14   Zn    0.23102   0.16067   0.24479   0.00000  Uiso   1.00
C15    C     0.11951   0.14424   0.09407   0.00000  Uiso   1.00
C16    C     0.21383   0.18909   0.40593   0.00000  Uiso   1.00
C17    C     0.16532   0.16669   0.11584   0.00000  Uiso   1.00
C18    C     0.16801   0.16664   0.38416   0.00000  Uiso   1.00
C19    C     0.21180   0.18826   0.09202   0.00000  Uiso   1.00
C20    C     0.12153   0.14507   0.40798   0.00000  Uiso   1.00
C21    C     0.21251   0.18857   0.04581   0.00000  Uiso   1.00
C22    C     0.12083   0.14477   0.45419   0.00000  Uiso   1.00
C23    C     0.16636   0.16617   0.02329   0.00000  Uiso   1.00
C24    C     0.16698   0.16716   0.47671   0.00000  Uiso   1.00
C25    C     0.11975   0.14274   0.04741   0.00000  Uiso   1.00
C26    C     0.21358   0.19059   0.45259   0.00000  Uiso   1.00
C27    C     0.25838   0.21170   0.02216   0.00000  Uiso   1.00
C28    C     0.07495   0.12163   0.47784   0.00000  Uiso   1.00
C29    C     0.25897   0.21389   0.47569   0.00000  Uiso   1.00
C30    C     0.07436   0.11945   0.02431   0.00000  Uiso   1.00
H31    H     0.08433   0.12771   0.11374   0.00000  Uiso   1.00
H32    H     0.24901   0.20562   0.38626   0.00000  Uiso   1.00
H33    H     0.24705   0.20563   0.10963   0.00000  Uiso   1.00
H34    H     0.08629   0.12770   0.39037   0.00000  Uiso   1.00
H35    H     0.29316   0.22952   0.04001   0.00000  Uiso   1.00
H36    H     0.04017   0.10382   0.45999   0.00000  Uiso   1.00
C37    C     0.18905   0.31828   0.25086   0.00000  Uiso   1.00
C38    C     0.14429   0.01505   0.24914   0.00000  Uiso   1.00
N39    N     0.31678   0.15265   0.23783   0.00000  Uiso   1.00
N40    N     0.01656   0.18068   0.26217   0.00000  Uiso   1.00
N41    N     0.30448   0.24179   0.45300   0.00000  Uiso   1.00
O42    O     0.02268   0.23683   0.46373   0.00000  Uiso   1.00
O43    O     0.29351   0.28002   0.42953   0.00000  Uiso   1.00
N44    N     0.02885   0.09155   0.04700   0.00000  Uiso   1.00
O45    O     0.31066   0.09652   0.03628   0.00000  Uiso   1.00
O46    O     0.03982   0.05332   0.07047   0.00000  Uiso   1.00
N47    N     0.24525   0.00460   0.25845   0.00000  Uiso   1.00
O48    O     0.28579   0.32756   0.22836   0.00000  Uiso   1.00
O49    O     0.25731   0.02340   0.29826   0.00000  Uiso   1.00
N50    N     0.08809   0.32873   0.24155   0.00000  Uiso   1.00
O51    O     0.04754   0.00578   0.27165   0.00000  Uiso   1.00
O52    O     0.07603   0.30994   0.20174   0.00000  Uiso   1.00
C53    C     0.00908   0.13298   0.19500   0.00000  Uiso   1.00
C54    C     0.30550   0.09412   0.16845   0.00000  Uiso   1.00
H55    H     0.27173   0.07630   0.18953   0.00000  Uiso   1.00
H56    H     0.28769   0.11215   0.14018   0.00000  Uiso   1.00
H57    H     0.33148   0.06242   0.15322   0.00000  Uiso   1.00
H58    H     0.02029   0.16571   0.17366   0.00000  Uiso   1.00
H59    H     0.04627   0.11164   0.20101   0.00000  Uiso   1.00
C60    C     0.32426   0.20036   0.30500   0.00000  Uiso   1.00
C61    C     0.02783   0.23921   0.33155   0.00000  Uiso   1.00
H62    H     0.04564   0.22118   0.35982   0.00000  Uiso   1.00
H63    H     0.06161   0.25703   0.31047   0.00000  Uiso   1.00
H64    H     0.00185   0.27091   0.34678   0.00000  Uiso   1.00
H65    H     0.28707   0.22169   0.29899   0.00000  Uiso   1.00
H66    H     0.31304   0.16763   0.32634   0.00000  Uiso   1.00
O67    O     0.46308   0.24619   0.25298   0.00000  Uiso   1.00
O68    O     0.53692   0.08714   0.24701   0.00000  Uiso   1.00
O69    O     0.55946   0.23721   0.24518   0.00000  Uiso   1.00
O70    O     0.44054   0.09613   0.25482   0.00000  Uiso   1.00
C71    C     0.51451   0.26429   0.24849   0.00000  Uiso   1.00
C72    C     0.48549   0.06904   0.25151   0.00000  Uiso   1.00
O73    O     0.45181   0.17117   0.31998   0.00000  Uiso   1.00
O74    O     0.54819   0.16216   0.18002   0.00000  Uiso   1.00
O75    O     0.54819   0.16219   0.31217   0.00000  Uiso   1.00
O76    O     0.45181   0.17115   0.18782   0.00000  Uiso   1.00
C77    C     0.50065   0.16687   0.33631   0.00000  Uiso   1.00
C78    C     0.49935   0.16647   0.16369   0.00000  Uiso   1.00
Zn79   Zn    0.43565   0.17266   0.25521   0.00000  Uiso   1.00
Zn80   Zn    0.56435   0.16067   0.24479   0.00000  Uiso   1.00
C81    C     0.45284   0.14424   0.09407   0.00000  Uiso   1.00
C82    C     0.54716   0.18909   0.40593   0.00000  Uiso   1.00
C83    C     0.49866   0.16669   0.11584   0.00000  Uiso   1.00
C84    C     0.50134   0.16664   0.38416   0.00000  Uiso   1.00
C85    C     0.54513   0.18826   0.09202   0.00000  Uiso   1.00
C86    C     0.45486   0.14507   0.40798   0.00000  Uiso   1.00
C87    C     0.54584   0.18857   0.04581   0.00000  Uiso   1.00
C88    C     0.45416   0.14477   0.45419   0.00000  Uiso   1.00
C89    C     0.49969   0.16617   0.02329   0.00000  Uiso   1.00
C90    C     0.50031   0.16716   0.47671   0.00000  Uiso   1.00
C91    C     0.45308   0.14274   0.04741   0.00000  Uiso   1.00
C92    C     0.54692   0.19059   0.45259   0.00000  Uiso   1.00
C93    C     0.59172   0.21170   0.02216   0.00000  Uiso   1.00
C94    C     0.40828   0.12163   0.47784   0.00000  Uiso   1.00
C95    C     0.59230   0.21389   0.47569   0.00000  Uiso   1.00
C96    C     0.40769   0.11945   0.02431   0.00000  Uiso   1.00
H97    H     0.41766   0.12771   0.11374   0.00000  Uiso   1.00
H98    H     0.58234   0.20562   0.38626   0.00000  Uiso   1.00
H99    H     0.58038   0.20563   0.10963   0.00000  Uiso   1.00
H100   H     0.41962   0.12770   0.39037   0.00000  Uiso   1.00
H101   H     0.62649   0.22952   0.04001   0.00000  Uiso   1.00
H102   H     0.37351   0.10382   0.45999   0.00000  Uiso   1.00
C103   C     0.52238   0.31828   0.25086   0.00000  Uiso   1.00
C104   C     0.47762   0.01505   0.24914   0.00000  Uiso   1.00
N105   N     0.65011   0.15265   0.23783   0.00000  Uiso   1.00
N106   N     0.34989   0.18068   0.26217   0.00000  Uiso   1.00
N107   N     0.63782   0.24179   0.45300   0.00000  Uiso   1.00
O108   O     0.35601   0.23683   0.46373   0.00000  Uiso   1.00
O109   O     0.62684   0.28002   0.42953   0.00000  Uiso   1.00
N110   N     0.36218   0.09155   0.04700   0.00000  Uiso   1.00
O111   O     0.64399   0.09652   0.03628   0.00000  Uiso   1.00
O112   O     0.37315   0.05332   0.07047   0.00000  Uiso   1.00
N113   N     0.57858   0.00460   0.25845   0.00000  Uiso   1.00
O114   O     0.61913   0.32756   0.22836   0.00000  Uiso   1.00
O115   O     0.59064   0.02340   0.29826   0.00000  Uiso   1.00
N116   N     0.42142   0.32873   0.24155   0.00000  Uiso   1.00
O117   O     0.38087   0.00578   0.27165   0.00000  Uiso   1.00
O118   O     0.40936   0.30994   0.20174   0.00000  Uiso   1.00
C119   C     0.34241   0.13298   0.19500   0.00000  Uiso   1.00
C120   C     0.63883   0.09412   0.16845   0.00000  Uiso   1.00
H121   H     0.60506   0.07630   0.18953   0.00000  Uiso   1.00
H122   H     0.62102   0.11215   0.14018   0.00000  Uiso   1.00
H123   H     0.66482   0.06242   0.15322   0.00000  Uiso   1.00
H124   H     0.35362   0.16571   0.17366   0.00000  Uiso   1.00
H125   H     0.37960   0.11164   0.20101   0.00000  Uiso   1.00
C126   C     0.65759   0.20036   0.30500   0.00000  Uiso   1.00
C127   C     0.36117   0.23921   0.33155   0.00000  Uiso   1.00
H128   H     0.37898   0.22118   0.35982   0.00000  Uiso   1.00
H129   H     0.39494   0.25703   0.31047   0.00000  Uiso   1.00
H130   H     0.33518   0.27091   0.34678   0.00000  Uiso   1.00
H131   H     0.62040   0.22169   0.29899   0.00000  Uiso   1.00
H132   H     0.64638   0.16763   0.32634   0.00000  Uiso   1.00
O133   O     0.79642   0.24619   0.25298   0.00000  Uiso   1.00
O134   O     0.87025   0.08714   0.24701   0.00000  Uiso   1.00
O135   O     0.89280   0.23721   0.24518   0.00000  Uiso   1.00
O136   O     0.77387   0.09613   0.25482   0.00000  Uiso   1.00
C137   C     0.84784   0.26429   0.24849   0.00000  Uiso   1.00
C138   C     0.81883   0.06904   0.25151   0.00000  Uiso   1.00
O139   O     0.78514   0.17117   0.31998   0.00000  Uiso   1.00
O140   O     0.88153   0.16216   0.18002   0.00000  Uiso   1.00
O141   O     0.88152   0.16219   0.31217   0.00000  Uiso   1.00
O142   O     0.78515   0.17115   0.18782   0.00000  Uiso   1.00
C143   C     0.83398   0.16687   0.33631   0.00000  Uiso   1.00
C144   C     0.83268   0.16647   0.16369   0.00000  Uiso   1.00
Zn145  Zn    0.76898   0.17266   0.25521   0.00000  Uiso   1.00
Zn146  Zn    0.89769   0.16067   0.24479   0.00000  Uiso   1.00
C147   C     0.78617   0.14424   0.09407   0.00000  Uiso   1.00
C148   C     0.88049   0.18909   0.40593   0.00000  Uiso   1.00
C149   C     0.83199   0.16669   0.11584   0.00000  Uiso   1.00
C150   C     0.83468   0.16664   0.38416   0.00000  Uiso   1.00
C151   C     0.87847   0.18826   0.09202   0.00000  Uiso   1.00
C152   C     0.78820   0.14507   0.40798   0.00000  Uiso   1.00
C153   C     0.87917   0.18857   0.04581   0.00000  Uiso   1.00
C154   C     0.78749   0.14477   0.45419   0.00000  Uiso   1.00
C155   C     0.83302   0.16617   0.02329   0.00000  Uiso   1.00
C156   C     0.83364   0.16716   0.47671   0.00000  Uiso   1.00
C157   C     0.78642   0.14274   0.04741   0.00000  Uiso   1.00
C158   C     0.88025   0.19059   0.45259   0.00000  Uiso   1.00
C159   C     0.92505   0.21170   0.02216   0.00000  Uiso   1.00
C160   C     0.74161   0.12163   0.47784   0.00000  Uiso   1.00
C161   C     0.92564   0.21389   0.47569   0.00000  Uiso   1.00
C162   C     0.74103   0.11945   0.02431   0.00000  Uiso   1.00
H163   H     0.75099   0.12771   0.11374   0.00000  Uiso   1.00
H164   H     0.91567   0.20562   0.38626   0.00000  Uiso   1.00
H165   H     0.91371   0.20563   0.10963   0.00000  Uiso   1.00
H166   H     0.75295   0.12770   0.39037   0.00000  Uiso   1.00
H167   H     0.95982   0.22952   0.04001   0.00000  Uiso   1.00
H168   H     0.70684   0.10382   0.45999   0.00000  Uiso   1.00
C169   C     0.85571   0.31828   0.25086   0.00000  Uiso   1.00
C170   C     0.81095   0.01505   0.24914   0.00000  Uiso   1.00
N171   N     0.98344   0.15265   0.23783   0.00000  Uiso   1.00
N172   N     0.68322   0.18068   0.26217   0.00000  Uiso   1.00
N173   N     0.97115   0.24179   0.45300   0.00000  Uiso   1.00
O174   O     0.68934   0.23683   0.46373   0.00000  Uiso   1.00
O175   O     0.96017   0.28002   0.42953   0.00000  Uiso   1.00
N176   N     0.69551   0.09155   0.04700   0.00000  Uiso   1.00
O177   O     0.97732   0.09652   0.03628   0.00000  Uiso   1.00
O178   O     0.70649   0.05332   0.07047   0.00000  Uiso   1.00
N179   N     0.91191   0.00460   0.25845   0.00000  Uiso   1.00
O180   O     0.95246   0.32756   0.22836   0.00000  Uiso   1.00
O181   O     0.92397   0.02340   0.29826   0.00000  Uiso   1.00
N182   N     0.75475   0.32873   0.24155   0.00000  Uiso   1.00
O183   O     0.71421   0.00578   0.27165   0.00000  Uiso   1.00
O184   O     0.74269   0.30994   0.20174   0.00000  Uiso   1.00
C185   C     0.67574   0.13298   0.19500   0.00000  Uiso   1.00
C186   C     0.97217   0.09412   0.16845   0.00000  Uiso   1.00
H187   H     0.93840   0.07630   0.18953   0.00000  Uiso   1.00
H188   H     0.95435   0.11215   0.14018   0.00000  Uiso   1.00
H189   H     0.99815   0.06242   0.15322   0.00000  Uiso   1.00
H190   H     0.68695   0.16571   0.17366   0.00000  Uiso   1.00
H191   H     0.71293   0.11164   0.20101   0.00000  Uiso   1.00
C192   C     0.99092   0.20036   0.30500   0.00000  Uiso   1.00
C193   C     0.69450   0.23921   0.33155   0.00000  Uiso   1.00
H194   H     0.71231   0.22118   0.35982   0.00000  Uiso   1.00
H195   H     0.72827   0.25703   0.31047   0.00000  Uiso   1.00
H196   H     0.66852   0.27091   0.34678   0.00000  Uiso   1.00
H197   H     0.95373   0.22169   0.29899   0.00000  Uiso   1.00
H198   H     0.97971   0.16763   0.32634   0.00000  Uiso   1.00
O199   O     0.12975   0.57952   0.25298   0.00000  Uiso   1.00
O200   O     0.20358   0.42048   0.24701   0.00000  Uiso   1.00
O201   O     0.22613   0.57054   0.24518   0.00000  Uiso   1.00
O202   O     0.10720   0.42946   0.25482   0.00000  Uiso   1.00
C203   C     0.18117   0.59762   0.24849   0.00000  Uiso   1.00
C204   C     0.15216   0.40238   0.25151   0.00000  Uiso   1.00
O205   O     0.11847   0.50450   0.31998   0.00000  Uiso   1.00
O206   O     0.21486   0.49550   0.18002   0.00000  Uiso   1.00
O207   O     0.21485   0.49552   0.31217   0.00000  Uiso   1.00
O208   O     0.11848   0.50448   0.18782   0.00000  Uiso   1.00
C209   C     0.16732   0.50020   0.33631   0.00000  Uiso   1.00
C210   C     0.16602   0.49980   0.16369   0.00000  Uiso   1.00
Zn211  Zn    0.10231   0.50600   0.25521   0.00000  Uiso   1.00
Zn212  Zn    0.23102   0.49400   0.24479   0.00000  Uiso   1.00
C213   C     0.11951   0.47758   0.09407   0.00000  Uiso   1.00
C214   C     0.21383   0.52243   0.40593   0.00000  Uiso   1.00
C215   C     0.16532   0.50003   0.11584   0.00000  Uiso   1.00
C216   C     0.16801   0.49998   0.38416   0.00000  Uiso   1.00
C217   C     0.21180   0.52159   0.09202   0.00000  Uiso   1.00
C218   C     0.12153   0.47841   0.40798   0.00000  Uiso   1.00
C219   C     0.21251   0.52190   0.04581   0.00000  Uiso   1.00
C220   C     0.12083   0.47810   0.45419   0.00000  Uiso   1.00
C221   C     0.16636   0.49950   0.02329   0.00000  Uiso   1.00
C222   C     0.16698   0.50050   0.47671   0.00000  Uiso   1.00
C223   C     0.11975   0.47608   0.04741   0.00000  Uiso   1.00
C224   C     0.21358   0.52393   0.45259   0.00000  Uiso   1.00
C225   C     0.25838   0.54504   0.02216   0.00000  Uiso   1.00
C226   C     0.07495   0.45497   0.47784   0.00000  Uiso   1.00
C227   C     0.25897   0.54722   0.47569   0.00000  Uiso   1.00
C228   C     0.07436   0.45278   0.02431   0.00000  Uiso   1.00
H229   H     0.08433   0.46105   0.11374   0.00000  Uiso   1.00
H230   H     0.24901   0.53895   0.38626   0.00000  Uiso   1.00
H231   H     0.24705   0.53897   0.10963   0.00000  Uiso   1.00
H232   H     0.08629   0.46103   0.39037   0.00000  Uiso   1.00
H233   H     0.29316   0.56285   0.04001   0.00000  Uiso   1.00
H234   H     0.04017   0.43715   0.45999   0.00000  Uiso   1.00
C235   C     0.18905   0.65161   0.25086   0.00000  Uiso   1.00
C236   C     0.14429   0.34839   0.24914   0.00000  Uiso   1.00
N237   N     0.31678   0.48598   0.23783   0.00000  Uiso   1.00
N238   N     0.01656   0.51402   0.26217   0.00000  Uiso   1.00
N239   N     0.30448   0.57513   0.45300   0.00000  Uiso   1.00
O240   O     0.02268   0.57016   0.46373   0.00000  Uiso   1.00
O241   O     0.29351   0.61335   0.42953   0.00000  Uiso   1.00
N242   N     0.02885   0.42488   0.04700   0.00000  Uiso   1.00
O243   O     0.31066   0.42985   0.03628   0.00000  Uiso   1.00
O244   O     0.03982   0.38665   0.07047   0.00000  Uiso   1.00
N245   N     0.24525   0.33793   0.25845   0.00000  Uiso   1.00
O246   O     0.28579   0.66089   0.22836   0.00000  Uiso   1.00
O247   O     0.25731   0.35673   0.29826   0.00000  Uiso   1.00
N248   N     0.08809   0.66206   0.24155   0.00000  Uiso   1.00
O249   O     0.04754   0.33911   0.27165   0.00000  Uiso   1.00
O250   O     0.07603   0.64327   0.20174   0.00000  Uiso   1.00
C251   C     0.00908   0.46631   0.19500   0.00000  Uiso   1.00
C252   C     0.30550   0.42745   0.16845   0.00000  Uiso   1.00
H253   H     0.27173   0.40964   0.18953   0.00000  Uiso   1.00
H254   H     0.28769   0.44549   0.14018   0.00000  Uiso   1.00
H255   H     0.33148   0.39575   0.15322   0.00000  Uiso   1.00
H256   H     0.02029   0.49904   0.17366   0.00000  Uiso   1.00
H257   H     0.04627   0.44497   0.20101   0.00000  Uiso   1.00
C258   C     0.32426   0.53369   0.30500   0.00000  Uiso   1.00
C259   C     0.02783   0.57255   0.33155   0.00000  Uiso   1.00
H260   H     0.04564   0.55451   0.35982   0.00000  Uiso   1.00
H261   H     0.06161   0.59036   0.31047   0.00000  Uiso   1.00
H262   H     0.00185   0.60425   0.34678   0.00000  Uiso   1.00
H263   H     0.28707   0.55502   0.29899   0.00000  Uiso   1.00
H264   H     0.31304   0.50096   0.32634   0.00000  Uiso   1.00
O265   O     0.46308   0.57952   0.25298   0.00000  Uiso   1.00
O266   O     0.53692   0.42048   0.24701   0.00000  Uiso   1.00
O267   O     0.55946   0.57054   0.24518   0.00000  Uiso   1.00
O268   O     0.44054   0.42946   0.25482   0.00000  Uiso   1.00
C269   C     0.51451   0.59762   0.24849   0.00000  Uiso   1.00
C270   C     0.48549   0.40238   0.25151   0.00000  Uiso   1.00
O271   O     0.45181   0.50450   0.31998   0.00000  Uiso   1.00
O272   O     0.54819   0.49550   0.18002   0.00000  Uiso   1.00
O273   O     0.54819   0.49552   0.31217   0.00000  Uiso   1.00
O274   O     0.45181   0.50448   0.18782   0.00000  Uiso   1.00
C275   C     0.50065   0.50020   0.33631   0.00000  Uiso   1.00
C276   C     0.49935   0.49980   0.16369   0.00000  Uiso   1.00
Zn277  Zn    0.43565   0.50600   0.25521   0.00000  Uiso   1.00
Zn278  Zn    0.56435   0.49400   0.24479   0.00000  Uiso   1.00
C279   C     0.45284   0.47758   0.09407   0.00000  Uiso   1.00
C280   C     0.54716   0.52243   0.40593   0.00000  Uiso   1.00
C281   C     0.49866   0.50003   0.11584   0.00000  Uiso   1.00
C282   C     0.50134   0.49998   0.38416   0.00000  Uiso   1.00
C283   C     0.54513   0.52159   0.09202   0.00000  Uiso   1.00
C284   C     0.45486   0.47841   0.40798   0.00000  Uiso   1.00
C285   C     0.54584   0.52190   0.04581   0.00000  Uiso   1.00
C286   C     0.45416   0.47810   0.45419   0.00000  Uiso   1.00
C287   C     0.49969   0.49950   0.02329   0.00000  Uiso   1.00
C288   C     0.50031   0.50050   0.47671   0.00000  Uiso   1.00
C289   C     0.45308   0.47608   0.04741   0.00000  Uiso   1.00
C290   C     0.54692   0.52393   0.45259   0.00000  Uiso   1.00
C291   C     0.59172   0.54504   0.02216   0.00000  Uiso   1.00
C292   C     0.40828   0.45497   0.47784   0.00000  Uiso   1.00
C293   C     0.59230   0.54722   0.47569   0.00000  Uiso   1.00
C294   C     0.40769   0.45278   0.02431   0.00000  Uiso   1.00
H295   H     0.41766   0.46105   0.11374   0.00000  Uiso   1.00
H296   H     0.58234   0.53895   0.38626   0.00000  Uiso   1.00
H297   H     0.58038   0.53897   0.10963   0.00000  Uiso   1.00
H298   H     0.41962   0.46103   0.39037   0.00000  Uiso   1.00
H299   H     0.62649   0.56285   0.04001   0.00000  Uiso   1.00
H300   H     0.37351   0.43715   0.45999   0.00000  Uiso   1.00
C301   C     0.52238   0.65161   0.25086   0.00000  Uiso   1.00
C302   C     0.47762   0.34839   0.24914   0.00000  Uiso   1.00
N303   N     0.65011   0.48598   0.23783   0.00000  Uiso   1.00
N304   N     0.34989   0.51402   0.26217   0.00000  Uiso   1.00
N305   N     0.63782   0.57513   0.45300   0.00000  Uiso   1.00
O306   O     0.35601   0.57016   0.46373   0.00000  Uiso   1.00
O307   O     0.62684   0.61335   0.42953   0.00000  Uiso   1.00
N308   N     0.36218   0.42488   0.04700   0.00000  Uiso   1.00
O309   O     0.64399   0.42985   0.03628   0.00000  Uiso   1.00
O310   O     0.37315   0.38665   0.07047   0.00000  Uiso   1.00
N311   N     0.57858   0.33793   0.25845   0.00000  Uiso   1.00
O312   O     0.61913   0.66089   0.22836   0.00000  Uiso   1.00
O313   O     0.59064   0.35673   0.29826   0.00000  Uiso   1.00
N314   N     0.42142   0.66206   0.24155   0.00000  Uiso   1.00
O315   O     0.38087   0.33911   0.27165   0.00000  Uiso   1.00
O316   O     0.40936   0.64327   0.20174   0.00000  Uiso   1.00
C317   C     0.34241   0.46631   0.19500   0.00000  Uiso   1.00
C318   C     0.63883   0.42745   0.16845   0.00000  Uiso   1.00
H319   H     0.60506   0.40964   0.18953   0.00000  Uiso   1.00
H320   H     0.62102   0.44549   0.14018   0.00000  Uiso   1.00
H321   H     0.66482   0.39575   0.15322   0.00000  Uiso   1.00
H322   H     0.35362   0.49904   0.17366   0.00000  Uiso   1.00
H323   H     0.37960   0.44497   0.20101   0.00000  Uiso   1.00
C324   C     0.65759   0.53369   0.30500   0.00000  Uiso   1.00
C325   C     0.36117   0.57255   0.33155   0.00000  Uiso   1.00
H326   H     0.37898   0.55451   0.35982   0.00000  Uiso   1.00
H327   H     0.39494   0.59036   0.31047   0.00000  Uiso   1.00
H328   H     0.33518   0.60425   0.34678   0.00000  Uiso   1.00
H329   H     0.62040   0.55502   0.29899   0.00000  Uiso   1.00
H330   H     0.64638   0.50096   0.32634   0.00000  Uiso   1.00
O331   O     0.79642   0.57952   0.25298   0.00000  Uiso   1.00
O332   O     0.87025   0.42048   0.24701   0.00000  Uiso   1.00
O333   O     0.89280   0.57054   0.24518   0.00000  Uiso   1.00
O334   O     0.77387   0.42946   0.25482   0.00000  Uiso   1.00
C335   C     0.84784   0.59762   0.24849   0.00000  Uiso   1.00
C336   C     0.81883   0.40238   0.25151   0.00000  Uiso   1.00
O337   O     0.78514   0.50450   0.31998   0.00000  Uiso   1.00
O338   O     0.88153   0.49550   0.18002   0.00000  Uiso   1.00
O339   O     0.88152   0.49552   0.31217   0.00000  Uiso   1.00
O340   O     0.78515   0.50448   0.18782   0.00000  Uiso   1.00
C341   C     0.83398   0.50020   0.33631   0.00000  Uiso   1.00
C342   C     0.83268   0.49980   0.16369   0.00000  Uiso   1.00
Zn343  Zn    0.76898   0.50600   0.25521   0.00000  Uiso   1.00
Zn344  Zn    0.89769   0.49400   0.24479   0.00000  Uiso   1.00
C345   C     0.78617   0.47758   0.09407   0.00000  Uiso   1.00
C346   C     0.88049   0.52243   0.40593   0.00000  Uiso   1.00
C347   C     0.83199   0.50003   0.11584   0.00000  Uiso   1.00
C348   C     0.83468   0.49998   0.38416   0.00000  Uiso   1.00
C349   C     0.87847   0.52159   0.09202   0.00000  Uiso   1.00
C350   C     0.78820   0.47841   0.40798   0.00000  Uiso   1.00
C351   C     0.87917   0.52190   0.04581   0.00000  Uiso   1.00
C352   C     0.78749   0.47810   0.45419   0.00000  Uiso   1.00
C353   C     0.83302   0.49950   0.02329   0.00000  Uiso   1.00
C354   C     0.83364   0.50050   0.47671   0.00000  Uiso   1.00
C355   C     0.78642   0.47608   0.04741   0.00000  Uiso   1.00
C356   C     0.88025   0.52393   0.45259   0.00000  Uiso   1.00
C357   C     0.92505   0.54504   0.02216   0.00000  Uiso   1.00
C358   C     0.74161   0.45497   0.47784   0.00000  Uiso   1.00
C359   C     0.92564   0.54722   0.47569   0.00000  Uiso   1.00
C360   C     0.74103   0.45278   0.02431   0.00000  Uiso   1.00
H361   H     0.75099   0.46105   0.11374   0.00000  Uiso   1.00
H362   H     0.91567   0.53895   0.38626   0.00000  Uiso   1.00
H363   H     0.91371   0.53897   0.10963   0.00000  Uiso   1.00
H364   H     0.75295   0.46103   0.39037   0.00000  Uiso   1.00
H365   H     0.95982   0.56285   0.04001   0.00000  Uiso   1.00
H366   H     0.70684   0.43715   0.45999   0.00000  Uiso   1.00
C367   C     0.85571   0.65161   0.25086   0.00000  Uiso   1.00
C368   C     0.81095   0.34839   0.24914   0.00000  Uiso   1.00
N369   N     0.98344   0.48598   0.23783   0.00000  Uiso   1.00
N370   N     0.68322   0.51402   0.26217   0.00000  Uiso   1.00
N371   N     0.97115   0.57513   0.45300   0.00000  Uiso   1.00
O372   O     0.68934   0.57016   0.46373   0.00000  Uiso   1.00
O373   O     0.96017   0.61335   0.42953   0.00000  Uiso   1.00
N374   N     0.69551   0.42488   0.04700   0.00000  Uiso   1.00
O375   O     0.97732   0.42985   0.03628   0.00000  Uiso   1.00
O376   O     0.70649   0.38665   0.07047   0.00000  Uiso   1.00
N377   N     0.91191   0.33793   0.25845   0.00000  Uiso   1.00
O378   O     0.95246   0.66089   0.22836   0.00000  Uiso   1.00
O379   O     0.92397   0.35673   0.29826   0.00000  Uiso   1.00
N380   N     0.75475   0.66206   0.24155   0.00000  Uiso   1.00
O381   O     0.71421   0.33911   0.27165   0.00000  Uiso   1.00
O382   O     0.74269   0.64327   0.20174   0.00000  Uiso   1.00
C383   C     0.67574   0.46631   0.19500   0.00000  Uiso   1.00
C384   C     0.97217   0.42745   0.16845   0.00000  Uiso   1.00
H385   H     0.93840   0.40964   0.18953   0.00000  Uiso   1.00
H386   H     0.95435   0.44549   0.14018   0.00000  Uiso   1.00
H387   H     0.99815   0.39575   0.15322   0.00000  Uiso   1.00
H388   H     0.68695   0.49904   0.17366   0.00000  Uiso   1.00
H389   H     0.71293   0.44497   0.20101   0.00000  Uiso   1.00
C390   C     0.99092   0.53369   0.30500   0.00000  Uiso   1.00
C391   C     0.69450   0.57255   0.33155   0.00000  Uiso   1.00
H392   H     0.71231   0.55451   0.35982   0.00000  Uiso   1.00
H393   H     0.72827   0.59036   0.31047   0.00000  Uiso   1.00
H394   H     0.66852   0.60425   0.34678   0.00000  Uiso   1.00
H395   H     0.95373   0.55502   0.29899   0.00000  Uiso   1.00
H396   H     0.97971   0.50096   0.32634   0.00000  Uiso   1.00
O397   O     0.12975   0.91286   0.25298   0.00000  Uiso   1.00
O398   O     0.20358   0.75381   0.24701   0.00000  Uiso   1.00
O399   O     0.22613   0.90387   0.24518   0.00000  Uiso   1.00
O400   O     0.10720   0.76279   0.25482   0.00000  Uiso   1.00
C401   C     0.18117   0.93096   0.24849   0.00000  Uiso   1.00
C402   C     0.15216   0.73571   0.25151   0.00000  Uiso   1.00
O403   O     0.11847   0.83784   0.31998   0.00000  Uiso   1.00
O404   O     0.21486   0.82883   0.18002   0.00000  Uiso   1.00
O405   O     0.21485   0.82885   0.31217   0.00000  Uiso   1.00
O406   O     0.11848   0.83781   0.18782   0.00000  Uiso   1.00
C407   C     0.16732   0.83353   0.33631   0.00000  Uiso   1.00
C408   C     0.16602   0.83313   0.16369   0.00000  Uiso   1.00
Zn409  Zn    0.10231   0.83933   0.25521   0.00000  Uiso   1.00
Zn410  Zn    0.23102   0.82734   0.24479   0.00000  Uiso   1.00
C411   C     0.11951   0.81091   0.09407   0.00000  Uiso   1.00
C412   C     0.21383   0.85576   0.40593   0.00000  Uiso   1.00
C413   C     0.16532   0.83336   0.11584   0.00000  Uiso   1.00
C414   C     0.16801   0.83331   0.38416   0.00000  Uiso   1.00
C415   C     0.21180   0.85493   0.09202   0.00000  Uiso   1.00
C416   C     0.12153   0.81174   0.40798   0.00000  Uiso   1.00
C417   C     0.21251   0.85523   0.04581   0.00000  Uiso   1.00
C418   C     0.12083   0.81144   0.45419   0.00000  Uiso   1.00
C419   C     0.16636   0.83284   0.02329   0.00000  Uiso   1.00
C420   C     0.16698   0.83383   0.47671   0.00000  Uiso   1.00
C421   C     0.11975   0.80941   0.04741   0.00000  Uiso   1.00
C422   C     0.21358   0.85726   0.45259   0.00000  Uiso   1.00
C423   C     0.25838   0.87837   0.02216   0.00000  Uiso   1.00
C424   C     0.07495   0.78830   0.47784   0.00000  Uiso   1.00
C425   C     0.25897   0.88055   0.47569   0.00000  Uiso   1.00
C426   C     0.07436   0.78612   0.02431   0.00000  Uiso   1.00
H427   H     0.08433   0.79438   0.11374   0.00000  Uiso   1.00
H428   H     0.24901   0.87229   0.38626   0.00000  Uiso   1.00
H429   H     0.24705   0.87230   0.10963   0.00000  Uiso   1.00
H430   H     0.08629   0.79437   0.39037   0.00000  Uiso   1.00
H431   H     0.29316   0.89619   0.04001   0.00000  Uiso   1.00
H432   H     0.04017   0.77049   0.45999   0.00000  Uiso   1.00
C433   C     0.18905   0.98495   0.25086   0.00000  Uiso   1.00
C434   C     0.14429   0.68172   0.24914   0.00000  Uiso   1.00
N435   N     0.31678   0.81932   0.23783   0.00000  Uiso   1.00
N436   N     0.01656   0.84735   0.26217   0.00000  Uiso   1.00
N437   N     0.30448   0.90846   0.45300   0.00000  Uiso   1.00
O438   O     0.02268   0.90350   0.46373   0.00000  Uiso   1.00
O439   O     0.29351   0.94668   0.42953   0.00000  Uiso   1.00
N440   N     0.02885   0.75821   0.04700   0.00000  Uiso   1.00
O441   O     0.31066   0.76319   0.03628   0.00000  Uiso   1.00
O442   O     0.03982   0.71999   0.07047   0.00000  Uiso   1.00
N443   N     0.24525   0.67127   0.25845   0.00000  Uiso   1.00
O444   O     0.28579   0.99422   0.22836   0.00000  Uiso   1.00
O445   O     0.25731   0.69006   0.29826   0.00000  Uiso   1.00
N446   N     0.08809   0.99540   0.24155   0.00000  Uiso   1.00
O447   O     0.04754   0.67244   0.27165   0.00000  Uiso   1.00
O448   O     0.07603   0.97661   0.20174   0.00000  Uiso   1.00
C449   C     0.00908   0.79964   0.19500   0.00000  Uiso   1.00
C450   C     0.30550   0.76079   0.16845   0.00000  Uiso   1.00
H451   H     0.27173   0.74297   0.18953   0.00000  Uiso   1.00
H452   H     0.28769   0.77882   0.14018   0.00000  Uiso   1.00
H453   H     0.33148   0.72909   0.15322   0.00000  Uiso   1.00
H454   H     0.02029   0.83237   0.17366   0.00000  Uiso   1.00
H455   H     0.04627   0.77831   0.20101   0.00000  Uiso   1.00
C456   C     0.32426   0.86702   0.30500   0.00000  Uiso   1.00
C457   C     0.02783   0.90588   0.33155   0.00000  Uiso   1.00
H458   H     0.04564   0.88785   0.35982   0.00000  Uiso   1.00
H459   H     0.06161   0.92369   0.31047   0.00000  Uiso   1.00
H460   H     0.00185   0.93758   0.34678   0.00000  Uiso   1.00
H461   H     0.28707   0.88836   0.29899   0.00000  Uiso   1.00
H462   H     0.31304   0.83429   0.32634   0.00000  Uiso   1.00
O463   O     0.46308   0.91286   0.25298   0.00000  Uiso   1.00
O464   O     0.53692   0.75381   0.24701   0.00000  Uiso   1.00
O465   O     0.55946   0.90387   0.24518   0.00000  Uiso   1.00
O466   O     0.44054   0.76279   0.25482   0.00000  Uiso   1.00
C467   C     0.51451   0.93096   0.24849   0.00000  Uiso   1.00
C468   C     0.48549   0.73571   0.25151   0.00000  Uiso   1.00
O469   O     0.45181   0.83784   0.31998   0.00000  Uiso   1.00
O470   O     0.54819   0.82883   0.18002   0.00000  Uiso   1.00
O471   O     0.54819   0.82885   0.31217   0.00000  Uiso   1.00
O472   O     0.45181   0.83781   0.18782   0.00000  Uiso   1.00
C473   C     0.50065   0.83353   0.33631   0.00000  Uiso   1.00
C474   C     0.49935   0.83313   0.16369   0.00000  Uiso   1.00
Zn475  Zn    0.43565   0.83933   0.25521   0.00000  Uiso   1.00
Zn476  Zn    0.56435   0.82734   0.24479   0.00000  Uiso   1.00
C477   C     0.45284   0.81091   0.09407   0.00000  Uiso   1.00
C478   C     0.54716   0.85576   0.40593   0.00000  Uiso   1.00
C479   C     0.49866   0.83336   0.11584   0.00000  Uiso   1.00
C480   C     0.50134   0.83331   0.38416   0.00000  Uiso   1.00
C481   C     0.54513   0.85493   0.09202   0.00000  Uiso   1.00
C482   C     0.45486   0.81174   0.40798   0.00000  Uiso   1.00
C483   C     0.54584   0.85523   0.04581   0.00000  Uiso   1.00
C484   C     0.45416   0.81144   0.45419   0.00000  Uiso   1.00
C485   C     0.49969   0.83284   0.02329   0.00000  Uiso   1.00
C486   C     0.50031   0.83383   0.47671   0.00000  Uiso   1.00
C487   C     0.45308   0.80941   0.04741   0.00000  Uiso   1.00
C488   C     0.54692   0.85726   0.45259   0.00000  Uiso   1.00
C489   C     0.59172   0.87837   0.02216   0.00000  Uiso   1.00
C490   C     0.40828   0.78830   0.47784   0.00000  Uiso   1.00
C491   C     0.59230   0.88055   0.47569   0.00000  Uiso   1.00
C492   C     0.40769   0.78612   0.02431   0.00000  Uiso   1.00
H493   H     0.41766   0.79438   0.11374   0.00000  Uiso   1.00
H494   H     0.58234   0.87229   0.38626   0.00000  Uiso   1.00
H495   H     0.58038   0.87230   0.10963   0.00000  Uiso   1.00
H496   H     0.41962   0.79437   0.39037   0.00000  Uiso   1.00
H497   H     0.62649   0.89619   0.04001   0.00000  Uiso   1.00
H498   H     0.37351   0.77049   0.45999   0.00000  Uiso   1.00
C499   C     0.52238   0.98495   0.25086   0.00000  Uiso   1.00
C500   C     0.47762   0.68172   0.24914   0.00000  Uiso   1.00
N501   N     0.65011   0.81932   0.23783   0.00000  Uiso   1.00
N502   N     0.34989   0.84735   0.26217   0.00000  Uiso   1.00
N503   N     0.63782   0.90846   0.45300   0.00000  Uiso   1.00
O504   O     0.35601   0.90350   0.46373   0.00000  Uiso   1.00
O505   O     0.62684   0.94668   0.42953   0.00000  Uiso   1.00
N506   N     0.36218   0.75821   0.04700   0.00000  Uiso   1.00
O507   O     0.64399   0.76319   0.03628   0.00000  Uiso   1.00
O508   O     0.37315   0.71999   0.07047   0.00000  Uiso   1.00
N509   N     0.57858   0.67127   0.25845   0.00000  Uiso   1.00
O510   O     0.61913   0.99422   0.22836   0.00000  Uiso   1.00
O511   O     0.59064   0.69006   0.29826   0.00000  Uiso   1.00
N512   N     0.42142   0.99540   0.24155   0.00000  Uiso   1.00
O513   O     0.38087   0.67244   0.27165   0.00000  Uiso   1.00
O514   O     0.40936   0.97661   0.20174   0.00000  Uiso   1.00
C515   C     0.34241   0.79964   0.19500   0.00000  Uiso   1.00
C516   C     0.63883   0.76079   0.16845   0.00000  Uiso   1.00
H517   H     0.60506   0.74297   0.18953   0.00000  Uiso   1.00
H518   H     0.62102   0.77882   0.14018   0.00000  Uiso   1.00
H519   H     0.66482   0.72909   0.15322   0.00000  Uiso   1.00
H520   H     0.35362   0.83237   0.17366   0.00000  Uiso   1.00
H521   H     0.37960   0.77831   0.20101   0.00000  Uiso   1.00
C522   C     0.65759   0.86702   0.30500   0.00000  Uiso   1.00
C523   C     0.36117   0.90588   0.33155   0.00000  Uiso   1.00
H524   H     0.37898   0.88785   0.35982   0.00000  Uiso   1.00
H525   H     0.39494   0.92369   0.31047   0.00000  Uiso   1.00
H526   H     0.33518   0.93758   0.34678   0.00000  Uiso   1.00
H527   H     0.62040   0.88836   0.29899   0.00000  Uiso   1.00
H528   H     0.64638   0.83429   0.32634   0.00000  Uiso   1.00
O529   O     0.79642   0.91286   0.25298   0.00000  Uiso   1.00
O530   O     0.87025   0.75381   0.24701   0.00000  Uiso   1.00
O531   O     0.89280   0.90387   0.24518   0.00000  Uiso   1.00
O532   O     0.77387   0.76279   0.25482   0.00000  Uiso   1.00
C533   C     0.84784   0.93096   0.24849   0.00000  Uiso   1.00
C534   C     0.81883   0.73571   0.25151   0.00000  Uiso   1.00
O535   O     0.78514   0.83784   0.31998   0.00000  Uiso   1.00
O536   O     0.88153   0.82883   0.18002   0.00000  Uiso   1.00
O537   O     0.88152   0.82885   0.31217   0.00000  Uiso   1.00
O538   O     0.78515   0.83781   0.18782   0.00000  Uiso   1.00
C539   C     0.83398   0.83353   0.33631   0.00000  Uiso   1.00
C540   C     0.83268   0.83313   0.16369   0.00000  Uiso   1.00
Zn541  Zn    0.76898   0.83933   0.25521   0.00000  Uiso   1.00
Zn542  Zn    0.89769   0.82734   0.24479   0.00000  Uiso   1.00
C543   C     0.78617   0.81091   0.09407   0.00000  Uiso   1.00
C544   C     0.88049   0.85576   0.40593   0.00000  Uiso   1.00
C545   C     0.83199   0.83336   0.11584   0.00000  Uiso   1.00
C546   C     0.83468   0.83331   0.38416   0.00000  Uiso   1.00
C547   C     0.87847   0.85493   0.09202   0.00000  Uiso   1.00
C548   C     0.78820   0.81174   0.40798   0.00000  Uiso   1.00
C549   C     0.87917   0.85523   0.04581   0.00000  Uiso   1.00
C550   C     0.78749   0.81144   0.45419   0.00000  Uiso   1.00
C551   C     0.83302   0.83284   0.02329   0.00000  Uiso   1.00
C552   C     0.83364   0.83383   0.47671   0.00000  Uiso   1.00
C553   C     0.78642   0.80941   0.04741   0.00000  Uiso   1.00
C554   C     0.88025   0.85726   0.45259   0.00000  Uiso   1.00
C555   C     0.92505   0.87837   0.02216   0.00000  Uiso   1.00
C556   C     0.74161   0.78830   0.47784   0.00000  Uiso   1.00
C557   C     0.92564   0.88055   0.47569   0.00000  Uiso   1.00
C558   C     0.74103   0.78612   0.02431   0.00000  Uiso   1.00
H559   H     0.75099   0.79438   0.11374   0.00000  Uiso   1.00
H560   H     0.91567   0.87229   0.38626   0.00000  Uiso   1.00
H561   H     0.91371   0.87230   0.10963   0.00000  Uiso   1.00
H562   H     0.75295   0.79437   0.39037   0.00000  Uiso   1.00
H563   H     0.95982   0.89619   0.04001   0.00000  Uiso   1.00
H564   H     0.70684   0.77049   0.45999   0.00000  Uiso   1.00
C565   C     0.85571   0.98495   0.25086   0.00000  Uiso   1.00
C566   C     0.81095   0.68172   0.24914   0.00000  Uiso   1.00
N567   N     0.98344   0.81932   0.23783   0.00000  Uiso   1.00
N568   N     0.68322   0.84735   0.26217   0.00000  Uiso   1.00
N569   N     0.97115   0.90846   0.45300   0.00000  Uiso   1.00
O570   O     0.68934   0.90350   0.46373   0.00000  Uiso   1.00
O571   O     0.96017   0.94668   0.42953   0.00000  Uiso   1.00
N572   N     0.69551   0.75821   0.04700   0.00000  Uiso   1.00
O573   O     0.97732   0.76319   0.03628   0.00000  Uiso   1.00
O574   O     0.70649   0.71999   0.07047   0.00000  Uiso   1.00
N575   N     0.91191   0.67127   0.25845   0.00000  Uiso   1.00
O576   O     0.95246   0.99422   0.22836   0.00000  Uiso   1.00
O577   O     0.92397   0.69006   0.29826   0.00000  Uiso   1.00
N578   N     0.75475   0.99540   0.24155   0.00000  Uiso   1.00
O579   O     0.71421   0.67244   0.27165   0.00000  Uiso   1.00
O580   O     0.74269   0.97661   0.20174   0.00000  Uiso   1.00
C581   C     0.67574   0.79964   0.19500   0.00000  Uiso   1.00
C582   C     0.97217   0.76079   0.16845   0.00000  Uiso   1.00
H583   H     0.93840   0.74297   0.18953   0.00000  Uiso   1.00
H584   H     0.95435   0.77882   0.14018   0.00000  Uiso   1.00
H585   H     0.99815   0.72909   0.15322   0.00000  Uiso   1.00
H586   H     0.68695   0.83237   0.17366   0.00000  Uiso   1.00
H587   H     0.71293   0.77831   0.20101   0.00000  Uiso   1.00
C588   C     0.99092   0.86702   0.30500   0.00000  Uiso   1.00
C589   C     0.69450   0.90588   0.33155   0.00000  Uiso   1.00
H590   H     0.71231   0.88785   0.35982   0.00000  Uiso   1.00
H591   H     0.72827   0.92369   0.31047   0.00000  Uiso   1.00
H592   H     0.66852   0.93758   0.34678   0.00000  Uiso   1.00
H593   H     0.95373   0.88836   0.29899   0.00000  Uiso   1.00
H594   H     0.97971   0.83429   0.32634   0.00000  Uiso   1.00
O595   O     0.12975   0.24619   0.75298   0.00000  Uiso   1.00
O596   O     0.20358   0.08714   0.74701   0.00000  Uiso   1.00
O597   O     0.22613   0.23721   0.74518   0.00000  Uiso   1.00
O598   O     0.10720   0.09613   0.75482   0.00000  Uiso   1.00
C599   C     0.18117   0.26429   0.74849   0.00000  Uiso   1.00
C600   C     0.15216   0.06904   0.75151   0.00000  Uiso   1.00
O601   O     0.11847   0.17117   0.81998   0.00000  Uiso   1.00
O602   O     0.21486   0.16216   0.68002   0.00000  Uiso   1.00
O603   O     0.21485   0.16219   0.81217   0.00000  Uiso   1.00
O604   O     0.11848   0.17115   0.68782   0.00000  Uiso   1.00
C605   C     0.16732   0.16687   0.83631   0.00000  Uiso   1.00
C606   C     0.16602   0.16647   0.66369   0.00000  Uiso   1.00
Zn607  Zn    0.10231   0.17266   0.75521   0.00000  Uiso   1.00
Zn608  Zn    0.23102   0.16067   0.74479   0.00000  Uiso   1.00
C609   C     0.11951   0.14424   0.59407   0.00000  Uiso   1.00
C610   C     0.21383   0.18909   0.90593   0.00000  Uiso   1.00
C611   C     0.16532   0.16669   0.61584   0.00000  Uiso   1.00
C612   C     0.16801   0.16664   0.88416   0.00000  Uiso   1.00
C613   C     0.21180   0.18826   0.59202   0.00000  Uiso   1.00
C614   C     0.12153   0.14507   0.90798   0.00000  Uiso   1.00
C615   C     0.21251   0.18857   0.54581   0.00000  Uiso   1.00
C616   C     0.12083   0.14477   0.95419   0.00000  Uiso   1.00
C617   C     0.16636   0.16617   0.52329   0.00000  Uiso   1.00
C618   C     0.16698   0.16716   0.97671   0.00000  Uiso   1.00
C619   C     0.11975   0.14274   0.54741   0.00000  Uiso   1.00
C620   C     0.21358   0.19059   0.95259   0.00000  Uiso   1.00
C621   C     0.25838   0.21170   0.52216   0.00000  Uiso   1.00
C622   C     0.07495   0.12163   0.97784   0.00000  Uiso   1.00
C623   C     0.25897   0.21389   0.97569   0.00000  Uiso   1.00
C624   C     0.07436   0.11945   0.52431   0.00000  Uiso   1.00
H625   H     0.08433   0.12771   0.61374   0.00000  Uiso   1.00
H626   H     0.24901   0.20562   0.88626   0.00000  Uiso   1.00
H627   H     0.24705   0.20563   0.60963   0.00000  Uiso   1.00
H628   H     0.08629   0.12770   0.89037   0.00000  Uiso   1.00
H629   H     0.29316   0.22952   0.54001   0.00000  Uiso   1.00
H630   H     0.04017   0.10382   0.95999   0.00000  Uiso   1.00
C631   C     0.18905   0.31828   0.75086   0.00000  Uiso   1.00
C632   C     0.14429   0.01505   0.74914   0.00000  Uiso   1.00
N633   N     0.31678   0.15265   0.73783   0.00000  Uiso   1.00
N634   N     0.01656   0.18068   0.76217   0.00000  Uiso   1.00
N635   N     0.30448   0.24179   0.95300   0.00000  Uiso   1.00
O636   O     0.02268   0.23683   0.96373   0.00000  Uiso   1.00
O637   O     0.29351   0.28002   0.92953   0.00000  Uiso   1.00
N638   N     0.02885   0.09155   0.54700   0.00000  Uiso   1.00
O639   O     0.31066   0.09652   0.53628   0.00000  Uiso   1.00
O640   O     0.03982   0.05332   0.57047   0.00000  Uiso   1.00
N641   N     0.24525   0.00460   0.75845   0.00000  Uiso   1.00
O642   O     0.28579   0.32756   0.72836   0.00000  Uiso   1.00
O643   O     0.25731   0.02340   0.79826   0.00000  Uiso   1.00
N644   N     0.08809   0.32873   0.74155   0.00000  Uiso   1.00
O645   O     0.04754   0.00578   0.77165   0.00000  Uiso   1.00
O646   O     0.07603   0.30994   0.70174   0.00000  Uiso   1.00
C647   C     0.00908   0.13298   0.69500   0.00000  Uiso   1.00
C648   C     0.30550   0.09412   0.66845   0.00000  Uiso   1.00
H649   H     0.27173   0.07630   0.68953   0.00000  Uiso   1.00
H650   H     0.28769   0.11215   0.64018   0.00000  Uiso   1.00
H651   H     0.33148   0.06242   0.65322   0.00000  Uiso   1.00
H652   H     0.02029   0.16571   0.67366   0.00000  Uiso   1.00
H653   H     0.04627   0.11164   0.70101   0.00000  Uiso   1.00
C654   C     0.32426   0.20036   0.80500   0.00000  Uiso   1.00
C655   C     0.02783   0.23921   0.83155   0.00000  Uiso   1.00
H656   H     0.04564   0.22118   0.85982   0.00000  Uiso   1.00
H657   H     0.06161   0.25703   0.81047   0.00000  Uiso   1.00
H658   H     0.00185   0.27091   0.84678   0.00000  Uiso   1.00
H659   H     0.28707   0.22169   0.79899   0.00000  Uiso   1.00
H660   H     0.31304   0.16763   0.82634   0.00000  Uiso   1.00
O661   O     0.46308   0.24619   0.75298   0.00000  Uiso   1.00
O662   O     0.53692   0.08714   0.74701   0.00000  Uiso   1.00
O663   O     0.55946   0.23721   0.74518   0.00000  Uiso   1.00
O664   O     0.44054   0.09613   0.75482   0.00000  Uiso   1.00
C665   C     0.51451   0.26429   0.74849   0.00000  Uiso   1.00
C666   C     0.48549   0.06904   0.75151   0.00000  Uiso   1.00
O667   O     0.45181   0.17117   0.81998   0.00000  Uiso   1.00
O668   O     0.54819   0.16216   0.68002   0.00000  Uiso   1.00
O669   O     0.54819   0.16219   0.81217   0.00000  Uiso   1.00
O670   O     0.45181   0.17115   0.68782   0.00000  Uiso   1.00
C671   C     0.50065   0.16687   0.83631   0.00000  Uiso   1.00
C672   C     0.49935   0.16647   0.66369   0.00000  Uiso   1.00
Zn673  Zn    0.43565   0.17266   0.75521   0.00000  Uiso   1.00
Zn674  Zn    0.56435   0.16067   0.74479   0.00000  Uiso   1.00
C675   C     0.45284   0.14424   0.59407   0.00000  Uiso   1.00
C676   C     0.54716   0.18909   0.90593   0.00000  Uiso   1.00
C677   C     0.49866   0.16669   0.61584   0.00000  Uiso   1.00
C678   C     0.50134   0.16664   0.88416   0.00000  Uiso   1.00
C679   C     0.54513   0.18826   0.59202   0.00000  Uiso   1.00
C680   C     0.45486   0.14507   0.90798   0.00000  Uiso   1.00
C681   C     0.54584   0.18857   0.54581   0.00000  Uiso   1.00
C682   C     0.45416   0.14477   0.95419   0.00000  Uiso   1.00
C683   C     0.49969   0.16617   0.52329   0.00000  Uiso   1.00
C684   C     0.50031   0.16716   0.97671   0.00000  Uiso   1.00
C685   C     0.45308   0.14274   0.54741   0.00000  Uiso   1.00
C686   C     0.54692   0.19059   0.95259   0.00000  Uiso   1.00
C687   C     0.59172   0.21170   0.52216   0.00000  Uiso   1.00
C688   C     0.40828   0.12163   0.97784   0.00000  Uiso   1.00
C689   C     0.59230   0.21389   0.97569   0.00000  Uiso   1.00
C690   C     0.40769   0.11945   0.52431   0.00000  Uiso   1.00
H691   H     0.41766   0.12771   0.61374   0.00000  Uiso   1.00
H692   H     0.58234   0.20562   0.88626   0.00000  Uiso   1.00
H693   H     0.58038   0.20563   0.60963   0.00000  Uiso   1.00
H694   H     0.41962   0.12770   0.89037   0.00000  Uiso   1.00
H695   H     0.62649   0.22952   0.54001   0.00000  Uiso   1.00
H696   H     0.37351   0.10382   0.95999   0.00000  Uiso   1.00
C697   C     0.52238   0.31828   0.75086   0.00000  Uiso   1.00
C698   C     0.47762   0.01505   0.74914   0.00000  Uiso   1.00
N699   N     0.65011   0.15265   0.73783   0.00000  Uiso   1.00
N700   N     0.34989   0.18068   0.76217   0.00000  Uiso   1.00
N701   N     0.63782   0.24179   0.95300   0.00000  Uiso   1.00
O702   O     0.35601   0.23683   0.96373   0.00000  Uiso   1.00
O703   O     0.62684   0.28002   0.92953   0.00000  Uiso   1.00
N704   N     0.36218   0.09155   0.54700   0.00000  Uiso   1.00
O705   O     0.64399   0.09652   0.53628   0.00000  Uiso   1.00
O706   O     0.37315   0.05332   0.57047   0.00000  Uiso   1.00
N707   N     0.57858   0.00460   0.75845   0.00000  Uiso   1.00
O708   O     0.61913   0.32756   0.72836   0.00000  Uiso   1.00
O709   O     0.59064   0.02340   0.79826   0.00000  Uiso   1.00
N710   N     0.42142   0.32873   0.74155   0.00000  Uiso   1.00
O711   O     0.38087   0.00578   0.77165   0.00000  Uiso   1.00
O712   O     0.40936   0.30994   0.70174   0.00000  Uiso   1.00
C713   C     0.34241   0.13298   0.69500   0.00000  Uiso   1.00
C714   C     0.63883   0.09412   0.66845   0.00000  Uiso   1.00
H715   H     0.60506   0.07630   0.68953   0.00000  Uiso   1.00
H716   H     0.62102   0.11215   0.64018   0.00000  Uiso   1.00
H717   H     0.66482   0.06242   0.65322   0.00000  Uiso   1.00
H718   H     0.35362   0.16571   0.67366   0.00000  Uiso   1.00
H719   H     0.37960   0.11164   0.70101   0.00000  Uiso   1.00
C720   C     0.65759   0.20036   0.80500   0.00000  Uiso   1.00
C721   C     0.36117   0.23921   0.83155   0.00000  Uiso   1.00
H722   H     0.37898   0.22118   0.85982   0.00000  Uiso   1.00
H723   H     0.39494   0.25703   0.81047   0.00000  Uiso   1.00
H724   H     0.33518   0.27091   0.84678   0.00000  Uiso   1.00
H725   H     0.62040   0.22169   0.79899   0.00000  Uiso   1.00
H726   H     0.64638   0.16763   0.82634   0.00000  Uiso   1.00
O727   O     0.79642   0.24619   0.75298   0.00000  Uiso   1.00
O728   O     0.87025   0.08714   0.74701   0.00000  Uiso   1.00
O729   O     0.89280   0.23721   0.74518   0.00000  Uiso   1.00
O730   O     0.77387   0.09613   0.75482   0.00000  Uiso   1.00
C731   C     0.84784   0.26429   0.74849   0.00000  Uiso   1.00
C732   C     0.81883   0.06904   0.75151   0.00000  Uiso   1.00
O733   O     0.78514   0.17117   0.81998   0.00000  Uiso   1.00
O734   O     0.88153   0.16216   0.68002   0.00000  Uiso   1.00
O735   O     0.88152   0.16219   0.81217   0.00000  Uiso   1.00
O736   O     0.78515   0.17115   0.68782   0.00000  Uiso   1.00
C737   C     0.83398   0.16687   0.83631   0.00000  Uiso   1.00
C738   C     0.83268   0.16647   0.66369   0.00000  Uiso   1.00
Zn739  Zn    0.76898   0.17266   0.75521   0.00000  Uiso   1.00
Zn740  Zn    0.89769   0.16067   0.74479   0.00000  Uiso   1.00
C741   C     0.78617   0.14424   0.59407   0.00000  Uiso   1.00
C742   C     0.88049   0.18909   0.90593   0.00000  Uiso   1.00
C743   C     0.83199   0.16669   0.61584   0.00000  Uiso   1.00
C744   C     0.83468   0.16664   0.88416   0.00000  Uiso   1.00
C745   C     0.87847   0.18826   0.59202   0.00000  Uiso   1.00
C746   C     0.78820   0.14507   0.90798   0.00000  Uiso   1.00
C747   C     0.87917   0.18857   0.54581   0.00000  Uiso   1.00
C748   C     0.78749   0.14477   0.95419   0.00000  Uiso   1.00
C749   C     0.83302   0.16617   0.52329   0.00000  Uiso   1.00
C750   C     0.83364   0.16716   0.97671   0.00000  Uiso   1.00
C751   C     0.78642   0.14274   0.54741   0.00000  Uiso   1.00
C752   C     0.88025   0.19059   0.95259   0.00000  Uiso   1.00
C753   C     0.92505   0.21170   0.52216   0.00000  Uiso   1.00
C754   C     0.74161   0.12163   0.97784   0.00000  Uiso   1.00
C755   C     0.92564   0.21389   0.97569   0.00000  Uiso   1.00
C756   C     0.74103   0.11945   0.52431   0.00000  Uiso   1.00
H757   H     0.75099   0.12771   0.61374   0.00000  Uiso   1.00
H758   H     0.91567   0.20562   0.88626   0.00000  Uiso   1.00
H759   H     0.91371   0.20563   0.60963   0.00000  Uiso   1.00
H760   H     0.75295   0.12770   0.89037   0.00000  Uiso   1.00
H761   H     0.95982   0.22952   0.54001   0.00000  Uiso   1.00
H762   H     0.70684   0.10382   0.95999   0.00000  Uiso   1.00
C763   C     0.85571   0.31828   0.75086   0.00000  Uiso   1.00
C764   C     0.81095   0.01505   0.74914   0.00000  Uiso   1.00
N765   N     0.98344   0.15265   0.73783   0.00000  Uiso   1.00
N766   N     0.68322   0.18068   0.76217   0.00000  Uiso   1.00
N767   N     0.97115   0.24179   0.95300   0.00000  Uiso   1.00
O768   O     0.68934   0.23683   0.96373   0.00000  Uiso   1.00
O769   O     0.96017   0.28002   0.92953   0.00000  Uiso   1.00
N770   N     0.69551   0.09155   0.54700   0.00000  Uiso   1.00
O771   O     0.97732   0.09652   0.53628   0.00000  Uiso   1.00
O772   O     0.70649   0.05332   0.57047   0.00000  Uiso   1.00
N773   N     0.91191   0.00460   0.75845   0.00000  Uiso   1.00
O774   O     0.95246   0.32756   0.72836   0.00000  Uiso   1.00
O775   O     0.92397   0.02340   0.79826   0.00000  Uiso   1.00
N776   N     0.75475   0.32873   0.74155   0.00000  Uiso   1.00
O777   O     0.71421   0.00578   0.77165   0.00000  Uiso   1.00
O778   O     0.74269   0.30994   0.70174   0.00000  Uiso   1.00
C779   C     0.67574   0.13298   0.69500   0.00000  Uiso   1.00
C780   C     0.97217   0.09412   0.66845   0.00000  Uiso   1.00
H781   H     0.93840   0.07630   0.68953   0.00000  Uiso   1.00
H782   H     0.95435   0.11215   0.64018   0.00000  Uiso   1.00
H783   H     0.99815   0.06242   0.65322   0.00000  Uiso   1.00
H784   H     0.68695   0.16571   0.67366   0.00000  Uiso   1.00
H785   H     0.71293   0.11164   0.70101   0.00000  Uiso   1.00
C786   C     0.99092   0.20036   0.80500   0.00000  Uiso   1.00
C787   C     0.69450   0.23921   0.83155   0.00000  Uiso   1.00
H788   H     0.71231   0.22118   0.85982   0.00000  Uiso   1.00
H789   H     0.72827   0.25703   0.81047   0.00000  Uiso   1.00
H790   H     0.66852   0.27091   0.84678   0.00000  Uiso   1.00
H791   H     0.95373   0.22169   0.79899   0.00000  Uiso   1.00
H792   H     0.97971   0.16763   0.82634   0.00000  Uiso   1.00
O793   O     0.12975   0.57952   0.75298   0.00000  Uiso   1.00
O794   O     0.20358   0.42048   0.74701   0.00000  Uiso   1.00
O795   O     0.22613   0.57054   0.74518   0.00000  Uiso   1.00
O796   O     0.10720   0.42946   0.75482   0.00000  Uiso   1.00
C797   C     0.18117   0.59762   0.74849   0.00000  Uiso   1.00
C798   C     0.15216   0.40238   0.75151   0.00000  Uiso   1.00
O799   O     0.11847   0.50450   0.81998   0.00000  Uiso   1.00
O800   O     0.21486   0.49550   0.68002   0.00000  Uiso   1.00
O801   O     0.21485   0.49552   0.81217   0.00000  Uiso   1.00
O802   O     0.11848   0.50448   0.68782   0.00000  Uiso   1.00
C803   C     0.16732   0.50020   0.83631   0.00000  Uiso   1.00
C804   C     0.16602   0.49980   0.66369   0.00000  Uiso   1.00
Zn805  Zn    0.10231   0.50600   0.75521   0.00000  Uiso   1.00
Zn806  Zn    0.23102   0.49400   0.74479   0.00000  Uiso   1.00
C807   C     0.11951   0.47758   0.59407   0.00000  Uiso   1.00
C808   C     0.21383   0.52243   0.90593   0.00000  Uiso   1.00
C809   C     0.16532   0.50003   0.61584   0.00000  Uiso   1.00
C810   C     0.16801   0.49998   0.88416   0.00000  Uiso   1.00
C811   C     0.21180   0.52159   0.59202   0.00000  Uiso   1.00
C812   C     0.12153   0.47841   0.90798   0.00000  Uiso   1.00
C813   C     0.21251   0.52190   0.54581   0.00000  Uiso   1.00
C814   C     0.12083   0.47810   0.95419   0.00000  Uiso   1.00
C815   C     0.16636   0.49950   0.52329   0.00000  Uiso   1.00
C816   C     0.16698   0.50050   0.97671   0.00000  Uiso   1.00
C817   C     0.11975   0.47608   0.54741   0.00000  Uiso   1.00
C818   C     0.21358   0.52393   0.95259   0.00000  Uiso   1.00
C819   C     0.25838   0.54504   0.52216   0.00000  Uiso   1.00
C820   C     0.07495   0.45497   0.97784   0.00000  Uiso   1.00
C821   C     0.25897   0.54722   0.97569   0.00000  Uiso   1.00
C822   C     0.07436   0.45278   0.52431   0.00000  Uiso   1.00
H823   H     0.08433   0.46105   0.61374   0.00000  Uiso   1.00
H824   H     0.24901   0.53895   0.88626   0.00000  Uiso   1.00
H825   H     0.24705   0.53897   0.60963   0.00000  Uiso   1.00
H826   H     0.08629   0.46103   0.89037   0.00000  Uiso   1.00
H827   H     0.29316   0.56285   0.54001   0.00000  Uiso   1.00
H828   H     0.04017   0.43715   0.95999   0.00000  Uiso   1.00
C829   C     0.18905   0.65161   0.75086   0.00000  Uiso   1.00
C830   C     0.14429   0.34839   0.74914   0.00000  Uiso   1.00
N831   N     0.31678   0.48598   0.73783   0.00000  Uiso   1.00
N832   N     0.01656   0.51402   0.76217   0.00000  Uiso   1.00
N833   N     0.30448   0.57513   0.95300   0.00000  Uiso   1.00
O834   O     0.02268   0.57016   0.96373   0.00000  Uiso   1.00
O835   O     0.29351   0.61335   0.92953   0.00000  Uiso   1.00
N836   N     0.02885   0.42488   0.54700   0.00000  Uiso   1.00
O837   O     0.31066   0.42985   0.53628   0.00000  Uiso   1.00
O838   O     0.03982   0.38665   0.57047   0.00000  Uiso   1.00
N839   N     0.24525   0.33793   0.75845   0.00000  Uiso   1.00
O840   O     0.28579   0.66089   0.72836   0.00000  Uiso   1.00
O841   O     0.25731   0.35673   0.79826   0.00000  Uiso   1.00
N842   N     0.08809   0.66206   0.74155   0.00000  Uiso   1.00
O843   O     0.04754   0.33911   0.77165   0.00000  Uiso   1.00
O844   O     0.07603   0.64327   0.70174   0.00000  Uiso   1.00
C845   C     0.00908   0.46631   0.69500   0.00000  Uiso   1.00
C846   C     0.30550   0.42745   0.66845   0.00000  Uiso   1.00
H847   H     0.27173   0.40964   0.68953   0.00000  Uiso   1.00
H848   H     0.28769   0.44549   0.64018   0.00000  Uiso   1.00
H849   H     0.33148   0.39575   0.65322   0.00000  Uiso   1.00
H850   H     0.02029   0.49904   0.67366   0.00000  Uiso   1.00
H851   H     0.04627   0.44497   0.70101   0.00000  Uiso   1.00
C852   C     0.32426   0.53369   0.80500   0.00000  Uiso   1.00
C853   C     0.02783   0.57255   0.83155   0.00000  Uiso   1.00
H854   H     0.04564   0.55451   0.85982   0.00000  Uiso   1.00
H855   H     0.06161   0.59036   0.81047   0.00000  Uiso   1.00
H856   H     0.00185   0.60425   0.84678   0.00000  Uiso   1.00
H857   H     0.28707   0.55502   0.79899   0.00000  Uiso   1.00
H858   H     0.31304   0.50096   0.82634   0.00000  Uiso   1.00
O859   O     0.46308   0.57952   0.75298   0.00000  Uiso   1.00
O860   O     0.53692   0.42048   0.74701   0.00000  Uiso   1.00
O861   O     0.55946   0.57054   0.74518   0.00000  Uiso   1.00
O862   O     0.44054   0.42946   0.75482   0.00000  Uiso   1.00
C863   C     0.51451   0.59762   0.74849   0.00000  Uiso   1.00
C864   C     0.48549   0.40238   0.75151   0.00000  Uiso   1.00
O865   O     0.45181   0.50450   0.81998   0.00000  Uiso   1.00
O866   O     0.54819   0.49550   0.68002   0.00000  Uiso   1.00
O867   O     0.54819   0.49552   0.81217   0.00000  Uiso   1.00
O868   O     0.45181   0.50448   0.68782   0.00000  Uiso   1.00
C869   C     0.50065   0.50020   0.83631   0.00000  Uiso   1.00
C870   C     0.49935   0.49980   0.66369   0.00000  Uiso   1.00
Zn871  Zn    0.43565   0.50600   0.75521   0.00000  Uiso   1.00
Zn872  Zn    0.56435   0.49400   0.74479   0.00000  Uiso   1.00
C873   C     0.45284   0.47758   0.59407   0.00000  Uiso   1.00
C874   C     0.54716   0.52243   0.90593   0.00000  Uiso   1.00
C875   C     0.49866   0.50003   0.61584   0.00000  Uiso   1.00
C876   C     0.50134   0.49998   0.88416   0.00000  Uiso   1.00
C877   C     0.54513   0.52159   0.59202   0.00000  Uiso   1.00
C878   C     0.45486   0.47841   0.90798   0.00000  Uiso   1.00
C879   C     0.54584   0.52190   0.54581   0.00000  Uiso   1.00
C880   C     0.45416   0.47810   0.95419   0.00000  Uiso   1.00
C881   C     0.49969   0.49950   0.52329   0.00000  Uiso   1.00
C882   C     0.50031   0.50050   0.97671   0.00000  Uiso   1.00
C883   C     0.45308   0.47608   0.54741   0.00000  Uiso   1.00
C884   C     0.54692   0.52393   0.95259   0.00000  Uiso   1.00
C885   C     0.59172   0.54504   0.52216   0.00000  Uiso   1.00
C886   C     0.40828   0.45497   0.97784   0.00000  Uiso   1.00
C887   C     0.59230   0.54722   0.97569   0.00000  Uiso   1.00
C888   C     0.40769   0.45278   0.52431   0.00000  Uiso   1.00
H889   H     0.41766   0.46105   0.61374   0.00000  Uiso   1.00
H890   H     0.58234   0.53895   0.88626   0.00000  Uiso   1.00
H891   H     0.58038   0.53897   0.60963   0.00000  Uiso   1.00
H892   H     0.41962   0.46103   0.89037   0.00000  Uiso   1.00
H893   H     0.62649   0.56285   0.54001   0.00000  Uiso   1.00
H894   H     0.37351   0.43715   0.95999   0.00000  Uiso   1.00
C895   C     0.52238   0.65161   0.75086   0.00000  Uiso   1.00
C896   C     0.47762   0.34839   0.74914   0.00000  Uiso   1.00
N897   N     0.65011   0.48598   0.73783   0.00000  Uiso   1.00
N898   N     0.34989   0.51402   0.76217   0.00000  Uiso   1.00
N899   N     0.63782   0.57513   0.95300   0.00000  Uiso   1.00
O900   O     0.35601   0.57016   0.96373   0.00000  Uiso   1.00
O901   O     0.62684   0.61335   0.92953   0.00000  Uiso   1.00
N902   N     0.36218   0.42488   0.54700   0.00000  Uiso   1.00
O903   O     0.64399   0.42985   0.53628   0.00000  Uiso   1.00
O904   O     0.37315   0.38665   0.57047   0.00000  Uiso   1.00
N905   N     0.57858   0.33793   0.75845   0.00000  Uiso   1.00
O906   O     0.61913   0.66089   0.72836   0.00000  Uiso   1.00
O907   O     0.59064   0.35673   0.79826   0.00000  Uiso   1.00
N908   N     0.42142   0.66206   0.74155   0.00000  Uiso   1.00
O909   O     0.38087   0.33911   0.77165   0.00000  Uiso   1.00
O910   O     0.40936   0.64327   0.70174   0.00000  Uiso   1.00
C911   C     0.34241   0.46631   0.69500   0.00000  Uiso   1.00
C912   C     0.63883   0.42745   0.66845   0.00000  Uiso   1.00
H913   H     0.60506   0.40964   0.68953   0.00000  Uiso   1.00
H914   H     0.62102   0.44549   0.64018   0.00000  Uiso   1.00
H915   H     0.66482   0.39575   0.65322   0.00000  Uiso   1.00
H916   H     0.35362   0.49904   0.67366   0.00000  Uiso   1.00
H917   H     0.37960   0.44497   0.70101   0.00000  Uiso   1.00
C918   C     0.65759   0.53369   0.80500   0.00000  Uiso   1.00
C919   C     0.36117   0.57255   0.83155   0.00000  Uiso   1.00
H920   H     0.37898   0.55451   0.85982   0.00000  Uiso   1.00
H921   H     0.39494   0.59036   0.81047   0.00000  Uiso   1.00
H922   H     0.33518   0.60425   0.84678   0.00000  Uiso   1.00
H923   H     0.62040   0.55502   0.79899   0.00000  Uiso   1.00
H924   H     0.64638   0.50096   0.82634   0.00000  Uiso   1.00
O925   O     0.79642   0.57952   0.75298   0.00000  Uiso   1.00
O926   O     0.87025   0.42048   0.74701   0.00000  Uiso   1.00
O927   O     0.89280   0.57054   0.74518   0.00000  Uiso   1.00
O928   O     0.77387   0.42946   0.75482   0.00000  Uiso   1.00
C929   C     0.84784   0.59762   0.74849   0.00000  Uiso   1.00
C930   C     0.81883   0.40238   0.75151   0.00000  Uiso   1.00
O931   O     0.78514   0.50450   0.81998   0.00000  Uiso   1.00
O932   O     0.88153   0.49550   0.68002   0.00000  Uiso   1.00
O933   O     0.88152   0.49552   0.81217   0.00000  Uiso   1.00
O934   O     0.78515   0.50448   0.68782   0.00000  Uiso   1.00
C935   C     0.83398   0.50020   0.83631   0.00000  Uiso   1.00
C936   C     0.83268   0.49980   0.66369   0.00000  Uiso   1.00
Zn937  Zn    0.76898   0.50600   0.75521   0.00000  Uiso   1.00
Zn938  Zn    0.89769   0.49400   0.74479   0.00000  Uiso   1.00
C939   C     0.78617   0.47758   0.59407   0.00000  Uiso   1.00
C940   C     0.88049   0.52243   0.90593   0.00000  Uiso   1.00
C941   C     0.83199   0.50003   0.61584   0.00000  Uiso   1.00
C942   C     0.83468   0.49998   0.88416   0.00000  Uiso   1.00
C943   C     0.87847   0.52159   0.59202   0.00000  Uiso   1.00
C944   C     0.78820   0.47841   0.90798   0.00000  Uiso   1.00
C945   C     0.87917   0.52190   0.54581   0.00000  Uiso   1.00
C946   C     0.78749   0.47810   0.95419   0.00000  Uiso   1.00
C947   C     0.83302   0.49950   0.52329   0.00000  Uiso   1.00
C948   C     0.83364   0.50050   0.97671   0.00000  Uiso   1.00
C949   C     0.78642   0.47608   0.54741   0.00000  Uiso   1.00
C950   C     0.88025   0.52393   0.95259   0.00000  Uiso   1.00
C951   C     0.92505   0.54504   0.52216   0.00000  Uiso   1.00
C952   C     0.74161   0.45497   0.97784   0.00000  Uiso   1.00
C953   C     0.92564   0.54722   0.97569   0.00000  Uiso   1.00
C954   C     0.74103   0.45278   0.52431   0.00000  Uiso   1.00
H955   H     0.75099   0.46105   0.61374   0.00000  Uiso   1.00
H956   H     0.91567   0.53895   0.88626   0.00000  Uiso   1.00
H957   H     0.91371   0.53897   0.60963   0.00000  Uiso   1.00
H958   H     0.75295   0.46103   0.89037   0.00000  Uiso   1.00
H959   H     0.95982   0.56285   0.54001   0.00000  Uiso   1.00
H960   H     0.70684   0.43715   0.95999   0.00000  Uiso   1.00
C961   C     0.85571   0.65161   0.75086   0.00000  Uiso   1.00
C962   C     0.81095   0.34839   0.74914   0.00000  Uiso   1.00
N963   N     0.98344   0.48598   0.73783   0.00000  Uiso   1.00
N964   N     0.68322   0.51402   0.76217   0.00000  Uiso   1.00
N965   N     0.97115   0.57513   0.95300   0.00000  Uiso   1.00
O966   O     0.68934   0.57016   0.96373   0.00000  Uiso   1.00
O967   O     0.96017   0.61335   0.92953   0.00000  Uiso   1.00
N968   N     0.69551   0.42488   0.54700   0.00000  Uiso   1.00
O969   O     0.97732   0.42985   0.53628   0.00000  Uiso   1.00
O970   O     0.70649   0.38665   0.57047   0.00000  Uiso   1.00
N971   N     0.91191   0.33793   0.75845   0.00000  Uiso   1.00
O972   O     0.95246   0.66089   0.72836   0.00000  Uiso   1.00
O973   O     0.92397   0.35673   0.79826   0.00000  Uiso   1.00
N974   N     0.75475   0.66206   0.74155   0.00000  Uiso   1.00
O975   O     0.71421   0.33911   0.77165   0.00000  Uiso   1.00
O976   O     0.74269   0.64327   0.70174   0.00000  Uiso   1.00
C977   C     0.67574   0.46631   0.69500   0.00000  Uiso   1.00
C978   C     0.97217   0.42745   0.66845   0.00000  Uiso   1.00
H979   H     0.93840   0.40964   0.68953   0.00000  Uiso   1.00
H980   H     0.95435   0.44549   0.64018   0.00000  Uiso   1.00
H981   H     0.99815   0.39575   0.65322   0.00000  Uiso   1.00
H982   H     0.68695   0.49904   0.67366   0.00000  Uiso   1.00
H983   H     0.71293   0.44497   0.70101   0.00000  Uiso   1.00
C984   C     0.99092   0.53369   0.80500   0.00000  Uiso   1.00
C985   C     0.69450   0.57255   0.83155   0.00000  Uiso   1.00
H986   H     0.71231   0.55451   0.85982   0.00000  Uiso   1.00
H987   H     0.72827   0.59036   0.81047   0.00000  Uiso   1.00
H988   H     0.66852   0.60425   0.84678   0.00000  Uiso   1.00
H989   H     0.95373   0.55502   0.79899   0.00000  Uiso   1.00
H990   H     0.97971   0.50096   0.82634   0.00000  Uiso   1.00
O991   O     0.12975   0.91286   0.75298   0.00000  Uiso   1.00
O992   O     0.20358   0.75381   0.74701   0.00000  Uiso   1.00
O993   O     0.22613   0.90387   0.74518   0.00000  Uiso   1.00
O994   O     0.10720   0.76279   0.75482   0.00000  Uiso   1.00
C995   C     0.18117   0.93096   0.74849   0.00000  Uiso   1.00
C996   C     0.15216   0.73571   0.75151   0.00000  Uiso   1.00
O997   O     0.11847   0.83784   0.81998   0.00000  Uiso   1.00
O998   O     0.21486   0.82883   0.68002   0.00000  Uiso   1.00
O999   O     0.21485   0.82885   0.81217   0.00000  Uiso   1.00
O1000  O     0.11848   0.83781   0.68782   0.00000  Uiso   1.00
C1001  C     0.16732   0.83353   0.83631   0.00000  Uiso   1.00
C1002  C     0.16602   0.83313   0.66369   0.00000  Uiso   1.00
Zn1003 Zn    0.10231   0.83933   0.75521   0.00000  Uiso   1.00
Zn1004 Zn    0.23102   0.82734   0.74479   0.00000  Uiso   1.00
C1005  C     0.11951   0.81091   0.59407   0.00000  Uiso   1.00
C1006  C     0.21383   0.85576   0.90593   0.00000  Uiso   1.00
C1007  C     0.16532   0.83336   0.61584   0.00000  Uiso   1.00
C1008  C     0.16801   0.83331   0.88416   0.00000  Uiso   1.00
C1009  C     0.21180   0.85493   0.59202   0.00000  Uiso   1.00
C1010  C     0.12153   0.81174   0.90798   0.00000  Uiso   1.00
C1011  C     0.21251   0.85523   0.54581   0.00000  Uiso   1.00
C1012  C     0.12083   0.81144   0.95419   0.00000  Uiso   1.00
C1013  C     0.16636   0.83284   0.52329   0.00000  Uiso   1.00
C1014  C     0.16698   0.83383   0.97671   0.00000  Uiso   1.00
C1015  C     0.11975   0.80941   0.54741   0.00000  Uiso   1.00
C1016  C     0.21358   0.85726   0.95259   0.00000  Uiso   1.00
C1017  C     0.25838   0.87837   0.52216   0.00000  Uiso   1.00
C1018  C     0.07495   0.78830   0.97784   0.00000  Uiso   1.00
C1019  C     0.25897   0.88055   0.97569   0.00000  Uiso   1.00
C1020  C     0.07436   0.78612   0.52431   0.00000  Uiso   1.00
H1021  H     0.08433   0.79438   0.61374   0.00000  Uiso   1.00
H1022  H     0.24901   0.87229   0.88626   0.00000  Uiso   1.00
H1023  H     0.24705   0.87230   0.60963   0.00000  Uiso   1.00
H1024  H     0.08629   0.79437   0.89037   0.00000  Uiso   1.00
H1025  H     0.29316   0.89619   0.54001   0.00000  Uiso   1.00
H1026  H     0.04017   0.77049   0.95999   0.00000  Uiso   1.00
C1027  C     0.18905   0.98495   0.75086   0.00000  Uiso   1.00
C1028  C     0.14429   0.68172   0.74914   0.00000  Uiso   1.00
N1029  N     0.31678   0.81932   0.73783   0.00000  Uiso   1.00
N1030  N     0.01656   0.84735   0.76217   0.00000  Uiso   1.00
N1031  N     0.30448   0.90846   0.95300   0.00000  Uiso   1.00
O1032  O     0.02268   0.90350   0.96373   0.00000  Uiso   1.00
O1033  O     0.29351   0.94668   0.92953   0.00000  Uiso   1.00
N1034  N     0.02885   0.75821   0.54700   0.00000  Uiso   1.00
O1035  O     0.31066   0.76319   0.53628   0.00000  Uiso   1.00
O1036  O     0.03982   0.71999   0.57047   0.00000  Uiso   1.00
N1037  N     0.24525   0.67127   0.75845   0.00000  Uiso   1.00
O1038  O     0.28579   0.99422   0.72836   0.00000  Uiso   1.00
O1039  O     0.25731   0.69006   0.79826   0.00000  Uiso   1.00
N1040  N     0.08809   0.99540   0.74155   0.00000  Uiso   1.00
O1041  O     0.04754   0.67244   0.77165   0.00000  Uiso   1.00
O1042  O     0.07603   0.97661   0.70174   0.00000  Uiso   1.00
C1043  C     0.00908   0.79964   0.69500   0.00000  Uiso   1.00
C1044  C     0.30550   0.76079   0.66845   0.00000  Uiso   1.00
H1045  H     0.27173   0.74297   0.68953   0.00000  Uiso   1.00
H1046  H     0.28769   0.77882   0.64018   0.00000  Uiso   1.00
H1047  H     0.33148   0.72909   0.65322   0.00000  Uiso   1.00
H1048  H     0.02029   0.83237   0.67366   0.00000  Uiso   1.00
H1049  H     0.04627   0.77831   0.70101   0.00000  Uiso   1.00
C1050  C     0.32426   0.86702   0.80500   0.00000  Uiso   1.00
C1051  C     0.02783   0.90588   0.83155   0.00000  Uiso   1.00
H1052  H     0.04564   0.88785   0.85982   0.00000  Uiso   1.00
H1053  H     0.06161   0.92369   0.81047   0.00000  Uiso   1.00
H1054  H     0.00185   0.93758   0.84678   0.00000  Uiso   1.00
H1055  H     0.28707   0.88836   0.79899   0.00000  Uiso   1.00
H1056  H     0.31304   0.83429   0.82634   0.00000  Uiso   1.00
O1057  O     0.46308   0.91286   0.75298   0.00000  Uiso   1.00
O1058  O     0.53692   0.75381   0.74701   0.00000  Uiso   1.00
O1059  O     0.55946   0.90387   0.74518   0.00000  Uiso   1.00
O1060  O     0.44054   0.76279   0.75482   0.00000  Uiso   1.00
C1061  C     0.51451   0.93096   0.74849   0.00000  Uiso   1.00
C1062  C     0.48549   0.73571   0.75151   0.00000  Uiso   1.00
O1063  O     0.45181   0.83784   0.81998   0.00000  Uiso   1.00
O1064  O     0.54819   0.82883   0.68002   0.00000  Uiso   1.00
O1065  O     0.54819   0.82885   0.81217   0.00000  Uiso   1.00
O1066  O     0.45181   0.83781   0.68782   0.00000  Uiso   1.00
C1067  C     0.50065   0.83353   0.83631   0.00000  Uiso   1.00
C1068  C     0.49935   0.83313   0.66369   0.00000  Uiso   1.00
Zn1069 Zn    0.43565   0.83933   0.75521   0.00000  Uiso   1.00
Zn1070 Zn    0.56435   0.82734   0.74479   0.00000  Uiso   1.00
C1071  C     0.45284   0.81091   0.59407   0.00000  Uiso   1.00
C1072  C     0.54716   0.85576   0.90593   0.00000  Uiso   1.00
C1073  C     0.49866   0.83336   0.61584   0.00000  Uiso   1.00
C1074  C     0.50134   0.83331   0.88416   0.00000  Uiso   1.00
C1075  C     0.54513   0.85493   0.59202   0.00000  Uiso   1.00
C1076  C     0.45486   0.81174   0.90798   0.00000  Uiso   1.00
C1077  C     0.54584   0.85523   0.54581   0.00000  Uiso   1.00
C1078  C     0.45416   0.81144   0.95419   0.00000  Uiso   1.00
C1079  C     0.49969   0.83284   0.52329   0.00000  Uiso   1.00
C1080  C     0.50031   0.83383   0.97671   0.00000  Uiso   1.00
C1081  C     0.45308   0.80941   0.54741   0.00000  Uiso   1.00
C1082  C     0.54692   0.85726   0.95259   0.00000  Uiso   1.00
C1083  C     0.59172   0.87837   0.52216   0.00000  Uiso   1.00
C1084  C     0.40828   0.78830   0.97784   0.00000  Uiso   1.00
C1085  C     0.59230   0.88055   0.97569   0.00000  Uiso   1.00
C1086  C     0.40769   0.78612   0.52431   0.00000  Uiso   1.00
H1087  H     0.41766   0.79438   0.61374   0.00000  Uiso   1.00
H1088  H     0.58234   0.87229   0.88626   0.00000  Uiso   1.00
H1089  H     0.58038   0.87230   0.60963   0.00000  Uiso   1.00
H1090  H     0.41962   0.79437   0.89037   0.00000  Uiso   1.00
H1091  H     0.62649   0.89619   0.54001   0.00000  Uiso   1.00
H1092  H     0.37351   0.77049   0.95999   0.00000  Uiso   1.00
C1093  C     0.52238   0.98495   0.75086   0.00000  Uiso   1.00
C1094  C     0.47762   0.68172   0.74914   0.00000  Uiso   1.00
N1095  N     0.65011   0.81932   0.73783   0.00000  Uiso   1.00
N1096  N     0.34989   0.84735   0.76217   0.00000  Uiso   1.00
N1097  N     0.63782   0.90846   0.95300   0.00000  Uiso   1.00
O1098  O     0.35601   0.90350   0.96373   0.00000  Uiso   1.00
O1099  O     0.62684   0.94668   0.92953   0.00000  Uiso   1.00
N1100  N     0.36218   0.75821   0.54700   0.00000  Uiso   1.00
O1101  O     0.64399   0.76319   0.53628   0.00000  Uiso   1.00
O1102  O     0.37315   0.71999   0.57047   0.00000  Uiso   1.00
N1103  N     0.57858   0.67127   0.75845   0.00000  Uiso   1.00
O1104  O     0.61913   0.99422   0.72836   0.00000  Uiso   1.00
O1105  O     0.59064   0.69006   0.79826   0.00000  Uiso   1.00
N1106  N     0.42142   0.99540   0.74155   0.00000  Uiso   1.00
O1107  O     0.38087   0.67244   0.77165   0.00000  Uiso   1.00
O1108  O     0.40936   0.97661   0.70174   0.00000  Uiso   1.00
C1109  C     0.34241   0.79964   0.69500   0.00000  Uiso   1.00
C1110  C     0.63883   0.76079   0.66845   0.00000  Uiso   1.00
H1111  H     0.60506   0.74297   0.68953   0.00000  Uiso   1.00
H1112  H     0.62102   0.77882   0.64018   0.00000  Uiso   1.00
H1113  H     0.66482   0.72909   0.65322   0.00000  Uiso   1.00
H1114  H     0.35362   0.83237   0.67366   0.00000  Uiso   1.00
H1115  H     0.37960   0.77831   0.70101   0.00000  Uiso   1.00
C1116  C     0.65759   0.86702   0.80500   0.00000  Uiso   1.00
C1117  C     0.36117   0.90588   0.83155   0.00000  Uiso   1.00
H1118  H     0.37898   0.88785   0.85982   0.00000  Uiso   1.00
H1119  H     0.39494   0.92369   0.81047   0.00000  Uiso   1.00
H1120  H     0.33518   0.93758   0.84678   0.00000  Uiso   1.00
H1121  H     0.62040   0.88836   0.79899   0.00000  Uiso   1.00
H1122  H     0.64638   0.83429   0.82634   0.00000  Uiso   1.00
O1123  O     0.79642   0.91286   0.75298   0.00000  Uiso   1.00
O1124  O     0.87025   0.75381   0.74701   0.00000  Uiso   1.00
O1125  O     0.89280   0.90387   0.74518   0.00000  Uiso   1.00
O1126  O     0.77387   0.76279   0.75482   0.00000  Uiso   1.00
C1127  C     0.84784   0.93096   0.74849   0.00000  Uiso   1.00
C1128  C     0.81883   0.73571   0.75151   0.00000  Uiso   1.00
O1129  O     0.78514   0.83784   0.81998   0.00000  Uiso   1.00
O1130  O     0.88153   0.82883   0.68002   0.00000  Uiso   1.00
O1131  O     0.88152   0.82885   0.81217   0.00000  Uiso   1.00
O1132  O     0.78515   0.83781   0.68782   0.00000  Uiso   1.00
C1133  C     0.83398   0.83353   0.83631   0.00000  Uiso   1.00
C1134  C     0.83268   0.83313   0.66369   0.00000  Uiso   1.00
Zn1135 Zn    0.76898   0.83933   0.75521   0.00000  Uiso   1.00
Zn1136 Zn    0.89769   0.82734   0.74479   0.00000  Uiso   1.00
C1137  C     0.78617   0.81091   0.59407   0.00000  Uiso   1.00
C1138  C     0.88049   0.85576   0.90593   0.00000  Uiso   1.00
C1139  C     0.83199   0.83336   0.61584   0.00000  Uiso   1.00
C1140  C     0.83468   0.83331   0.88416   0.00000  Uiso   1.00
C1141  C     0.87847   0.85493   0.59202   0.00000  Uiso   1.00
C1142  C     0.78820   0.81174   0.90798   0.00000  Uiso   1.00
C1143  C     0.87917   0.85523   0.54581   0.00000  Uiso   1.00
C1144  C     0.78749   0.81144   0.95419   0.00000  Uiso   1.00
C1145  C     0.83302   0.83284   0.52329   0.00000  Uiso   1.00
C1146  C     0.83364   0.83383   0.97671   0.00000  Uiso   1.00
C1147  C     0.78642   0.80941   0.54741   0.00000  Uiso   1.00
C1148  C     0.88025   0.85726   0.95259   0.00000  Uiso   1.00
C1149  C     0.92505   0.87837   0.52216   0.00000  Uiso   1.00
C1150  C     0.74161   0.78830   0.97784   0.00000  Uiso   1.00
C1151  C     0.92564   0.88055   0.97569   0.00000  Uiso   1.00
C1152  C     0.74103   0.78612   0.52431   0.00000  Uiso   1.00
H1153  H     0.75099   0.79438   0.61374   0.00000  Uiso   1.00
H1154  H     0.91567   0.87229   0.88626   0.00000  Uiso   1.00
H1155  H     0.91371   0.87230   0.60963   0.00000  Uiso   1.00
H1156  H     0.75295   0.79437   0.89037   0.00000  Uiso   1.00
H1157  H     0.95982   0.89619   0.54001   0.00000  Uiso   1.00
H1158  H     0.70684   0.77049   0.95999   0.00000  Uiso   1.00
C1159  C     0.85571   0.98495   0.75086   0.00000  Uiso   1.00
C1160  C     0.81095   0.68172   0.74914   0.00000  Uiso   1.00
N1161  N     0.98344   0.81932   0.73783   0.00000  Uiso   1.00
N1162  N     0.68322   0.84735   0.76217   0.00000  Uiso   1.00
N1163  N     0.97115   0.90846   0.95300   0.00000  Uiso   1.00
O1164  O     0.68934   0.90350   0.96373   0.00000  Uiso   1.00
O1165  O     0.96017   0.94668   0.92953   0.00000  Uiso   1.00
N1166  N     0.69551   0.75821   0.54700   0.00000  Uiso   1.00
O1167  O     0.97732   0.76319   0.53628   0.00000  Uiso   1.00
O1168  O     0.70649   0.71999   0.57047   0.00000  Uiso   1.00
N1169  N     0.91191   0.67127   0.75845   0.00000  Uiso   1.00
O1170  O     0.95246   0.99422   0.72836   0.00000  Uiso   1.00
O1171  O     0.92397   0.69006   0.79826   0.00000  Uiso   1.00
N1172  N     0.75475   0.99540   0.74155   0.00000  Uiso   1.00
O1173  O     0.71421   0.67244   0.77165   0.00000  Uiso   1.00
O1174  O     0.74269   0.97661   0.70174   0.00000  Uiso   1.00
C1175  C     0.67574   0.79964   0.69500   0.00000  Uiso   1.00
C1176  C     0.97217   0.76079   0.66845   0.00000  Uiso   1.00
H1177  H     0.93840   0.74297   0.68953   0.00000  Uiso   1.00
H1178  H     0.95435   0.77882   0.64018   0.00000  Uiso   1.00
H1179  H     0.99815   0.72909   0.65322   0.00000  Uiso   1.00
H1180  H     0.68695   0.83237   0.67366   0.00000  Uiso   1.00
H1181  H     0.71293   0.77831   0.70101   0.00000  Uiso   1.00
C1182  C     0.99092   0.86702   0.80500   0.00000  Uiso   1.00
C1183  C     0.69450   0.90588   0.83155   0.00000  Uiso   1.00
H1184  H     0.71231   0.88785   0.85982   0.00000  Uiso   1.00
H1185  H     0.72827   0.92369   0.81047   0.00000  Uiso   1.00
H1186  H     0.66852   0.93758   0.84678   0.00000  Uiso   1.00
H1187  H     0.95373   0.88836   0.79899   0.00000  Uiso   1.00
H1188  H     0.97971   0.83429   0.82634   0.00000  Uiso   1.00
loop_
_geom_bond_atom_site_label_1
_geom_bond_atom_site_label_2
_geom_bond_distance
_geom_bond_site_symmetry_2
_ccdc_geom_bond_type
O1     C5      1.293   .     A
O1     Zn13    2.002   .     S
O2     Zn14    2.002   .     S
O2     C6      1.293   .     A
O3     Zn14    2.004   .     S
O3     C5      1.303   .     A
O4     C6      1.303   .     A
O4     Zn13    2.004   .     S
C5     C37     1.410   .     S
C6     C38     1.410   .     S
O7     C11     1.302   .     A
O7     Zn13    2.001   .     S
O8     C12     1.302   .     A
O8     Zn14    2.001   .     S
O9     Zn14    2.023   .     S
O9     C11     1.307   .     A
O10    C12     1.307   .     A
O10    Zn13    2.023   .     S
C11    C18     1.431   .     S
C12    C17     1.431   .     S
Zn13   N40     2.056   .     S
Zn14   N39     2.056   .     S
C15    H31     1.081   .     S
C15    C25     1.392   .     A
C15    C17     1.393   .     A
C16    C18     1.393   .     A
C16    H32     1.081   .     S
C16    C26     1.392   .     A
C17    C19     1.392   .     A
C18    C20     1.392   .     A
C19    H33     1.086   .     S
C19    C21     1.380   .     A
C20    H34     1.086   .     S
C20    C22     1.380   .     A
C21    C27     1.397   .     A
C21    C23     1.410   .     A
C22    C28     1.397   .     A
C22    C24     1.410   .     A
C23    C25     1.419   .     A
C23    C618    1.393   1_554 S
C24    C26     1.419   .     A
C24    C617    1.393   .     S
C25    C30     1.413   .     A
C26    C29     1.413   .     A
C27    H35     1.085   .     S
C27    C623    1.392   1_554 S
C28    H36     1.085   .     S
C28    C624    1.392   .     S
C29    N41     1.435   .     S
C29    C621    1.392   .     S
C30    N44     1.435   .     S
C30    C622    1.392   1_554 S
C37    C236    1.357   .     S
C37    N245    1.437   .     S
C38    C433    1.357   1_545 S
C38    N446    1.437   1_545 S
N39    N106    1.280   .     S
N39    C119    1.454   .     S
N40    N171    1.280   1_455 S
N40    C192    1.454   1_455 S
N41    O43     1.301   .     A
N41    O108    1.301   .     S
O42    N173    1.301   1_455 S
N44    O46     1.301   .     A
N44    O177    1.301   1_455 S
O45    N110    1.301   .     S
N47    O49     1.302   .     A
N47    C433    1.437   1_545 S
N47    O444    1.300   1_545 S
O48    N245    1.300   .     S
N50    O52     1.302   .     A
N50    C236    1.437   .     S
N50    O249    1.300   .     S
O51    N446    1.300   1_545 S
C53    H58     1.111   .     S
C53    H59     1.097   .     S
C53    N171    1.454   1_455 S
C53    C186    1.528   1_455 S
C54    H57     1.110   .     S
C54    H56     1.109   .     S
C54    H55     1.094   .     S
C54    C119    1.528   .     S
C60    H66     1.111   .     S
C60    H65     1.097   .     S
C60    N106    1.454   .     S
C60    C127    1.528   .     S
C61    H64     1.110   .     S
C61    H62     1.109   .     S
C61    H63     1.094   .     S
C61    C192    1.528   1_455 S
O67    C71     1.293   .     A
O67    Zn79    2.002   .     S
O68    Zn80    2.002   .     S
O68    C72     1.293   .     A
O69    Zn80    2.004   .     S
O69    C71     1.303   .     A
O70    C72     1.303   .     A
O70    Zn79    2.004   .     S
C71    C103    1.410   .     S
C72    C104    1.410   .     S
O73    C77     1.302   .     A
O73    Zn79    2.001   .     S
O74    C78     1.302   .     A
O74    Zn80    2.001   .     S
O75    Zn80    2.023   .     S
O75    C77     1.307   .     A
O76    C78     1.307   .     A
O76    Zn79    2.023   .     S
C77    C84     1.431   .     S
C78    C83     1.431   .     S
Zn79   N106    2.056   .     S
Zn80   N105    2.056   .     S
C81    H97     1.081   .     S
C81    C91     1.392   .     A
C81    C83     1.393   .     A
C82    C84     1.393   .     A
C82    H98     1.081   .     S
C82    C92     1.392   .     A
C83    C85     1.392   .     A
C84    C86     1.392   .     A
C85    H99     1.086   .     S
C85    C87     1.380   .     A
C86    H100    1.086   .     S
C86    C88     1.380   .     A
C87    C93     1.397   .     A
C87    C89     1.410   .     A
C88    C94     1.397   .     A
C88    C90     1.410   .     A
C89    C91     1.419   .     A
C89    C684    1.393   1_554 S
C90    C92     1.419   .     A
C90    C683    1.393   .     S
C91    C96     1.413   .     A
C92    C95     1.413   .     A
C93    H101    1.085   .     S
C93    C689    1.392   1_554 S
C94    H102    1.085   .     S
C94    C690    1.392   .     S
C95    N107    1.435   .     S
C95    C687    1.392   .     S
C96    N110    1.435   .     S
C96    C688    1.392   1_554 S
C103   C302    1.357   .     S
C103   N311    1.437   .     S
C104   C499    1.357   1_545 S
C104   N512    1.437   1_545 S
N105   N172    1.280   .     S
N105   C185    1.454   .     S
N107   O109    1.301   .     A
N107   O174    1.301   .     S
N110   O112    1.301   .     A
O111   N176    1.301   .     S
N113   O115    1.302   .     A
N113   C499    1.437   1_545 S
N113   O510    1.300   1_545 S
O114   N311    1.300   .     S
N116   O118    1.302   .     A
N116   C302    1.437   .     S
N116   O315    1.300   .     S
O117   N512    1.300   1_545 S
C119   H124    1.111   .     S
C119   H125    1.097   .     S
C120   H123    1.110   .     S
C120   H122    1.109   .     S
C120   H121    1.094   .     S
C120   C185    1.528   .     S
C126   H132    1.111   .     S
C126   H131    1.097   .     S
C126   N172    1.454   .     S
C126   C193    1.528   .     S
C127   H130    1.110   .     S
C127   H128    1.109   .     S
C127   H129    1.094   .     S
O133   C137    1.293   .     A
O133   Zn145   2.002   .     S
O134   Zn146   2.002   .     S
O134   C138    1.293   .     A
O135   Zn146   2.004   .     S
O135   C137    1.303   .     A
O136   C138    1.303   .     A
O136   Zn145   2.004   .     S
C137   C169    1.410   .     S
C138   C170    1.410   .     S
O139   C143    1.302   .     A
O139   Zn145   2.001   .     S
O140   C144    1.302   .     A
O140   Zn146   2.001   .     S
O141   Zn146   2.023   .     S
O141   C143    1.307   .     A
O142   C144    1.307   .     A
O142   Zn145   2.023   .     S
C143   C150    1.431   .     S
C144   C149    1.431   .     S
Zn145  N172    2.056   .     S
Zn146  N171    2.056   .     S
C147   H163    1.081   .     S
C147   C157    1.392   .     A
C147   C149    1.393   .     A
C148   C150    1.393   .     A
C148   H164    1.081   .     S
C148   C158    1.392   .     A
C149   C151    1.392   .     A
C150   C152    1.392   .     A
C151   H165    1.086   .     S
C151   C153    1.380   .     A
C152   H166    1.086   .     S
C152   C154    1.380   .     A
C153   C159    1.397   .     A
C153   C155    1.410   .     A
C154   C160    1.397   .     A
C154   C156    1.410   .     A
C155   C157    1.419   .     A
C155   C750    1.393   1_554 S
C156   C158    1.419   .     A
C156   C749    1.393   .     S
C157   C162    1.413   .     A
C158   C161    1.413   .     A
C159   H167    1.085   .     S
C159   C755    1.392   1_554 S
C160   H168    1.085   .     S
C160   C756    1.392   .     S
C161   N173    1.435   .     S
C161   C753    1.392   .     S
C162   N176    1.435   .     S
C162   C754    1.392   1_554 S
C169   C368    1.357   .     S
C169   N377    1.437   .     S
C170   C565    1.357   1_545 S
C170   N578    1.437   1_545 S
N171   N40     1.280   1_655 S
N171   C53     1.454   1_655 S
N173   O175    1.301   .     A
N173   O42     1.301   1_655 S
N176   O178    1.301   .     A
O177   N44     1.301   1_655 S
N179   O181    1.302   .     A
N179   C565    1.437   1_545 S
N179   O576    1.300   1_545 S
O180   N377    1.300   .     S
N182   O184    1.302   .     A
N182   C368    1.437   .     S
N182   O381    1.300   .     S
O183   N578    1.300   1_545 S
C185   H190    1.111   .     S
C185   H191    1.097   .     S
C186   H189    1.110   .     S
C186   H188    1.109   .     S
C186   H187    1.094   .     S
C186   C53     1.528   1_655 S
C192   H198    1.111   .     S
C192   H197    1.097   .     S
C192   N40     1.454   1_655 S
C192   C61     1.528   1_655 S
C193   H196    1.110   .     S
C193   H194    1.109   .     S
C193   H195    1.094   .     S
O199   C203    1.293   .     A
O199   Zn211   2.002   .     S
O200   Zn212   2.002   .     S
O200   C204    1.293   .     A
O201   Zn212   2.004   .     S
O201   C203    1.303   .     A
O202   C204    1.303   .     A
O202   Zn211   2.004   .     S
C203   C235    1.410   .     S
C204   C236    1.410   .     S
O205   C209    1.302   .     A
O205   Zn211   2.001   .     S
O206   C210    1.302   .     A
O206   Zn212   2.001   .     S
O207   Zn212   2.023   .     S
O207   C209    1.307   .     A
O208   C210    1.307   .     A
O208   Zn211   2.023   .     S
C209   C216    1.431   .     S
C210   C215    1.431   .     S
Zn211  N238    2.056   .     S
Zn212  N237    2.056   .     S
C213   H229    1.081   .     S
C213   C223    1.392   .     A
C213   C215    1.393   .     A
C214   C216    1.393   .     A
C214   H230    1.081   .     S
C214   C224    1.392   .     A
C215   C217    1.392   .     A
C216   C218    1.392   .     A
C217   H231    1.086   .     S
C217   C219    1.380   .     A
C218   H232    1.086   .     S
C218   C220    1.380   .     A
C219   C225    1.397   .     A
C219   C221    1.410   .     A
C220   C226    1.397   .     A
C220   C222    1.410   .     A
C221   C223    1.419   .     A
C221   C816    1.393   1_554 S
C222   C224    1.419   .     A
C222   C815    1.393   .     S
C223   C228    1.413   .     A
C224   C227    1.413   .     A
C225   H233    1.085   .     S
C225   C821    1.392   1_554 S
C226   H234    1.085   .     S
C226   C822    1.392   .     S
C227   N239    1.435   .     S
C227   C819    1.392   .     S
C228   N242    1.435   .     S
C228   C820    1.392   1_554 S
C235   C434    1.357   .     S
C235   N443    1.437   .     S
N237   N304    1.280   .     S
N237   C317    1.454   .     S
N238   N369    1.280   1_455 S
N238   C390    1.454   1_455 S
N239   O241    1.301   .     A
N239   O306    1.301   .     S
O240   N371    1.301   1_455 S
N242   O244    1.301   .     A
N242   O375    1.301   1_455 S
O243   N308    1.301   .     S
N245   O247    1.302   .     A
O246   N443    1.300   .     S
N248   O250    1.302   .     A
N248   C434    1.437   .     S
N248   O447    1.300   .     S
C251   H256    1.111   .     S
C251   H257    1.097   .     S
C251   N369    1.454   1_455 S
C251   C384    1.528   1_455 S
C252   H255    1.110   .     S
C252   H254    1.109   .     S
C252   H253    1.094   .     S
C252   C317    1.528   .     S
C258   H264    1.111   .     S
C258   H263    1.097   .     S
C258   N304    1.454   .     S
C258   C325    1.528   .     S
C259   H262    1.110   .     S
C259   H260    1.109   .     S
C259   H261    1.094   .     S
C259   C390    1.528   1_455 S
O265   C269    1.293   .     A
O265   Zn277   2.002   .     S
O266   Zn278   2.002   .     S
O266   C270    1.293   .     A
O267   Zn278   2.004   .     S
O267   C269    1.303   .     A
O268   C270    1.303   .     A
O268   Zn277   2.004   .     S
C269   C301    1.410   .     S
C270   C302    1.410   .     S
O271   C275    1.302   .     A
O271   Zn277   2.001   .     S
O272   C276    1.302   .     A
O272   Zn278   2.001   .     S
O273   Zn278   2.023   .     S
O273   C275    1.307   .     A
O274   C276    1.307   .     A
O274   Zn277   2.023   .     S
C275   C282    1.431   .     S
C276   C281    1.431   .     S
Zn277  N304    2.056   .     S
Zn278  N303    2.056   .     S
C279   H295    1.081   .     S
C279   C289    1.392   .     A
C279   C281    1.393   .     A
C280   C282    1.393   .     A
C280   H296    1.081   .     S
C280   C290    1.392   .     A
C281   C283    1.392   .     A
C282   C284    1.392   .     A
C283   H297    1.086   .     S
C283   C285    1.380   .     A
C284   H298    1.086   .     S
C284   C286    1.380   .     A
C285   C291    1.397   .     A
C285   C287    1.410   .     A
C286   C292    1.397   .     A
C286   C288    1.410   .     A
C287   C289    1.419   .     A
C287   C882    1.393   1_554 S
C288   C290    1.419   .     A
C288   C881    1.393   .     S
C289   C294    1.413   .     A
C290   C293    1.413   .     A
C291   H299    1.085   .     S
C291   C887    1.392   1_554 S
C292   H300    1.085   .     S
C292   C888    1.392   .     S
C293   N305    1.435   .     S
C293   C885    1.392   .     S
C294   N308    1.435   .     S
C294   C886    1.392   1_554 S
C301   C500    1.357   .     S
C301   N509    1.437   .     S
N303   N370    1.280   .     S
N303   C383    1.454   .     S
N305   O307    1.301   .     A
N305   O372    1.301   .     S
N308   O310    1.301   .     A
O309   N374    1.301   .     S
N311   O313    1.302   .     A
O312   N509    1.300   .     S
N314   O316    1.302   .     A
N314   C500    1.437   .     S
N314   O513    1.300   .     S
C317   H322    1.111   .     S
C317   H323    1.097   .     S
C318   H321    1.110   .     S
C318   H320    1.109   .     S
C318   H319    1.094   .     S
C318   C383    1.528   .     S
C324   H330    1.111   .     S
C324   H329    1.097   .     S
C324   N370    1.454   .     S
C324   C391    1.528   .     S
C325   H328    1.110   .     S
C325   H326    1.109   .     S
C325   H327    1.094   .     S
O331   C335    1.293   .     A
O331   Zn343   2.002   .     S
O332   Zn344   2.002   .     S
O332   C336    1.293   .     A
O333   Zn344   2.004   .     S
O333   C335    1.303   .     A
O334   C336    1.303   .     A
O334   Zn343   2.004   .     S
C335   C367    1.410   .     S
C336   C368    1.410   .     S
O337   C341    1.302   .     A
O337   Zn343   2.001   .     S
O338   C342    1.302   .     A
O338   Zn344   2.001   .     S
O339   Zn344   2.023   .     S
O339   C341    1.307   .     A
O340   C342    1.307   .     A
O340   Zn343   2.023   .     S
C341   C348    1.431   .     S
C342   C347    1.431   .     S
Zn343  N370    2.056   .     S
Zn344  N369    2.056   .     S
C345   H361    1.081   .     S
C345   C355    1.392   .     A
C345   C347    1.393   .     A
C346   C348    1.393   .     A
C346   H362    1.081   .     S
C346   C356    1.392   .     A
C347   C349    1.392   .     A
C348   C350    1.392   .     A
C349   H363    1.086   .     S
C349   C351    1.380   .     A
C350   H364    1.086   .     S
C350   C352    1.380   .     A
C351   C357    1.397   .     A
C351   C353    1.410   .     A
C352   C358    1.397   .     A
C352   C354    1.410   .     A
C353   C355    1.419   .     A
C353   C948    1.393   1_554 S
C354   C356    1.419   .     A
C354   C947    1.393   .     S
C355   C360    1.413   .     A
C356   C359    1.413   .     A
C357   H365    1.085   .     S
C357   C953    1.392   1_554 S
C358   H366    1.085   .     S
C358   C954    1.392   .     S
C359   N371    1.435   .     S
C359   C951    1.392   .     S
C360   N374    1.435   .     S
C360   C952    1.392   1_554 S
C367   C566    1.357   .     S
C367   N575    1.437   .     S
N369   N238    1.280   1_655 S
N369   C251    1.454   1_655 S
N371   O373    1.301   .     A
N371   O240    1.301   1_655 S
N374   O376    1.301   .     A
O375   N242    1.301   1_655 S
N377   O379    1.302   .     A
O378   N575    1.300   .     S
N380   O382    1.302   .     A
N380   C566    1.437   .     S
N380   O579    1.300   .     S
C383   H388    1.111   .     S
C383   H389    1.097   .     S
C384   H387    1.110   .     S
C384   H386    1.109   .     S
C384   H385    1.094   .     S
C384   C251    1.528   1_655 S
C390   H396    1.111   .     S
C390   H395    1.097   .     S
C390   N238    1.454   1_655 S
C390   C259    1.528   1_655 S
C391   H394    1.110   .     S
C391   H392    1.109   .     S
C391   H393    1.094   .     S
O397   C401    1.293   .     A
O397   Zn409   2.002   .     S
O398   Zn410   2.002   .     S
O398   C402    1.293   .     A
O399   Zn410   2.004   .     S
O399   C401    1.303   .     A
O400   C402    1.303   .     A
O400   Zn409   2.004   .     S
C401   C433    1.410   .     S
C402   C434    1.410   .     S
O403   C407    1.302   .     A
O403   Zn409   2.001   .     S
O404   C408    1.302   .     A
O404   Zn410   2.001   .     S
O405   Zn410   2.023   .     S
O405   C407    1.307   .     A
O406   C408    1.307   .     A
O406   Zn409   2.023   .     S
C407   C414    1.431   .     S
C408   C413    1.431   .     S
Zn409  N436    2.056   .     S
Zn410  N435    2.056   .     S
C411   H427    1.081   .     S
C411   C421    1.392   .     A
C411   C413    1.393   .     A
C412   C414    1.393   .     A
C412   H428    1.081   .     S
C412   C422    1.392   .     A
C413   C415    1.392   .     A
C414   C416    1.392   .     A
C415   H429    1.086   .     S
C415   C417    1.380   .     A
C416   H430    1.086   .     S
C416   C418    1.380   .     A
C417   C423    1.397   .     A
C417   C419    1.410   .     A
C418   C424    1.397   .     A
C418   C420    1.410   .     A
C419   C421    1.419   .     A
C419   C1014   1.393   1_554 S
C420   C422    1.419   .     A
C420   C1013   1.393   .     S
C421   C426    1.413   .     A
C422   C425    1.413   .     A
C423   H431    1.085   .     S
C423   C1019   1.392   1_554 S
C424   H432    1.085   .     S
C424   C1020   1.392   .     S
C425   N437    1.435   .     S
C425   C1017   1.392   .     S
C426   N440    1.435   .     S
C426   C1018   1.392   1_554 S
C433   C38     1.357   1_565 S
C433   N47     1.437   1_565 S
N435   N502    1.280   .     S
N435   C515    1.454   .     S
N436   N567    1.280   1_455 S
N436   C588    1.454   1_455 S
N437   O439    1.301   .     A
N437   O504    1.301   .     S
O438   N569    1.301   1_455 S
N440   O442    1.301   .     A
N440   O573    1.301   1_455 S
O441   N506    1.301   .     S
N443   O445    1.302   .     A
O444   N47     1.300   1_565 S
N446   O448    1.302   .     A
N446   C38     1.437   1_565 S
N446   O51     1.300   1_565 S
C449   H454    1.111   .     S
C449   H455    1.097   .     S
C449   N567    1.454   1_455 S
C449   C582    1.528   1_455 S
C450   H453    1.110   .     S
C450   H452    1.109   .     S
C450   H451    1.094   .     S
C450   C515    1.528   .     S
C456   H462    1.111   .     S
C456   H461    1.097   .     S
C456   N502    1.454   .     S
C456   C523    1.528   .     S
C457   H460    1.110   .     S
C457   H458    1.109   .     S
C457   H459    1.094   .     S
C457   C588    1.528   1_455 S
O463   C467    1.293   .     A
O463   Zn475   2.002   .     S
O464   Zn476   2.002   .     S
O464   C468    1.293   .     A
O465   Zn476   2.004   .     S
O465   C467    1.303   .     A
O466   C468    1.303   .     A
O466   Zn475   2.004   .     S
C467   C499    1.410   .     S
C468   C500    1.410   .     S
O469   C473    1.302   .     A
O469   Zn475   2.001   .     S
O470   C474    1.302   .     A
O470   Zn476   2.001   .     S
O471   Zn476   2.023   .     S
O471   C473    1.307   .     A
O472   C474    1.307   .     A
O472   Zn475   2.023   .     S
C473   C480    1.431   .     S
C474   C479    1.431   .     S
Zn475  N502    2.056   .     S
Zn476  N501    2.056   .     S
C477   H493    1.081   .     S
C477   C487    1.392   .     A
C477   C479    1.393   .     A
C478   C480    1.393   .     A
C478   H494    1.081   .     S
C478   C488    1.392   .     A
C479   C481    1.392   .     A
C480   C482    1.392   .     A
C481   H495    1.086   .     S
C481   C483    1.380   .     A
C482   H496    1.086   .     S
C482   C484    1.380   .     A
C483   C489    1.397   .     A
C483   C485    1.410   .     A
C484   C490    1.397   .     A
C484   C486    1.410   .     A
C485   C487    1.419   .     A
C485   C1080   1.393   1_554 S
C486   C488    1.419   .     A
C486   C1079   1.393   .     S
C487   C492    1.413   .     A
C488   C491    1.413   .     A
C489   H497    1.085   .     S
C489   C1085   1.392   1_554 S
C490   H498    1.085   .     S
C490   C1086   1.392   .     S
C491   N503    1.435   .     S
C491   C1083   1.392   .     S
C492   N506    1.435   .     S
C492   C1084   1.392   1_554 S
C499   C104    1.357   1_565 S
C499   N113    1.437   1_565 S
N501   N568    1.280   .     S
N501   C581    1.454   .     S
N503   O505    1.301   .     A
N503   O570    1.301   .     S
N506   O508    1.301   .     A
O507   N572    1.301   .     S
N509   O511    1.302   .     A
O510   N113    1.300   1_565 S
N512   O514    1.302   .     A
N512   C104    1.437   1_565 S
N512   O117    1.300   1_565 S
C515   H520    1.111   .     S
C515   H521    1.097   .     S
C516   H519    1.110   .     S
C516   H518    1.109   .     S
C516   H517    1.094   .     S
C516   C581    1.528   .     S
C522   H528    1.111   .     S
C522   H527    1.097   .     S
C522   N568    1.454   .     S
C522   C589    1.528   .     S
C523   H526    1.110   .     S
C523   H524    1.109   .     S
C523   H525    1.094   .     S
O529   C533    1.293   .     A
O529   Zn541   2.002   .     S
O530   Zn542   2.002   .     S
O530   C534    1.293   .     A
O531   Zn542   2.004   .     S
O531   C533    1.303   .     A
O532   C534    1.303   .     A
O532   Zn541   2.004   .     S
C533   C565    1.410   .     S
C534   C566    1.410   .     S
O535   C539    1.302   .     A
O535   Zn541   2.001   .     S
O536   C540    1.302   .     A
O536   Zn542   2.001   .     S
O537   Zn542   2.023   .     S
O537   C539    1.307   .     A
O538   C540    1.307   .     A
O538   Zn541   2.023   .     S
C539   C546    1.431   .     S
C540   C545    1.431   .     S
Zn541  N568    2.056   .     S
Zn542  N567    2.056   .     S
C543   H559    1.081   .     S
C543   C553    1.392   .     A
C543   C545    1.393   .     A
C544   C546    1.393   .     A
C544   H560    1.081   .     S
C544   C554    1.392   .     A
C545   C547    1.392   .     A
C546   C548    1.392   .     A
C547   H561    1.086   .     S
C547   C549    1.380   .     A
C548   H562    1.086   .     S
C548   C550    1.380   .     A
C549   C555    1.397   .     A
C549   C551    1.410   .     A
C550   C556    1.397   .     A
C550   C552    1.410   .     A
C551   C553    1.419   .     A
C551   C1146   1.393   1_554 S
C552   C554    1.419   .     A
C552   C1145   1.393   .     S
C553   C558    1.413   .     A
C554   C557    1.413   .     A
C555   H563    1.085   .     S
C555   C1151   1.392   1_554 S
C556   H564    1.085   .     S
C556   C1152   1.392   .     S
C557   N569    1.435   .     S
C557   C1149   1.392   .     S
C558   N572    1.435   .     S
C558   C1150   1.392   1_554 S
C565   C170    1.357   1_565 S
C565   N179    1.437   1_565 S
N567   N436    1.280   1_655 S
N567   C449    1.454   1_655 S
N569   O571    1.301   .     A
N569   O438    1.301   1_655 S
N572   O574    1.301   .     A
O573   N440    1.301   1_655 S
N575   O577    1.302   .     A
O576   N179    1.300   1_565 S
N578   O580    1.302   .     A
N578   C170    1.437   1_565 S
N578   O183    1.300   1_565 S
C581   H586    1.111   .     S
C581   H587    1.097   .     S
C582   H585    1.110   .     S
C582   H584    1.109   .     S
C582   H583    1.094   .     S
C582   C449    1.528   1_655 S
C588   H594    1.111   .     S
C588   H593    1.097   .     S
C588   N436    1.454   1_655 S
C588   C457    1.528   1_655 S
C589   H592    1.110   .     S
C589   H590    1.109   .     S
C589   H591    1.094   .     S
O595   C599    1.293   .     A
O595   Zn607   2.002   .     S
O596   Zn608   2.002   .     S
O596   C600    1.293   .     A
O597   Zn608   2.004   .     S
O597   C599    1.303   .     A
O598   C600    1.303   .     A
O598   Zn607   2.004   .     S
C599   C631    1.410   .     S
C600   C632    1.410   .     S
O601   C605    1.302   .     A
O601   Zn607   2.001   .     S
O602   C606    1.302   .     A
O602   Zn608   2.001   .     S
O603   Zn608   2.023   .     S
O603   C605    1.307   .     A
O604   C606    1.307   .     A
O604   Zn607   2.023   .     S
C605   C612    1.431   .     S
C606   C611    1.431   .     S
Zn607  N634    2.056   .     S
Zn608  N633    2.056   .     S
C609   H625    1.081   .     S
C609   C619    1.392   .     A
C609   C611    1.393   .     A
C610   C612    1.393   .     A
C610   H626    1.081   .     S
C610   C620    1.392   .     A
C611   C613    1.392   .     A
C612   C614    1.392   .     A
C613   H627    1.086   .     S
C613   C615    1.380   .     A
C614   H628    1.086   .     S
C614   C616    1.380   .     A
C615   C621    1.397   .     A
C615   C617    1.410   .     A
C616   C622    1.397   .     A
C616   C618    1.410   .     A
C617   C619    1.419   .     A
C618   C620    1.419   .     A
C618   C23     1.393   1_556 S
C619   C624    1.413   .     A
C620   C623    1.413   .     A
C621   H629    1.085   .     S
C622   H630    1.085   .     S
C622   C30     1.392   1_556 S
C623   N635    1.435   .     S
C623   C27     1.392   1_556 S
C624   N638    1.435   .     S
C631   C830    1.357   .     S
C631   N839    1.437   .     S
C632   C1027   1.357   1_545 S
C632   N1040   1.437   1_545 S
N633   N700    1.280   .     S
N633   C713    1.454   .     S
N634   N765    1.280   1_455 S
N634   C786    1.454   1_455 S
N635   O637    1.301   .     A
N635   O702    1.301   .     S
O636   N767    1.301   1_455 S
N638   O640    1.301   .     A
N638   O771    1.301   1_455 S
O639   N704    1.301   .     S
N641   O643    1.302   .     A
N641   C1027   1.437   1_545 S
N641   O1038   1.300   1_545 S
O642   N839    1.300   .     S
N644   O646    1.302   .     A
N644   C830    1.437   .     S
N644   O843    1.300   .     S
O645   N1040   1.300   1_545 S
C647   H652    1.111   .     S
C647   H653    1.097   .     S
C647   N765    1.454   1_455 S
C647   C780    1.528   1_455 S
C648   H651    1.110   .     S
C648   H650    1.109   .     S
C648   H649    1.094   .     S
C648   C713    1.528   .     S
C654   H660    1.111   .     S
C654   H659    1.097   .     S
C654   N700    1.454   .     S
C654   C721    1.528   .     S
C655   H658    1.110   .     S
C655   H656    1.109   .     S
C655   H657    1.094   .     S
C655   C786    1.528   1_455 S
O661   C665    1.293   .     A
O661   Zn673   2.002   .     S
O662   Zn674   2.002   .     S
O662   C666    1.293   .     A
O663   Zn674   2.004   .     S
O663   C665    1.303   .     A
O664   C666    1.303   .     A
O664   Zn673   2.004   .     S
C665   C697    1.410   .     S
C666   C698    1.410   .     S
O667   C671    1.302   .     A
O667   Zn673   2.001   .     S
O668   C672    1.302   .     A
O668   Zn674   2.001   .     S
O669   Zn674   2.023   .     S
O669   C671    1.307   .     A
O670   C672    1.307   .     A
O670   Zn673   2.023   .     S
C671   C678    1.431   .     S
C672   C677    1.431   .     S
Zn673  N700    2.056   .     S
Zn674  N699    2.056   .     S
C675   H691    1.081   .     S
C675   C685    1.392   .     A
C675   C677    1.393   .     A
C676   C678    1.393   .     A
C676   H692    1.081   .     S
C676   C686    1.392   .     A
C677   C679    1.392   .     A
C678   C680    1.392   .     A
C679   H693    1.086   .     S
C679   C681    1.380   .     A
C680   H694    1.086   .     S
C680   C682    1.380   .     A
C681   C687    1.397   .     A
C681   C683    1.410   .     A
C682   C688    1.397   .     A
C682   C684    1.410   .     A
C683   C685    1.419   .     A
C684   C686    1.419   .     A
C684   C89     1.393   1_556 S
C685   C690    1.413   .     A
C686   C689    1.413   .     A
C687   H695    1.085   .     S
C688   H696    1.085   .     S
C688   C96     1.392   1_556 S
C689   N701    1.435   .     S
C689   C93     1.392   1_556 S
C690   N704    1.435   .     S
C697   C896    1.357   .     S
C697   N905    1.437   .     S
C698   C1093   1.357   1_545 S
C698   N1106   1.437   1_545 S
N699   N766    1.280   .     S
N699   C779    1.454   .     S
N701   O703    1.301   .     A
N701   O768    1.301   .     S
N704   O706    1.301   .     A
O705   N770    1.301   .     S
N707   O709    1.302   .     A
N707   C1093   1.437   1_545 S
N707   O1104   1.300   1_545 S
O708   N905    1.300   .     S
N710   O712    1.302   .     A
N710   C896    1.437   .     S
N710   O909    1.300   .     S
O711   N1106   1.300   1_545 S
C713   H718    1.111   .     S
C713   H719    1.097   .     S
C714   H717    1.110   .     S
C714   H716    1.109   .     S
C714   H715    1.094   .     S
C714   C779    1.528   .     S
C720   H726    1.111   .     S
C720   H725    1.097   .     S
C720   N766    1.454   .     S
C720   C787    1.528   .     S
C721   H724    1.110   .     S
C721   H722    1.109   .     S
C721   H723    1.094   .     S
O727   C731    1.293   .     A
O727   Zn739   2.002   .     S
O728   Zn740   2.002   .     S
O728   C732    1.293   .     A
O729   Zn740   2.004   .     S
O729   C731    1.303   .     A
O730   C732    1.303   .     A
O730   Zn739   2.004   .     S
C731   C763    1.410   .     S
C732   C764    1.410   .     S
O733   C737    1.302   .     A
O733   Zn739   2.001   .     S
O734   C738    1.302   .     A
O734   Zn740   2.001   .     S
O735   Zn740   2.023   .     S
O735   C737    1.307   .     A
O736   C738    1.307   .     A
O736   Zn739   2.023   .     S
C737   C744    1.431   .     S
C738   C743    1.431   .     S
Zn739  N766    2.056   .     S
Zn740  N765    2.056   .     S
C741   H757    1.081   .     S
C741   C751    1.392   .     A
C741   C743    1.393   .     A
C742   C744    1.393   .     A
C742   H758    1.081   .     S
C742   C752    1.392   .     A
C743   C745    1.392   .     A
C744   C746    1.392   .     A
C745   H759    1.086   .     S
C745   C747    1.380   .     A
C746   H760    1.086   .     S
C746   C748    1.380   .     A
C747   C753    1.397   .     A
C747   C749    1.410   .     A
C748   C754    1.397   .     A
C748   C750    1.410   .     A
C749   C751    1.419   .     A
C750   C752    1.419   .     A
C750   C155    1.393   1_556 S
C751   C756    1.413   .     A
C752   C755    1.413   .     A
C753   H761    1.085   .     S
C754   H762    1.085   .     S
C754   C162    1.392   1_556 S
C755   N767    1.435   .     S
C755   C159    1.392   1_556 S
C756   N770    1.435   .     S
C763   C962    1.357   .     S
C763   N971    1.437   .     S
C764   C1159   1.357   1_545 S
C764   N1172   1.437   1_545 S
N765   N634    1.280   1_655 S
N765   C647    1.454   1_655 S
N767   O769    1.301   .     A
N767   O636    1.301   1_655 S
N770   O772    1.301   .     A
O771   N638    1.301   1_655 S
N773   O775    1.302   .     A
N773   C1159   1.437   1_545 S
N773   O1170   1.300   1_545 S
O774   N971    1.300   .     S
N776   O778    1.302   .     A
N776   C962    1.437   .     S
N776   O975    1.300   .     S
O777   N1172   1.300   1_545 S
C779   H784    1.111   .     S
C779   H785    1.097   .     S
C780   H783    1.110   .     S
C780   H782    1.109   .     S
C780   H781    1.094   .     S
C780   C647    1.528   1_655 S
C786   H792    1.111   .     S
C786   H791    1.097   .     S
C786   N634    1.454   1_655 S
C786   C655    1.528   1_655 S
C787   H790    1.110   .     S
C787   H788    1.109   .     S
C787   H789    1.094   .     S
O793   C797    1.293   .     A
O793   Zn805   2.002   .     S
O794   Zn806   2.002   .     S
O794   C798    1.293   .     A
O795   Zn806   2.004   .     S
O795   C797    1.303   .     A
O796   C798    1.303   .     A
O796   Zn805   2.004   .     S
C797   C829    1.410   .     S
C798   C830    1.410   .     S
O799   C803    1.302   .     A
O799   Zn805   2.001   .     S
O800   C804    1.302   .     A
O800   Zn806   2.001   .     S
O801   Zn806   2.023   .     S
O801   C803    1.307   .     A
O802   C804    1.307   .     A
O802   Zn805   2.023   .     S
C803   C810    1.431   .     S
C804   C809    1.431   .     S
Zn805  N832    2.056   .     S
Zn806  N831    2.056   .     S
C807   H823    1.081   .     S
C807   C817    1.392   .     A
C807   C809    1.393   .     A
C808   C810    1.393   .     A
C808   H824    1.081   .     S
C808   C818    1.392   .     A
C809   C811    1.392   .     A
C810   C812    1.392   .     A
C811   H825    1.086   .     S
C811   C813    1.380   .     A
C812   H826    1.086   .     S
C812   C814    1.380   .     A
C813   C819    1.397   .     A
C813   C815    1.410   .     A
C814   C820    1.397   .     A
C814   C816    1.410   .     A
C815   C817    1.419   .     A
C816   C818    1.419   .     A
C816   C221    1.393   1_556 S
C817   C822    1.413   .     A
C818   C821    1.413   .     A
C819   H827    1.085   .     S
C820   H828    1.085   .     S
C820   C228    1.392   1_556 S
C821   N833    1.435   .     S
C821   C225    1.392   1_556 S
C822   N836    1.435   .     S
C829   C1028   1.357   .     S
C829   N1037   1.437   .     S
N831   N898    1.280   .     S
N831   C911    1.454   .     S
N832   N963    1.280   1_455 S
N832   C984    1.454   1_455 S
N833   O835    1.301   .     A
N833   O900    1.301   .     S
O834   N965    1.301   1_455 S
N836   O838    1.301   .     A
N836   O969    1.301   1_455 S
O837   N902    1.301   .     S
N839   O841    1.302   .     A
O840   N1037   1.300   .     S
N842   O844    1.302   .     A
N842   C1028   1.437   .     S
N842   O1041   1.300   .     S
C845   H850    1.111   .     S
C845   H851    1.097   .     S
C845   N963    1.454   1_455 S
C845   C978    1.528   1_455 S
C846   H849    1.110   .     S
C846   H848    1.109   .     S
C846   H847    1.094   .     S
C846   C911    1.528   .     S
C852   H858    1.111   .     S
C852   H857    1.097   .     S
C852   N898    1.454   .     S
C852   C919    1.528   .     S
C853   H856    1.110   .     S
C853   H854    1.109   .     S
C853   H855    1.094   .     S
C853   C984    1.528   1_455 S
O859   C863    1.293   .     A
O859   Zn871   2.002   .     S
O860   Zn872   2.002   .     S
O860   C864    1.293   .     A
O861   Zn872   2.004   .     S
O861   C863    1.303   .     A
O862   C864    1.303   .     A
O862   Zn871   2.004   .     S
C863   C895    1.410   .     S
C864   C896    1.410   .     S
O865   C869    1.302   .     A
O865   Zn871   2.001   .     S
O866   C870    1.302   .     A
O866   Zn872   2.001   .     S
O867   Zn872   2.023   .     S
O867   C869    1.307   .     A
O868   C870    1.307   .     A
O868   Zn871   2.023   .     S
C869   C876    1.431   .     S
C870   C875    1.431   .     S
Zn871  N898    2.056   .     S
Zn872  N897    2.056   .     S
C873   H889    1.081   .     S
C873   C883    1.392   .     A
C873   C875    1.393   .     A
C874   C876    1.393   .     A
C874   H890    1.081   .     S
C874   C884    1.392   .     A
C875   C877    1.392   .     A
C876   C878    1.392   .     A
C877   H891    1.086   .     S
C877   C879    1.380   .     A
C878   H892    1.086   .     S
C878   C880    1.380   .     A
C879   C885    1.397   .     A
C879   C881    1.410   .     A
C880   C886    1.397   .     A
C880   C882    1.410   .     A
C881   C883    1.419   .     A
C882   C884    1.419   .     A
C882   C287    1.393   1_556 S
C883   C888    1.413   .     A
C884   C887    1.413   .     A
C885   H893    1.085   .     S
C886   H894    1.085   .     S
C886   C294    1.392   1_556 S
C887   N899    1.435   .     S
C887   C291    1.392   1_556 S
C888   N902    1.435   .     S
C895   C1094   1.357   .     S
C895   N1103   1.437   .     S
N897   N964    1.280   .     S
N897   C977    1.454   .     S
N899   O901    1.301   .     A
N899   O966    1.301   .     S
N902   O904    1.301   .     A
O903   N968    1.301   .     S
N905   O907    1.302   .     A
O906   N1103   1.300   .     S
N908   O910    1.302   .     A
N908   C1094   1.437   .     S
N908   O1107   1.300   .     S
C911   H916    1.111   .     S
C911   H917    1.097   .     S
C912   H915    1.110   .     S
C912   H914    1.109   .     S
C912   H913    1.094   .     S
C912   C977    1.528   .     S
C918   H924    1.111   .     S
C918   H923    1.097   .     S
C918   N964    1.454   .     S
C918   C985    1.528   .     S
C919   H922    1.110   .     S
C919   H920    1.109   .     S
C919   H921    1.094   .     S
O925   C929    1.293   .     A
O925   Zn937   2.002   .     S
O926   Zn938   2.002   .     S
O926   C930    1.293   .     A
O927   Zn938   2.004   .     S
O927   C929    1.303   .     A
O928   C930    1.303   .     A
O928   Zn937   2.004   .     S
C929   C961    1.410   .     S
C930   C962    1.410   .     S
O931   C935    1.302   .     A
O931   Zn937   2.001   .     S
O932   C936    1.302   .     A
O932   Zn938   2.001   .     S
O933   Zn938   2.023   .     S
O933   C935    1.307   .     A
O934   C936    1.307   .     A
O934   Zn937   2.023   .     S
C935   C942    1.431   .     S
C936   C941    1.431   .     S
Zn937  N964    2.056   .     S
Zn938  N963    2.056   .     S
C939   H955    1.081   .     S
C939   C949    1.392   .     A
C939   C941    1.393   .     A
C940   C942    1.393   .     A
C940   H956    1.081   .     S
C940   C950    1.392   .     A
C941   C943    1.392   .     A
C942   C944    1.392   .     A
C943   H957    1.086   .     S
C943   C945    1.380   .     A
C944   H958    1.086   .     S
C944   C946    1.380   .     A
C945   C951    1.397   .     A
C945   C947    1.410   .     A
C946   C952    1.397   .     A
C946   C948    1.410   .     A
C947   C949    1.419   .     A
C948   C950    1.419   .     A
C948   C353    1.393   1_556 S
C949   C954    1.413   .     A
C950   C953    1.413   .     A
C951   H959    1.085   .     S
C952   H960    1.085   .     S
C952   C360    1.392   1_556 S
C953   N965    1.435   .     S
C953   C357    1.392   1_556 S
C954   N968    1.435   .     S
C961   C1160   1.357   .     S
C961   N1169   1.437   .     S
N963   N832    1.280   1_655 S
N963   C845    1.454   1_655 S
N965   O967    1.301   .     A
N965   O834    1.301   1_655 S
N968   O970    1.301   .     A
O969   N836    1.301   1_655 S
N971   O973    1.302   .     A
O972   N1169   1.300   .     S
N974   O976    1.302   .     A
N974   C1160   1.437   .     S
N974   O1173   1.300   .     S
C977   H982    1.111   .     S
C977   H983    1.097   .     S
C978   H981    1.110   .     S
C978   H980    1.109   .     S
C978   H979    1.094   .     S
C978   C845    1.528   1_655 S
C984   H990    1.111   .     S
C984   H989    1.097   .     S
C984   N832    1.454   1_655 S
C984   C853    1.528   1_655 S
C985   H988    1.110   .     S
C985   H986    1.109   .     S
C985   H987    1.094   .     S
O991   C995    1.293   .     A
O991   Zn1003  2.002   .     S
O992   Zn1004  2.002   .     S
O992   C996    1.293   .     A
O993   Zn1004  2.004   .     S
O993   C995    1.303   .     A
O994   C996    1.303   .     A
O994   Zn1003  2.004   .     S
C995   C1027   1.410   .     S
C996   C1028   1.410   .     S
O997   C1001   1.302   .     A
O997   Zn1003  2.001   .     S
O998   C1002   1.302   .     A
O998   Zn1004  2.001   .     S
O999   Zn1004  2.023   .     S
O999   C1001   1.307   .     A
O1000  C1002   1.307   .     A
O1000  Zn1003  2.023   .     S
C1001  C1008   1.431   .     S
C1002  C1007   1.431   .     S
Zn1003 N1030   2.056   .     S
Zn1004 N1029   2.056   .     S
C1005  H1021   1.081   .     S
C1005  C1015   1.392   .     A
C1005  C1007   1.393   .     A
C1006  C1008   1.393   .     A
C1006  H1022   1.081   .     S
C1006  C1016   1.392   .     A
C1007  C1009   1.392   .     A
C1008  C1010   1.392   .     A
C1009  H1023   1.086   .     S
C1009  C1011   1.380   .     A
C1010  H1024   1.086   .     S
C1010  C1012   1.380   .     A
C1011  C1017   1.397   .     A
C1011  C1013   1.410   .     A
C1012  C1018   1.397   .     A
C1012  C1014   1.410   .     A
C1013  C1015   1.419   .     A
C1014  C1016   1.419   .     A
C1014  C419    1.393   1_556 S
C1015  C1020   1.413   .     A
C1016  C1019   1.413   .     A
C1017  H1025   1.085   .     S
C1018  H1026   1.085   .     S
C1018  C426    1.392   1_556 S
C1019  N1031   1.435   .     S
C1019  C423    1.392   1_556 S
C1020  N1034   1.435   .     S
C1027  C632    1.357   1_565 S
C1027  N641    1.437   1_565 S
N1029  N1096   1.280   .     S
N1029  C1109   1.454   .     S
N1030  N1161   1.280   1_455 S
N1030  C1182   1.454   1_455 S
N1031  O1033   1.301   .     A
N1031  O1098   1.301   .     S
O1032  N1163   1.301   1_455 S
N1034  O1036   1.301   .     A
N1034  O1167   1.301   1_455 S
O1035  N1100   1.301   .     S
N1037  O1039   1.302   .     A
O1038  N641    1.300   1_565 S
N1040  O1042   1.302   .     A
N1040  C632    1.437   1_565 S
N1040  O645    1.300   1_565 S
C1043  H1048   1.111   .     S
C1043  H1049   1.097   .     S
C1043  N1161   1.454   1_455 S
C1043  C1176   1.528   1_455 S
C1044  H1047   1.110   .     S
C1044  H1046   1.109   .     S
C1044  H1045   1.094   .     S
C1044  C1109   1.528   .     S
C1050  H1056   1.111   .     S
C1050  H1055   1.097   .     S
C1050  N1096   1.454   .     S
C1050  C1117   1.528   .     S
C1051  H1054   1.110   .     S
C1051  H1052   1.109   .     S
C1051  H1053   1.094   .     S
C1051  C1182   1.528   1_455 S
O1057  C1061   1.293   .     A
O1057  Zn1069  2.002   .     S
O1058  Zn1070  2.002   .     S
O1058  C1062   1.293   .     A
O1059  Zn1070  2.004   .     S
O1059  C1061   1.303   .     A
O1060  C1062   1.303   .     A
O1060  Zn1069  2.004   .     S
C1061  C1093   1.410   .     S
C1062  C1094   1.410   .     S
O1063  C1067   1.302   .     A
O1063  Zn1069  2.001   .     S
O1064  C1068   1.302   .     A
O1064  Zn1070  2.001   .     S
O1065  Zn1070  2.023   .     S
O1065  C1067   1.307   .     A
O1066  C1068   1.307   .     A
O1066  Zn1069  2.023   .     S
C1067  C1074   1.431   .     S
C1068  C1073   1.431   .     S
Zn1069 N1096   2.056   .     S
Zn1070 N1095   2.056   .     S
C1071  H1087   1.081   .     S
C1071  C1081   1.392   .     A
C1071  C1073   1.393   .     A
C1072  C1074   1.393   .     A
C1072  H1088   1.081   .     S
C1072  C1082   1.392   .     A
C1073  C1075   1.392   .     A
C1074  C1076   1.392   .     A
C1075  H1089   1.086   .     S
C1075  C1077   1.380   .     A
C1076  H1090   1.086   .     S
C1076  C1078   1.380   .     A
C1077  C1083   1.397   .     A
C1077  C1079   1.410   .     A
C1078  C1084   1.397   .     A
C1078  C1080   1.410   .     A
C1079  C1081   1.419   .     A
C1080  C1082   1.419   .     A
C1080  C485    1.393   1_556 S
C1081  C1086   1.413   .     A
C1082  C1085   1.413   .     A
C1083  H1091   1.085   .     S
C1084  H1092   1.085   .     S
C1084  C492    1.392   1_556 S
C1085  N1097   1.435   .     S
C1085  C489    1.392   1_556 S
C1086  N1100   1.435   .     S
C1093  C698    1.357   1_565 S
C1093  N707    1.437   1_565 S
N1095  N1162   1.280   .     S
N1095  C1175   1.454   .     S
N1097  O1099   1.301   .     A
N1097  O1164   1.301   .     S
N1100  O1102   1.301   .     A
O1101  N1166   1.301   .     S
N1103  O1105   1.302   .     A
O1104  N707    1.300   1_565 S
N1106  O1108   1.302   .     A
N1106  C698    1.437   1_565 S
N1106  O711    1.300   1_565 S
C1109  H1114   1.111   .     S
C1109  H1115   1.097   .     S
C1110  H1113   1.110   .     S
C1110  H1112   1.109   .     S
C1110  H1111   1.094   .     S
C1110  C1175   1.528   .     S
C1116  H1122   1.111   .     S
C1116  H1121   1.097   .     S
C1116  N1162   1.454   .     S
C1116  C1183   1.528   .     S
C1117  H1120   1.110   .     S
C1117  H1118   1.109   .     S
C1117  H1119   1.094   .     S
O1123  C1127   1.293   .     A
O1123  Zn1135  2.002   .     S
O1124  Zn1136  2.002   .     S
O1124  C1128   1.293   .     A
O1125  Zn1136  2.004   .     S
O1125  C1127   1.303   .     A
O1126  C1128   1.303   .     A
O1126  Zn1135  2.004   .     S
C1127  C1159   1.410   .     S
C1128  C1160   1.410   .     S
O1129  C1133   1.302   .     A
O1129  Zn1135  2.001   .     S
O1130  C1134   1.302   .     A
O1130  Zn1136  2.001   .     S
O1131  Zn1136  2.023   .     S
O1131  C1133   1.307   .     A
O1132  C1134   1.307   .     A
O1132  Zn1135  2.023   .     S
C1133  C1140   1.431   .     S
C1134  C1139   1.431   .     S
Zn1135 N1162   2.056   .     S
Zn1136 N1161   2.056   .     S
C1137  H1153   1.081   .     S
C1137  C1147   1.392   .     A
C1137  C1139   1.393   .     A
C1138  C1140   1.393   .     A
C1138  H1154   1.081   .     S
C1138  C1148   1.392   .     A
C1139  C1141   1.392   .     A
C1140  C1142   1.392   .     A
C1141  H1155   1.086   .     S
C1141  C1143   1.380   .     A
C1142  H1156   1.086   .     S
C1142  C1144   1.380   .     A
C1143  C1149   1.397   .     A
C1143  C1145   1.410   .     A
C1144  C1150   1.397   .     A
C1144  C1146   1.410   .     A
C1145  C1147   1.419   .     A
C1146  C1148   1.419   .     A
C1146  C551    1.393   1_556 S
C1147  C1152   1.413   .     A
C1148  C1151   1.413   .     A
C1149  H1157   1.085   .     S
C1150  H1158   1.085   .     S
C1150  C558    1.392   1_556 S
C1151  N1163   1.435   .     S
C1151  C555    1.392   1_556 S
C1152  N1166   1.435   .     S
C1159  C764    1.357   1_565 S
C1159  N773    1.437   1_565 S
N1161  N1030   1.280   1_655 S
N1161  C1043   1.454   1_655 S
N1163  O1165   1.301   .     A
N1163  O1032   1.301   1_655 S
N1166  O1168   1.301   .     A
O1167  N1034   1.301   1_655 S
N1169  O1171   1.302   .     A
O1170  N773    1.300   1_565 S
N1172  O1174   1.302   .     A
N1172  C764    1.437   1_565 S
N1172  O777    1.300   1_565 S
C1175  H1180   1.111   .     S
C1175  H1181   1.097   .     S
C1176  H1179   1.110   .     S
C1176  H1178   1.109   .     S
C1176  H1177   1.094   .     S
C1176  C1043   1.528   1_655 S
C1182  H1188   1.111   .     S
C1182  H1187   1.097   .     S
C1182  N1030   1.454   1_655 S
C1182  C1051   1.528   1_655 S
C1183  H1186   1.110   .     S
C1183  H1184   1.109   .     S
C1183  H1185   1.094   .     S
