data_str_m2_o1_o17_pcu_sym.186
_audit_creation_date              2020-01-03
_audit_creation_method            'Materials Studio'
_symmetry_space_group_name_H-M    'P1'
_symmetry_Int_Tables_number       1
_symmetry_cell_setting            triclinic
loop_
_symmetry_equiv_pos_as_xyz
  x,y,z
_cell_length_a                    32.8410
_cell_length_b                    28.7907
_cell_length_c                    30.0574
_cell_angle_alpha                 89.8384
_cell_angle_beta                  91.7223
_cell_angle_gamma                 88.9925
loop_
_atom_site_label
_atom_site_type_symbol
_atom_site_fract_x
_atom_site_fract_y
_atom_site_fract_z
_atom_site_U_iso_or_equiv
_atom_site_adp_type
_atom_site_occupancy
C1     C     0.08755   0.16710   0.25256   0.00000  Uiso   1.00
C2     C     0.24579   0.16623   0.24744   0.00000  Uiso   1.00
C3     C     0.09155   0.15747   0.01753   0.00000  Uiso   1.00
C4     C     0.24178   0.17586   0.48247   0.00000  Uiso   1.00
C5     C     0.02207   0.12583   0.26147   0.00000  Uiso   1.00
C6     C     0.31126   0.20750   0.23853   0.00000  Uiso   1.00
C7     C     0.31342   0.12401   0.25339   0.00000  Uiso   1.00
C8     C     0.01991   0.20933   0.24661   0.00000  Uiso   1.00
C9     C     0.29061   0.16550   0.24515   0.00000  Uiso   1.00
C10    C     0.04272   0.16783   0.25485   0.00000  Uiso   1.00
C11    C     0.14231   0.02532   0.22052   0.00000  Uiso   1.00
C12    C     0.19103   0.30802   0.27948   0.00000  Uiso   1.00
C13    C     0.19059   0.02420   0.27990   0.00000  Uiso   1.00
C14    C     0.14274   0.30913   0.22010   0.00000  Uiso   1.00
C15    C     0.16610   0.16675   0.16464   0.00000  Uiso   1.00
C16    C     0.16724   0.16658   0.33536   0.00000  Uiso   1.00
C17    C     0.20590   0.16890   0.40781   0.00000  Uiso   1.00
C18    C     0.12743   0.16443   0.09219   0.00000  Uiso   1.00
C19    C     0.16867   0.16639   0.38359   0.00000  Uiso   1.00
C20    C     0.16466   0.16694   0.11641   0.00000  Uiso   1.00
C21    C     0.13197   0.16329   0.40488   0.00000  Uiso   1.00
C22    C     0.20136   0.17005   0.09512   0.00000  Uiso   1.00
C23    C     0.13118   0.16281   0.45096   0.00000  Uiso   1.00
C24    C     0.20215   0.17052   0.04904   0.00000  Uiso   1.00
C25    C     0.16765   0.16669   0.47654   0.00000  Uiso   1.00
C26    C     0.16569   0.16664   0.02346   0.00000  Uiso   1.00
C27    C     0.20585   0.17055   0.45521   0.00000  Uiso   1.00
C28    C     0.12748   0.16278   0.04479   0.00000  Uiso   1.00
C29    C     0.09396   0.15811   0.47139   0.00000  Uiso   1.00
C30    C     0.23937   0.17522   0.02861   0.00000  Uiso   1.00
Cu31   Cu    0.16667   0.21355   0.25000   0.00000  Uiso   1.00
Cu32   Cu    0.16667   0.11978   0.25000   0.00000  Uiso   1.00
H33    H     0.10383   0.16082   0.38517   0.00000  Uiso   1.00
H34    H     0.22950   0.17251   0.11484   0.00000  Uiso   1.00
H35    H     0.06636   0.15427   0.45100   0.00000  Uiso   1.00
H36    H     0.26697   0.17906   0.04900   0.00000  Uiso   1.00
N37    N     0.16667   0.28402   0.25000   0.00000  Uiso   1.00
N38    N     0.16667   0.04931   0.25000   0.00000  Uiso   1.00
O39    O     0.10655   0.20625   0.25000   0.00000  Uiso   1.00
O40    O     0.22679   0.12709   0.25001   0.00000  Uiso   1.00
O41    O     0.22679   0.20625   0.25001   0.00000  Uiso   1.00
O42    O     0.10655   0.12709   0.25000   0.00000  Uiso   1.00
O43    O     0.16666   0.20627   0.18513   0.00000  Uiso   1.00
O44    O     0.16668   0.12707   0.31487   0.00000  Uiso   1.00
O45    O     0.16668   0.20627   0.31487   0.00000  Uiso   1.00
O46    O     0.16666   0.12707   0.18513   0.00000  Uiso   1.00
C47    C     0.24308   0.16721   0.38291   0.00000  Uiso   1.00
N48    N     0.27250   0.16560   0.36264   0.00000  Uiso   1.00
C49    C     0.09025   0.16612   0.11709   0.00000  Uiso   1.00
N50    N     0.06083   0.16773   0.13736   0.00000  Uiso   1.00
C51    C     0.05155   0.14922   0.03442   0.00000  Uiso   1.00
N52    N     0.01938   0.14243   0.04746   0.00000  Uiso   1.00
C53    C     0.28178   0.18411   0.46558   0.00000  Uiso   1.00
N54    N     0.31395   0.19090   0.45254   0.00000  Uiso   1.00
C55    C     0.04298   0.08494   0.28014   0.00000  Uiso   1.00
N56    N     0.05961   0.05259   0.29535   0.00000  Uiso   1.00
C57    C     0.29035   0.24840   0.21986   0.00000  Uiso   1.00
N58    N     0.27373   0.28075   0.20465   0.00000  Uiso   1.00
C59    C     0.29547   0.07847   0.24965   0.00000  Uiso   1.00
N60    N     0.28192   0.04182   0.24607   0.00000  Uiso   1.00
C61    C     0.03787   0.25487   0.25035   0.00000  Uiso   1.00
N62    N     0.05141   0.29151   0.25393   0.00000  Uiso   1.00
C63    C     0.11490   0.05023   0.19019   0.00000  Uiso   1.00
N64    N     0.09254   0.06948   0.16573   0.00000  Uiso   1.00
C65    C     0.21844   0.28310   0.30981   0.00000  Uiso   1.00
N66    N     0.24080   0.26385   0.33427   0.00000  Uiso   1.00
C67    C     0.21552   0.04796   0.31267   0.00000  Uiso   1.00
N68    N     0.23577   0.06629   0.33919   0.00000  Uiso   1.00
C69    C     0.11781   0.28537   0.18733   0.00000  Uiso   1.00
N70    N     0.09756   0.26704   0.16082   0.00000  Uiso   1.00
C71    C     0.42088   0.16710   0.25256   0.00000  Uiso   1.00
C72    C     0.57912   0.16623   0.24744   0.00000  Uiso   1.00
C73    C     0.42489   0.15747   0.01753   0.00000  Uiso   1.00
C74    C     0.57511   0.17586   0.48247   0.00000  Uiso   1.00
C75    C     0.35540   0.12583   0.26147   0.00000  Uiso   1.00
C76    C     0.64460   0.20750   0.23853   0.00000  Uiso   1.00
C77    C     0.64675   0.12401   0.25339   0.00000  Uiso   1.00
C78    C     0.35325   0.20933   0.24661   0.00000  Uiso   1.00
C79    C     0.62394   0.16550   0.24515   0.00000  Uiso   1.00
C80    C     0.37606   0.16783   0.25485   0.00000  Uiso   1.00
C81    C     0.47564   0.02532   0.22052   0.00000  Uiso   1.00
C82    C     0.52436   0.30802   0.27948   0.00000  Uiso   1.00
C83    C     0.52392   0.02420   0.27990   0.00000  Uiso   1.00
C84    C     0.47608   0.30913   0.22010   0.00000  Uiso   1.00
C85    C     0.49943   0.16675   0.16464   0.00000  Uiso   1.00
C86    C     0.50057   0.16658   0.33536   0.00000  Uiso   1.00
C87    C     0.53924   0.16890   0.40781   0.00000  Uiso   1.00
C88    C     0.46076   0.16443   0.09219   0.00000  Uiso   1.00
C89    C     0.50201   0.16639   0.38359   0.00000  Uiso   1.00
C90    C     0.49799   0.16694   0.11641   0.00000  Uiso   1.00
C91    C     0.46531   0.16329   0.40488   0.00000  Uiso   1.00
C92    C     0.53469   0.17005   0.09512   0.00000  Uiso   1.00
C93    C     0.46451   0.16281   0.45096   0.00000  Uiso   1.00
C94    C     0.53549   0.17052   0.04904   0.00000  Uiso   1.00
C95    C     0.50098   0.16669   0.47654   0.00000  Uiso   1.00
C96    C     0.49902   0.16664   0.02346   0.00000  Uiso   1.00
C97    C     0.53918   0.17055   0.45521   0.00000  Uiso   1.00
C98    C     0.46082   0.16278   0.04479   0.00000  Uiso   1.00
C99    C     0.42730   0.15811   0.47139   0.00000  Uiso   1.00
C100   C     0.57270   0.17522   0.02861   0.00000  Uiso   1.00
Cu101  Cu    0.50000   0.21355   0.25000   0.00000  Uiso   1.00
Cu102  Cu    0.50000   0.11978   0.25000   0.00000  Uiso   1.00
H103   H     0.43717   0.16082   0.38517   0.00000  Uiso   1.00
H104   H     0.56283   0.17251   0.11484   0.00000  Uiso   1.00
H105   H     0.39970   0.15427   0.45100   0.00000  Uiso   1.00
H106   H     0.60030   0.17906   0.04900   0.00000  Uiso   1.00
N107   N     0.50000   0.28402   0.25000   0.00000  Uiso   1.00
N108   N     0.50000   0.04931   0.25000   0.00000  Uiso   1.00
O109   O     0.43988   0.20625   0.25000   0.00000  Uiso   1.00
O110   O     0.56012   0.12709   0.25001   0.00000  Uiso   1.00
O111   O     0.56012   0.20625   0.25001   0.00000  Uiso   1.00
O112   O     0.43988   0.12709   0.25000   0.00000  Uiso   1.00
O113   O     0.49999   0.20627   0.18513   0.00000  Uiso   1.00
O114   O     0.50001   0.12707   0.31487   0.00000  Uiso   1.00
O115   O     0.50001   0.20627   0.31487   0.00000  Uiso   1.00
O116   O     0.49999   0.12707   0.18513   0.00000  Uiso   1.00
C117   C     0.57641   0.16721   0.38291   0.00000  Uiso   1.00
N118   N     0.60583   0.16560   0.36264   0.00000  Uiso   1.00
C119   C     0.42359   0.16612   0.11709   0.00000  Uiso   1.00
N120   N     0.39417   0.16773   0.13736   0.00000  Uiso   1.00
C121   C     0.38489   0.14922   0.03442   0.00000  Uiso   1.00
N122   N     0.35271   0.14243   0.04746   0.00000  Uiso   1.00
C123   C     0.61511   0.18411   0.46558   0.00000  Uiso   1.00
N124   N     0.64729   0.19090   0.45254   0.00000  Uiso   1.00
C125   C     0.37632   0.08494   0.28014   0.00000  Uiso   1.00
N126   N     0.39294   0.05259   0.29535   0.00000  Uiso   1.00
C127   C     0.62368   0.24840   0.21986   0.00000  Uiso   1.00
N128   N     0.60706   0.28075   0.20465   0.00000  Uiso   1.00
C129   C     0.62880   0.07847   0.24965   0.00000  Uiso   1.00
N130   N     0.61525   0.04182   0.24607   0.00000  Uiso   1.00
C131   C     0.37120   0.25487   0.25035   0.00000  Uiso   1.00
N132   N     0.38475   0.29151   0.25393   0.00000  Uiso   1.00
C133   C     0.44823   0.05023   0.19019   0.00000  Uiso   1.00
N134   N     0.42587   0.06948   0.16573   0.00000  Uiso   1.00
C135   C     0.55177   0.28310   0.30981   0.00000  Uiso   1.00
N136   N     0.57413   0.26385   0.33427   0.00000  Uiso   1.00
C137   C     0.54886   0.04796   0.31267   0.00000  Uiso   1.00
N138   N     0.56910   0.06629   0.33919   0.00000  Uiso   1.00
C139   C     0.45114   0.28537   0.18733   0.00000  Uiso   1.00
N140   N     0.43090   0.26704   0.16082   0.00000  Uiso   1.00
C141   C     0.75421   0.16710   0.25256   0.00000  Uiso   1.00
C142   C     0.91245   0.16623   0.24744   0.00000  Uiso   1.00
C143   C     0.75822   0.15747   0.01753   0.00000  Uiso   1.00
C144   C     0.90845   0.17586   0.48247   0.00000  Uiso   1.00
C145   C     0.68874   0.12583   0.26147   0.00000  Uiso   1.00
C146   C     0.97793   0.20750   0.23853   0.00000  Uiso   1.00
C147   C     0.98009   0.12401   0.25339   0.00000  Uiso   1.00
C148   C     0.68658   0.20933   0.24661   0.00000  Uiso   1.00
C149   C     0.95727   0.16550   0.24515   0.00000  Uiso   1.00
C150   C     0.70939   0.16783   0.25485   0.00000  Uiso   1.00
C151   C     0.80897   0.02532   0.22052   0.00000  Uiso   1.00
C152   C     0.85769   0.30802   0.27948   0.00000  Uiso   1.00
C153   C     0.85726   0.02420   0.27990   0.00000  Uiso   1.00
C154   C     0.80941   0.30913   0.22010   0.00000  Uiso   1.00
C155   C     0.83276   0.16675   0.16464   0.00000  Uiso   1.00
C156   C     0.83390   0.16658   0.33536   0.00000  Uiso   1.00
C157   C     0.87257   0.16890   0.40781   0.00000  Uiso   1.00
C158   C     0.79410   0.16443   0.09219   0.00000  Uiso   1.00
C159   C     0.83534   0.16639   0.38359   0.00000  Uiso   1.00
C160   C     0.83133   0.16694   0.11641   0.00000  Uiso   1.00
C161   C     0.79864   0.16329   0.40488   0.00000  Uiso   1.00
C162   C     0.86803   0.17005   0.09512   0.00000  Uiso   1.00
C163   C     0.79784   0.16281   0.45096   0.00000  Uiso   1.00
C164   C     0.86882   0.17052   0.04904   0.00000  Uiso   1.00
C165   C     0.83431   0.16669   0.47654   0.00000  Uiso   1.00
C166   C     0.83235   0.16664   0.02346   0.00000  Uiso   1.00
C167   C     0.87252   0.17055   0.45521   0.00000  Uiso   1.00
C168   C     0.79415   0.16278   0.04479   0.00000  Uiso   1.00
C169   C     0.76063   0.15811   0.47139   0.00000  Uiso   1.00
C170   C     0.90604   0.17522   0.02861   0.00000  Uiso   1.00
Cu171  Cu    0.83333   0.21355   0.25000   0.00000  Uiso   1.00
Cu172  Cu    0.83333   0.11978   0.25000   0.00000  Uiso   1.00
H173   H     0.77050   0.16082   0.38517   0.00000  Uiso   1.00
H174   H     0.89617   0.17251   0.11484   0.00000  Uiso   1.00
H175   H     0.73303   0.15427   0.45100   0.00000  Uiso   1.00
H176   H     0.93363   0.17906   0.04900   0.00000  Uiso   1.00
N177   N     0.83333   0.28402   0.25000   0.00000  Uiso   1.00
N178   N     0.83333   0.04931   0.25000   0.00000  Uiso   1.00
O179   O     0.77321   0.20625   0.25000   0.00000  Uiso   1.00
O180   O     0.89345   0.12709   0.25001   0.00000  Uiso   1.00
O181   O     0.89345   0.20625   0.25001   0.00000  Uiso   1.00
O182   O     0.77321   0.12709   0.25000   0.00000  Uiso   1.00
O183   O     0.83332   0.20627   0.18513   0.00000  Uiso   1.00
O184   O     0.83334   0.12707   0.31487   0.00000  Uiso   1.00
O185   O     0.83334   0.20627   0.31487   0.00000  Uiso   1.00
O186   O     0.83332   0.12707   0.18513   0.00000  Uiso   1.00
C187   C     0.90975   0.16721   0.38291   0.00000  Uiso   1.00
N188   N     0.93917   0.16560   0.36264   0.00000  Uiso   1.00
C189   C     0.75692   0.16612   0.11709   0.00000  Uiso   1.00
N190   N     0.72750   0.16773   0.13736   0.00000  Uiso   1.00
C191   C     0.71822   0.14922   0.03442   0.00000  Uiso   1.00
N192   N     0.68605   0.14243   0.04746   0.00000  Uiso   1.00
C193   C     0.94845   0.18411   0.46558   0.00000  Uiso   1.00
N194   N     0.98062   0.19090   0.45254   0.00000  Uiso   1.00
C195   C     0.70965   0.08494   0.28014   0.00000  Uiso   1.00
N196   N     0.72627   0.05259   0.29535   0.00000  Uiso   1.00
C197   C     0.95702   0.24840   0.21986   0.00000  Uiso   1.00
N198   N     0.94039   0.28075   0.20465   0.00000  Uiso   1.00
C199   C     0.96213   0.07847   0.24965   0.00000  Uiso   1.00
N200   N     0.94859   0.04182   0.24607   0.00000  Uiso   1.00
C201   C     0.70453   0.25487   0.25035   0.00000  Uiso   1.00
N202   N     0.71808   0.29151   0.25393   0.00000  Uiso   1.00
C203   C     0.78156   0.05023   0.19019   0.00000  Uiso   1.00
N204   N     0.75920   0.06948   0.16573   0.00000  Uiso   1.00
C205   C     0.88510   0.28310   0.30981   0.00000  Uiso   1.00
N206   N     0.90746   0.26385   0.33427   0.00000  Uiso   1.00
C207   C     0.88219   0.04796   0.31267   0.00000  Uiso   1.00
N208   N     0.90244   0.06629   0.33919   0.00000  Uiso   1.00
C209   C     0.78448   0.28537   0.18733   0.00000  Uiso   1.00
N210   N     0.76423   0.26704   0.16082   0.00000  Uiso   1.00
C211   C     0.08755   0.50044   0.25256   0.00000  Uiso   1.00
C212   C     0.24579   0.49956   0.24744   0.00000  Uiso   1.00
C213   C     0.09155   0.49080   0.01753   0.00000  Uiso   1.00
C214   C     0.24178   0.50920   0.48247   0.00000  Uiso   1.00
C215   C     0.02207   0.45916   0.26147   0.00000  Uiso   1.00
C216   C     0.31126   0.54084   0.23853   0.00000  Uiso   1.00
C217   C     0.31342   0.45734   0.25339   0.00000  Uiso   1.00
C218   C     0.01991   0.54266   0.24661   0.00000  Uiso   1.00
C219   C     0.29061   0.49884   0.24515   0.00000  Uiso   1.00
C220   C     0.04272   0.50116   0.25485   0.00000  Uiso   1.00
C221   C     0.14231   0.35865   0.22052   0.00000  Uiso   1.00
C222   C     0.19103   0.64135   0.27948   0.00000  Uiso   1.00
C223   C     0.19059   0.35754   0.27990   0.00000  Uiso   1.00
C224   C     0.14274   0.64246   0.22010   0.00000  Uiso   1.00
C225   C     0.16610   0.50008   0.16464   0.00000  Uiso   1.00
C226   C     0.16724   0.49992   0.33536   0.00000  Uiso   1.00
C227   C     0.20590   0.50224   0.40781   0.00000  Uiso   1.00
C228   C     0.12743   0.49777   0.09219   0.00000  Uiso   1.00
C229   C     0.16867   0.49973   0.38359   0.00000  Uiso   1.00
C230   C     0.16466   0.50027   0.11641   0.00000  Uiso   1.00
C231   C     0.13197   0.49662   0.40488   0.00000  Uiso   1.00
C232   C     0.20136   0.50338   0.09512   0.00000  Uiso   1.00
C233   C     0.13118   0.49614   0.45096   0.00000  Uiso   1.00
C234   C     0.20215   0.50386   0.04904   0.00000  Uiso   1.00
C235   C     0.16765   0.50002   0.47654   0.00000  Uiso   1.00
C236   C     0.16569   0.49998   0.02346   0.00000  Uiso   1.00
C237   C     0.20585   0.50388   0.45521   0.00000  Uiso   1.00
C238   C     0.12748   0.49612   0.04479   0.00000  Uiso   1.00
C239   C     0.09396   0.49144   0.47139   0.00000  Uiso   1.00
C240   C     0.23937   0.50856   0.02861   0.00000  Uiso   1.00
Cu241  Cu    0.16667   0.54689   0.25000   0.00000  Uiso   1.00
Cu242  Cu    0.16667   0.45311   0.25000   0.00000  Uiso   1.00
H243   H     0.10383   0.49416   0.38517   0.00000  Uiso   1.00
H244   H     0.22950   0.50584   0.11484   0.00000  Uiso   1.00
H245   H     0.06636   0.48761   0.45100   0.00000  Uiso   1.00
H246   H     0.26697   0.51239   0.04900   0.00000  Uiso   1.00
N247   N     0.16667   0.61736   0.25000   0.00000  Uiso   1.00
N248   N     0.16667   0.38264   0.25000   0.00000  Uiso   1.00
O249   O     0.10655   0.53958   0.25000   0.00000  Uiso   1.00
O250   O     0.22679   0.46042   0.25001   0.00000  Uiso   1.00
O251   O     0.22679   0.53958   0.25001   0.00000  Uiso   1.00
O252   O     0.10655   0.46042   0.25000   0.00000  Uiso   1.00
O253   O     0.16666   0.53960   0.18513   0.00000  Uiso   1.00
O254   O     0.16668   0.46040   0.31487   0.00000  Uiso   1.00
O255   O     0.16668   0.53960   0.31487   0.00000  Uiso   1.00
O256   O     0.16666   0.46040   0.18513   0.00000  Uiso   1.00
C257   C     0.24308   0.50054   0.38291   0.00000  Uiso   1.00
N258   N     0.27250   0.49894   0.36264   0.00000  Uiso   1.00
C259   C     0.09025   0.49946   0.11709   0.00000  Uiso   1.00
N260   N     0.06083   0.50106   0.13736   0.00000  Uiso   1.00
C261   C     0.05155   0.48255   0.03442   0.00000  Uiso   1.00
N262   N     0.01938   0.47577   0.04746   0.00000  Uiso   1.00
C263   C     0.28178   0.51745   0.46558   0.00000  Uiso   1.00
N264   N     0.31395   0.52423   0.45254   0.00000  Uiso   1.00
C265   C     0.04298   0.41827   0.28014   0.00000  Uiso   1.00
N266   N     0.05961   0.38592   0.29535   0.00000  Uiso   1.00
C267   C     0.29035   0.58173   0.21986   0.00000  Uiso   1.00
N268   N     0.27373   0.61408   0.20465   0.00000  Uiso   1.00
C269   C     0.29547   0.41180   0.24965   0.00000  Uiso   1.00
N270   N     0.28192   0.37515   0.24607   0.00000  Uiso   1.00
C271   C     0.03787   0.58820   0.25035   0.00000  Uiso   1.00
N272   N     0.05141   0.62485   0.25393   0.00000  Uiso   1.00
C273   C     0.11490   0.38357   0.19019   0.00000  Uiso   1.00
N274   N     0.09254   0.40282   0.16573   0.00000  Uiso   1.00
C275   C     0.21844   0.61643   0.30981   0.00000  Uiso   1.00
N276   N     0.24080   0.59718   0.33427   0.00000  Uiso   1.00
C277   C     0.21552   0.38129   0.31267   0.00000  Uiso   1.00
N278   N     0.23577   0.39963   0.33919   0.00000  Uiso   1.00
C279   C     0.11781   0.61871   0.18733   0.00000  Uiso   1.00
N280   N     0.09756   0.60037   0.16082   0.00000  Uiso   1.00
C281   C     0.42088   0.50044   0.25256   0.00000  Uiso   1.00
C282   C     0.57912   0.49956   0.24744   0.00000  Uiso   1.00
C283   C     0.42489   0.49080   0.01753   0.00000  Uiso   1.00
C284   C     0.57511   0.50920   0.48247   0.00000  Uiso   1.00
C285   C     0.35540   0.45916   0.26147   0.00000  Uiso   1.00
C286   C     0.64460   0.54084   0.23853   0.00000  Uiso   1.00
C287   C     0.64675   0.45734   0.25339   0.00000  Uiso   1.00
C288   C     0.35325   0.54266   0.24661   0.00000  Uiso   1.00
C289   C     0.62394   0.49884   0.24515   0.00000  Uiso   1.00
C290   C     0.37606   0.50116   0.25485   0.00000  Uiso   1.00
C291   C     0.47564   0.35865   0.22052   0.00000  Uiso   1.00
C292   C     0.52436   0.64135   0.27948   0.00000  Uiso   1.00
C293   C     0.52392   0.35754   0.27990   0.00000  Uiso   1.00
C294   C     0.47608   0.64246   0.22010   0.00000  Uiso   1.00
C295   C     0.49943   0.50008   0.16464   0.00000  Uiso   1.00
C296   C     0.50057   0.49992   0.33536   0.00000  Uiso   1.00
C297   C     0.53924   0.50224   0.40781   0.00000  Uiso   1.00
C298   C     0.46076   0.49777   0.09219   0.00000  Uiso   1.00
C299   C     0.50201   0.49973   0.38359   0.00000  Uiso   1.00
C300   C     0.49799   0.50027   0.11641   0.00000  Uiso   1.00
C301   C     0.46531   0.49662   0.40488   0.00000  Uiso   1.00
C302   C     0.53469   0.50338   0.09512   0.00000  Uiso   1.00
C303   C     0.46451   0.49614   0.45096   0.00000  Uiso   1.00
C304   C     0.53549   0.50386   0.04904   0.00000  Uiso   1.00
C305   C     0.50098   0.50002   0.47654   0.00000  Uiso   1.00
C306   C     0.49902   0.49998   0.02346   0.00000  Uiso   1.00
C307   C     0.53918   0.50388   0.45521   0.00000  Uiso   1.00
C308   C     0.46082   0.49612   0.04479   0.00000  Uiso   1.00
C309   C     0.42730   0.49144   0.47139   0.00000  Uiso   1.00
C310   C     0.57270   0.50856   0.02861   0.00000  Uiso   1.00
Cu311  Cu    0.50000   0.54689   0.25000   0.00000  Uiso   1.00
Cu312  Cu    0.50000   0.45311   0.25000   0.00000  Uiso   1.00
H313   H     0.43717   0.49416   0.38517   0.00000  Uiso   1.00
H314   H     0.56283   0.50584   0.11484   0.00000  Uiso   1.00
H315   H     0.39970   0.48761   0.45100   0.00000  Uiso   1.00
H316   H     0.60030   0.51239   0.04900   0.00000  Uiso   1.00
N317   N     0.50000   0.61736   0.25000   0.00000  Uiso   1.00
N318   N     0.50000   0.38264   0.25000   0.00000  Uiso   1.00
O319   O     0.43988   0.53958   0.25000   0.00000  Uiso   1.00
O320   O     0.56012   0.46042   0.25001   0.00000  Uiso   1.00
O321   O     0.56012   0.53958   0.25001   0.00000  Uiso   1.00
O322   O     0.43988   0.46042   0.25000   0.00000  Uiso   1.00
O323   O     0.49999   0.53960   0.18513   0.00000  Uiso   1.00
O324   O     0.50001   0.46040   0.31487   0.00000  Uiso   1.00
O325   O     0.50001   0.53960   0.31487   0.00000  Uiso   1.00
O326   O     0.49999   0.46040   0.18513   0.00000  Uiso   1.00
C327   C     0.57641   0.50054   0.38291   0.00000  Uiso   1.00
N328   N     0.60583   0.49894   0.36264   0.00000  Uiso   1.00
C329   C     0.42359   0.49946   0.11709   0.00000  Uiso   1.00
N330   N     0.39417   0.50106   0.13736   0.00000  Uiso   1.00
C331   C     0.38489   0.48255   0.03442   0.00000  Uiso   1.00
N332   N     0.35271   0.47577   0.04746   0.00000  Uiso   1.00
C333   C     0.61511   0.51745   0.46558   0.00000  Uiso   1.00
N334   N     0.64729   0.52423   0.45254   0.00000  Uiso   1.00
C335   C     0.37632   0.41827   0.28014   0.00000  Uiso   1.00
N336   N     0.39294   0.38592   0.29535   0.00000  Uiso   1.00
C337   C     0.62368   0.58173   0.21986   0.00000  Uiso   1.00
N338   N     0.60706   0.61408   0.20465   0.00000  Uiso   1.00
C339   C     0.62880   0.41180   0.24965   0.00000  Uiso   1.00
N340   N     0.61525   0.37515   0.24607   0.00000  Uiso   1.00
C341   C     0.37120   0.58820   0.25035   0.00000  Uiso   1.00
N342   N     0.38475   0.62485   0.25393   0.00000  Uiso   1.00
C343   C     0.44823   0.38357   0.19019   0.00000  Uiso   1.00
N344   N     0.42587   0.40282   0.16573   0.00000  Uiso   1.00
C345   C     0.55177   0.61643   0.30981   0.00000  Uiso   1.00
N346   N     0.57413   0.59718   0.33427   0.00000  Uiso   1.00
C347   C     0.54886   0.38129   0.31267   0.00000  Uiso   1.00
N348   N     0.56910   0.39963   0.33919   0.00000  Uiso   1.00
C349   C     0.45114   0.61871   0.18733   0.00000  Uiso   1.00
N350   N     0.43090   0.60037   0.16082   0.00000  Uiso   1.00
C351   C     0.75421   0.50044   0.25256   0.00000  Uiso   1.00
C352   C     0.91245   0.49956   0.24744   0.00000  Uiso   1.00
C353   C     0.75822   0.49080   0.01753   0.00000  Uiso   1.00
C354   C     0.90845   0.50920   0.48247   0.00000  Uiso   1.00
C355   C     0.68874   0.45916   0.26147   0.00000  Uiso   1.00
C356   C     0.97793   0.54084   0.23853   0.00000  Uiso   1.00
C357   C     0.98009   0.45734   0.25339   0.00000  Uiso   1.00
C358   C     0.68658   0.54266   0.24661   0.00000  Uiso   1.00
C359   C     0.95727   0.49884   0.24515   0.00000  Uiso   1.00
C360   C     0.70939   0.50116   0.25485   0.00000  Uiso   1.00
C361   C     0.80897   0.35865   0.22052   0.00000  Uiso   1.00
C362   C     0.85769   0.64135   0.27948   0.00000  Uiso   1.00
C363   C     0.85726   0.35754   0.27990   0.00000  Uiso   1.00
C364   C     0.80941   0.64246   0.22010   0.00000  Uiso   1.00
C365   C     0.83276   0.50008   0.16464   0.00000  Uiso   1.00
C366   C     0.83390   0.49992   0.33536   0.00000  Uiso   1.00
C367   C     0.87257   0.50224   0.40781   0.00000  Uiso   1.00
C368   C     0.79410   0.49777   0.09219   0.00000  Uiso   1.00
C369   C     0.83534   0.49973   0.38359   0.00000  Uiso   1.00
C370   C     0.83133   0.50027   0.11641   0.00000  Uiso   1.00
C371   C     0.79864   0.49662   0.40488   0.00000  Uiso   1.00
C372   C     0.86803   0.50338   0.09512   0.00000  Uiso   1.00
C373   C     0.79784   0.49614   0.45096   0.00000  Uiso   1.00
C374   C     0.86882   0.50386   0.04904   0.00000  Uiso   1.00
C375   C     0.83431   0.50002   0.47654   0.00000  Uiso   1.00
C376   C     0.83235   0.49998   0.02346   0.00000  Uiso   1.00
C377   C     0.87252   0.50388   0.45521   0.00000  Uiso   1.00
C378   C     0.79415   0.49612   0.04479   0.00000  Uiso   1.00
C379   C     0.76063   0.49144   0.47139   0.00000  Uiso   1.00
C380   C     0.90604   0.50856   0.02861   0.00000  Uiso   1.00
Cu381  Cu    0.83333   0.54689   0.25000   0.00000  Uiso   1.00
Cu382  Cu    0.83333   0.45311   0.25000   0.00000  Uiso   1.00
H383   H     0.77050   0.49416   0.38517   0.00000  Uiso   1.00
H384   H     0.89617   0.50584   0.11484   0.00000  Uiso   1.00
H385   H     0.73303   0.48761   0.45100   0.00000  Uiso   1.00
H386   H     0.93363   0.51239   0.04900   0.00000  Uiso   1.00
N387   N     0.83333   0.61736   0.25000   0.00000  Uiso   1.00
N388   N     0.83333   0.38264   0.25000   0.00000  Uiso   1.00
O389   O     0.77321   0.53958   0.25000   0.00000  Uiso   1.00
O390   O     0.89345   0.46042   0.25001   0.00000  Uiso   1.00
O391   O     0.89345   0.53958   0.25001   0.00000  Uiso   1.00
O392   O     0.77321   0.46042   0.25000   0.00000  Uiso   1.00
O393   O     0.83332   0.53960   0.18513   0.00000  Uiso   1.00
O394   O     0.83334   0.46040   0.31487   0.00000  Uiso   1.00
O395   O     0.83334   0.53960   0.31487   0.00000  Uiso   1.00
O396   O     0.83332   0.46040   0.18513   0.00000  Uiso   1.00
C397   C     0.90975   0.50054   0.38291   0.00000  Uiso   1.00
N398   N     0.93917   0.49894   0.36264   0.00000  Uiso   1.00
C399   C     0.75692   0.49946   0.11709   0.00000  Uiso   1.00
N400   N     0.72750   0.50106   0.13736   0.00000  Uiso   1.00
C401   C     0.71822   0.48255   0.03442   0.00000  Uiso   1.00
N402   N     0.68605   0.47577   0.04746   0.00000  Uiso   1.00
C403   C     0.94845   0.51745   0.46558   0.00000  Uiso   1.00
N404   N     0.98062   0.52423   0.45254   0.00000  Uiso   1.00
C405   C     0.70965   0.41827   0.28014   0.00000  Uiso   1.00
N406   N     0.72627   0.38592   0.29535   0.00000  Uiso   1.00
C407   C     0.95702   0.58173   0.21986   0.00000  Uiso   1.00
N408   N     0.94039   0.61408   0.20465   0.00000  Uiso   1.00
C409   C     0.96213   0.41180   0.24965   0.00000  Uiso   1.00
N410   N     0.94859   0.37515   0.24607   0.00000  Uiso   1.00
C411   C     0.70453   0.58820   0.25035   0.00000  Uiso   1.00
N412   N     0.71808   0.62485   0.25393   0.00000  Uiso   1.00
C413   C     0.78156   0.38357   0.19019   0.00000  Uiso   1.00
N414   N     0.75920   0.40282   0.16573   0.00000  Uiso   1.00
C415   C     0.88510   0.61643   0.30981   0.00000  Uiso   1.00
N416   N     0.90746   0.59718   0.33427   0.00000  Uiso   1.00
C417   C     0.88219   0.38129   0.31267   0.00000  Uiso   1.00
N418   N     0.90244   0.39963   0.33919   0.00000  Uiso   1.00
C419   C     0.78448   0.61871   0.18733   0.00000  Uiso   1.00
N420   N     0.76423   0.60037   0.16082   0.00000  Uiso   1.00
C421   C     0.08755   0.83377   0.25256   0.00000  Uiso   1.00
C422   C     0.24579   0.83290   0.24744   0.00000  Uiso   1.00
C423   C     0.09155   0.82414   0.01753   0.00000  Uiso   1.00
C424   C     0.24178   0.84253   0.48247   0.00000  Uiso   1.00
C425   C     0.02207   0.79250   0.26147   0.00000  Uiso   1.00
C426   C     0.31126   0.87417   0.23853   0.00000  Uiso   1.00
C427   C     0.31342   0.79067   0.25339   0.00000  Uiso   1.00
C428   C     0.01991   0.87599   0.24661   0.00000  Uiso   1.00
C429   C     0.29061   0.83217   0.24515   0.00000  Uiso   1.00
C430   C     0.04272   0.83450   0.25485   0.00000  Uiso   1.00
C431   C     0.14231   0.69198   0.22052   0.00000  Uiso   1.00
C432   C     0.19103   0.97468   0.27948   0.00000  Uiso   1.00
C433   C     0.19059   0.69087   0.27990   0.00000  Uiso   1.00
C434   C     0.14274   0.97580   0.22010   0.00000  Uiso   1.00
C435   C     0.16610   0.83342   0.16464   0.00000  Uiso   1.00
C436   C     0.16724   0.83325   0.33536   0.00000  Uiso   1.00
C437   C     0.20590   0.83557   0.40781   0.00000  Uiso   1.00
C438   C     0.12743   0.83110   0.09219   0.00000  Uiso   1.00
C439   C     0.16867   0.83306   0.38359   0.00000  Uiso   1.00
C440   C     0.16466   0.83361   0.11641   0.00000  Uiso   1.00
C441   C     0.13197   0.82995   0.40488   0.00000  Uiso   1.00
C442   C     0.20136   0.83671   0.09512   0.00000  Uiso   1.00
C443   C     0.13118   0.82948   0.45096   0.00000  Uiso   1.00
C444   C     0.20215   0.83719   0.04904   0.00000  Uiso   1.00
C445   C     0.16765   0.83336   0.47654   0.00000  Uiso   1.00
C446   C     0.16569   0.83331   0.02346   0.00000  Uiso   1.00
C447   C     0.20585   0.83722   0.45521   0.00000  Uiso   1.00
C448   C     0.12748   0.82945   0.04479   0.00000  Uiso   1.00
C449   C     0.09396   0.82478   0.47139   0.00000  Uiso   1.00
C450   C     0.23937   0.84189   0.02861   0.00000  Uiso   1.00
Cu451  Cu    0.16667   0.88022   0.25000   0.00000  Uiso   1.00
Cu452  Cu    0.16667   0.78645   0.25000   0.00000  Uiso   1.00
H453   H     0.10383   0.82749   0.38517   0.00000  Uiso   1.00
H454   H     0.22950   0.83918   0.11484   0.00000  Uiso   1.00
H455   H     0.06636   0.82094   0.45100   0.00000  Uiso   1.00
H456   H     0.26697   0.84573   0.04900   0.00000  Uiso   1.00
N457   N     0.16667   0.95069   0.25000   0.00000  Uiso   1.00
N458   N     0.16667   0.71598   0.25000   0.00000  Uiso   1.00
O459   O     0.10655   0.87291   0.25000   0.00000  Uiso   1.00
O460   O     0.22679   0.79375   0.25001   0.00000  Uiso   1.00
O461   O     0.22679   0.87291   0.25001   0.00000  Uiso   1.00
O462   O     0.10655   0.79375   0.25000   0.00000  Uiso   1.00
O463   O     0.16666   0.87293   0.18513   0.00000  Uiso   1.00
O464   O     0.16668   0.79373   0.31487   0.00000  Uiso   1.00
O465   O     0.16668   0.87293   0.31487   0.00000  Uiso   1.00
O466   O     0.16666   0.79373   0.18513   0.00000  Uiso   1.00
C467   C     0.24308   0.83388   0.38291   0.00000  Uiso   1.00
N468   N     0.27250   0.83227   0.36264   0.00000  Uiso   1.00
C469   C     0.09025   0.83279   0.11709   0.00000  Uiso   1.00
N470   N     0.06083   0.83440   0.13736   0.00000  Uiso   1.00
C471   C     0.05155   0.81589   0.03442   0.00000  Uiso   1.00
N472   N     0.01938   0.80910   0.04746   0.00000  Uiso   1.00
C473   C     0.28178   0.85078   0.46558   0.00000  Uiso   1.00
N474   N     0.31395   0.85757   0.45254   0.00000  Uiso   1.00
C475   C     0.04298   0.75160   0.28014   0.00000  Uiso   1.00
N476   N     0.05961   0.71925   0.29535   0.00000  Uiso   1.00
C477   C     0.29035   0.91507   0.21986   0.00000  Uiso   1.00
N478   N     0.27373   0.94742   0.20465   0.00000  Uiso   1.00
C479   C     0.29547   0.74513   0.24965   0.00000  Uiso   1.00
N480   N     0.28192   0.70849   0.24607   0.00000  Uiso   1.00
C481   C     0.03787   0.92153   0.25035   0.00000  Uiso   1.00
N482   N     0.05141   0.95818   0.25393   0.00000  Uiso   1.00
C483   C     0.11490   0.71690   0.19019   0.00000  Uiso   1.00
N484   N     0.09254   0.73615   0.16573   0.00000  Uiso   1.00
C485   C     0.21844   0.94977   0.30981   0.00000  Uiso   1.00
N486   N     0.24080   0.93052   0.33427   0.00000  Uiso   1.00
C487   C     0.21552   0.71463   0.31267   0.00000  Uiso   1.00
N488   N     0.23577   0.73296   0.33919   0.00000  Uiso   1.00
C489   C     0.11781   0.95204   0.18733   0.00000  Uiso   1.00
N490   N     0.09756   0.93371   0.16082   0.00000  Uiso   1.00
C491   C     0.42088   0.83377   0.25256   0.00000  Uiso   1.00
C492   C     0.57912   0.83290   0.24744   0.00000  Uiso   1.00
C493   C     0.42489   0.82414   0.01753   0.00000  Uiso   1.00
C494   C     0.57511   0.84253   0.48247   0.00000  Uiso   1.00
C495   C     0.35540   0.79250   0.26147   0.00000  Uiso   1.00
C496   C     0.64460   0.87417   0.23853   0.00000  Uiso   1.00
C497   C     0.64675   0.79067   0.25339   0.00000  Uiso   1.00
C498   C     0.35325   0.87599   0.24661   0.00000  Uiso   1.00
C499   C     0.62394   0.83217   0.24515   0.00000  Uiso   1.00
C500   C     0.37606   0.83450   0.25485   0.00000  Uiso   1.00
C501   C     0.47564   0.69198   0.22052   0.00000  Uiso   1.00
C502   C     0.52436   0.97468   0.27948   0.00000  Uiso   1.00
C503   C     0.52392   0.69087   0.27990   0.00000  Uiso   1.00
C504   C     0.47608   0.97580   0.22010   0.00000  Uiso   1.00
C505   C     0.49943   0.83342   0.16464   0.00000  Uiso   1.00
C506   C     0.50057   0.83325   0.33536   0.00000  Uiso   1.00
C507   C     0.53924   0.83557   0.40781   0.00000  Uiso   1.00
C508   C     0.46076   0.83110   0.09219   0.00000  Uiso   1.00
C509   C     0.50201   0.83306   0.38359   0.00000  Uiso   1.00
C510   C     0.49799   0.83361   0.11641   0.00000  Uiso   1.00
C511   C     0.46531   0.82995   0.40488   0.00000  Uiso   1.00
C512   C     0.53469   0.83671   0.09512   0.00000  Uiso   1.00
C513   C     0.46451   0.82948   0.45096   0.00000  Uiso   1.00
C514   C     0.53549   0.83719   0.04904   0.00000  Uiso   1.00
C515   C     0.50098   0.83336   0.47654   0.00000  Uiso   1.00
C516   C     0.49902   0.83331   0.02346   0.00000  Uiso   1.00
C517   C     0.53918   0.83722   0.45521   0.00000  Uiso   1.00
C518   C     0.46082   0.82945   0.04479   0.00000  Uiso   1.00
C519   C     0.42730   0.82478   0.47139   0.00000  Uiso   1.00
C520   C     0.57270   0.84189   0.02861   0.00000  Uiso   1.00
Cu521  Cu    0.50000   0.88022   0.25000   0.00000  Uiso   1.00
Cu522  Cu    0.50000   0.78645   0.25000   0.00000  Uiso   1.00
H523   H     0.43717   0.82749   0.38517   0.00000  Uiso   1.00
H524   H     0.56283   0.83918   0.11484   0.00000  Uiso   1.00
H525   H     0.39970   0.82094   0.45100   0.00000  Uiso   1.00
H526   H     0.60030   0.84573   0.04900   0.00000  Uiso   1.00
N527   N     0.50000   0.95069   0.25000   0.00000  Uiso   1.00
N528   N     0.50000   0.71598   0.25000   0.00000  Uiso   1.00
O529   O     0.43988   0.87291   0.25000   0.00000  Uiso   1.00
O530   O     0.56012   0.79375   0.25001   0.00000  Uiso   1.00
O531   O     0.56012   0.87291   0.25001   0.00000  Uiso   1.00
O532   O     0.43988   0.79375   0.25000   0.00000  Uiso   1.00
O533   O     0.49999   0.87293   0.18513   0.00000  Uiso   1.00
O534   O     0.50001   0.79373   0.31487   0.00000  Uiso   1.00
O535   O     0.50001   0.87293   0.31487   0.00000  Uiso   1.00
O536   O     0.49999   0.79373   0.18513   0.00000  Uiso   1.00
C537   C     0.57641   0.83388   0.38291   0.00000  Uiso   1.00
N538   N     0.60583   0.83227   0.36264   0.00000  Uiso   1.00
C539   C     0.42359   0.83279   0.11709   0.00000  Uiso   1.00
N540   N     0.39417   0.83440   0.13736   0.00000  Uiso   1.00
C541   C     0.38489   0.81589   0.03442   0.00000  Uiso   1.00
N542   N     0.35271   0.80910   0.04746   0.00000  Uiso   1.00
C543   C     0.61511   0.85078   0.46558   0.00000  Uiso   1.00
N544   N     0.64729   0.85757   0.45254   0.00000  Uiso   1.00
C545   C     0.37632   0.75160   0.28014   0.00000  Uiso   1.00
N546   N     0.39294   0.71925   0.29535   0.00000  Uiso   1.00
C547   C     0.62368   0.91507   0.21986   0.00000  Uiso   1.00
N548   N     0.60706   0.94742   0.20465   0.00000  Uiso   1.00
C549   C     0.62880   0.74513   0.24965   0.00000  Uiso   1.00
N550   N     0.61525   0.70849   0.24607   0.00000  Uiso   1.00
C551   C     0.37120   0.92153   0.25035   0.00000  Uiso   1.00
N552   N     0.38475   0.95818   0.25393   0.00000  Uiso   1.00
C553   C     0.44823   0.71690   0.19019   0.00000  Uiso   1.00
N554   N     0.42587   0.73615   0.16573   0.00000  Uiso   1.00
C555   C     0.55177   0.94977   0.30981   0.00000  Uiso   1.00
N556   N     0.57413   0.93052   0.33427   0.00000  Uiso   1.00
C557   C     0.54886   0.71463   0.31267   0.00000  Uiso   1.00
N558   N     0.56910   0.73296   0.33919   0.00000  Uiso   1.00
C559   C     0.45114   0.95204   0.18733   0.00000  Uiso   1.00
N560   N     0.43090   0.93371   0.16082   0.00000  Uiso   1.00
C561   C     0.75421   0.83377   0.25256   0.00000  Uiso   1.00
C562   C     0.91245   0.83290   0.24744   0.00000  Uiso   1.00
C563   C     0.75822   0.82414   0.01753   0.00000  Uiso   1.00
C564   C     0.90845   0.84253   0.48247   0.00000  Uiso   1.00
C565   C     0.68874   0.79250   0.26147   0.00000  Uiso   1.00
C566   C     0.97793   0.87417   0.23853   0.00000  Uiso   1.00
C567   C     0.98009   0.79067   0.25339   0.00000  Uiso   1.00
C568   C     0.68658   0.87599   0.24661   0.00000  Uiso   1.00
C569   C     0.95727   0.83217   0.24515   0.00000  Uiso   1.00
C570   C     0.70939   0.83450   0.25485   0.00000  Uiso   1.00
C571   C     0.80897   0.69198   0.22052   0.00000  Uiso   1.00
C572   C     0.85769   0.97468   0.27948   0.00000  Uiso   1.00
C573   C     0.85726   0.69087   0.27990   0.00000  Uiso   1.00
C574   C     0.80941   0.97580   0.22010   0.00000  Uiso   1.00
C575   C     0.83276   0.83342   0.16464   0.00000  Uiso   1.00
C576   C     0.83390   0.83325   0.33536   0.00000  Uiso   1.00
C577   C     0.87257   0.83557   0.40781   0.00000  Uiso   1.00
C578   C     0.79410   0.83110   0.09219   0.00000  Uiso   1.00
C579   C     0.83534   0.83306   0.38359   0.00000  Uiso   1.00
C580   C     0.83133   0.83361   0.11641   0.00000  Uiso   1.00
C581   C     0.79864   0.82995   0.40488   0.00000  Uiso   1.00
C582   C     0.86803   0.83671   0.09512   0.00000  Uiso   1.00
C583   C     0.79784   0.82948   0.45096   0.00000  Uiso   1.00
C584   C     0.86882   0.83719   0.04904   0.00000  Uiso   1.00
C585   C     0.83431   0.83336   0.47654   0.00000  Uiso   1.00
C586   C     0.83235   0.83331   0.02346   0.00000  Uiso   1.00
C587   C     0.87252   0.83722   0.45521   0.00000  Uiso   1.00
C588   C     0.79415   0.82945   0.04479   0.00000  Uiso   1.00
C589   C     0.76063   0.82478   0.47139   0.00000  Uiso   1.00
C590   C     0.90604   0.84189   0.02861   0.00000  Uiso   1.00
Cu591  Cu    0.83333   0.88022   0.25000   0.00000  Uiso   1.00
Cu592  Cu    0.83333   0.78645   0.25000   0.00000  Uiso   1.00
H593   H     0.77050   0.82749   0.38517   0.00000  Uiso   1.00
H594   H     0.89617   0.83918   0.11484   0.00000  Uiso   1.00
H595   H     0.73303   0.82094   0.45100   0.00000  Uiso   1.00
H596   H     0.93363   0.84573   0.04900   0.00000  Uiso   1.00
N597   N     0.83333   0.95069   0.25000   0.00000  Uiso   1.00
N598   N     0.83333   0.71598   0.25000   0.00000  Uiso   1.00
O599   O     0.77321   0.87291   0.25000   0.00000  Uiso   1.00
O600   O     0.89345   0.79375   0.25001   0.00000  Uiso   1.00
O601   O     0.89345   0.87291   0.25001   0.00000  Uiso   1.00
O602   O     0.77321   0.79375   0.25000   0.00000  Uiso   1.00
O603   O     0.83332   0.87293   0.18513   0.00000  Uiso   1.00
O604   O     0.83334   0.79373   0.31487   0.00000  Uiso   1.00
O605   O     0.83334   0.87293   0.31487   0.00000  Uiso   1.00
O606   O     0.83332   0.79373   0.18513   0.00000  Uiso   1.00
C607   C     0.90975   0.83388   0.38291   0.00000  Uiso   1.00
N608   N     0.93917   0.83227   0.36264   0.00000  Uiso   1.00
C609   C     0.75692   0.83279   0.11709   0.00000  Uiso   1.00
N610   N     0.72750   0.83440   0.13736   0.00000  Uiso   1.00
C611   C     0.71822   0.81589   0.03442   0.00000  Uiso   1.00
N612   N     0.68605   0.80910   0.04746   0.00000  Uiso   1.00
C613   C     0.94845   0.85078   0.46558   0.00000  Uiso   1.00
N614   N     0.98062   0.85757   0.45254   0.00000  Uiso   1.00
C615   C     0.70965   0.75160   0.28014   0.00000  Uiso   1.00
N616   N     0.72627   0.71925   0.29535   0.00000  Uiso   1.00
C617   C     0.95702   0.91507   0.21986   0.00000  Uiso   1.00
N618   N     0.94039   0.94742   0.20465   0.00000  Uiso   1.00
C619   C     0.96213   0.74513   0.24965   0.00000  Uiso   1.00
N620   N     0.94859   0.70849   0.24607   0.00000  Uiso   1.00
C621   C     0.70453   0.92153   0.25035   0.00000  Uiso   1.00
N622   N     0.71808   0.95818   0.25393   0.00000  Uiso   1.00
C623   C     0.78156   0.71690   0.19019   0.00000  Uiso   1.00
N624   N     0.75920   0.73615   0.16573   0.00000  Uiso   1.00
C625   C     0.88510   0.94977   0.30981   0.00000  Uiso   1.00
N626   N     0.90746   0.93052   0.33427   0.00000  Uiso   1.00
C627   C     0.88219   0.71463   0.31267   0.00000  Uiso   1.00
N628   N     0.90244   0.73296   0.33919   0.00000  Uiso   1.00
C629   C     0.78448   0.95204   0.18733   0.00000  Uiso   1.00
N630   N     0.76423   0.93371   0.16082   0.00000  Uiso   1.00
C631   C     0.08755   0.16710   0.75256   0.00000  Uiso   1.00
C632   C     0.24579   0.16623   0.74744   0.00000  Uiso   1.00
C633   C     0.09155   0.15747   0.51753   0.00000  Uiso   1.00
C634   C     0.24178   0.17586   0.98247   0.00000  Uiso   1.00
C635   C     0.02207   0.12583   0.76147   0.00000  Uiso   1.00
C636   C     0.31126   0.20750   0.73853   0.00000  Uiso   1.00
C637   C     0.31342   0.12401   0.75339   0.00000  Uiso   1.00
C638   C     0.01991   0.20933   0.74661   0.00000  Uiso   1.00
C639   C     0.29061   0.16550   0.74515   0.00000  Uiso   1.00
C640   C     0.04272   0.16783   0.75485   0.00000  Uiso   1.00
C641   C     0.14231   0.02532   0.72052   0.00000  Uiso   1.00
C642   C     0.19103   0.30802   0.77948   0.00000  Uiso   1.00
C643   C     0.19059   0.02420   0.77990   0.00000  Uiso   1.00
C644   C     0.14274   0.30913   0.72010   0.00000  Uiso   1.00
C645   C     0.16610   0.16675   0.66464   0.00000  Uiso   1.00
C646   C     0.16724   0.16658   0.83536   0.00000  Uiso   1.00
C647   C     0.20590   0.16890   0.90781   0.00000  Uiso   1.00
C648   C     0.12743   0.16443   0.59219   0.00000  Uiso   1.00
C649   C     0.16867   0.16639   0.88359   0.00000  Uiso   1.00
C650   C     0.16466   0.16694   0.61641   0.00000  Uiso   1.00
C651   C     0.13197   0.16329   0.90488   0.00000  Uiso   1.00
C652   C     0.20136   0.17005   0.59512   0.00000  Uiso   1.00
C653   C     0.13118   0.16281   0.95096   0.00000  Uiso   1.00
C654   C     0.20215   0.17052   0.54904   0.00000  Uiso   1.00
C655   C     0.16765   0.16669   0.97654   0.00000  Uiso   1.00
C656   C     0.16569   0.16664   0.52346   0.00000  Uiso   1.00
C657   C     0.20585   0.17055   0.95521   0.00000  Uiso   1.00
C658   C     0.12748   0.16278   0.54479   0.00000  Uiso   1.00
C659   C     0.09396   0.15811   0.97139   0.00000  Uiso   1.00
C660   C     0.23937   0.17522   0.52861   0.00000  Uiso   1.00
Cu661  Cu    0.16667   0.21355   0.75000   0.00000  Uiso   1.00
Cu662  Cu    0.16667   0.11978   0.75000   0.00000  Uiso   1.00
H663   H     0.10383   0.16082   0.88517   0.00000  Uiso   1.00
H664   H     0.22950   0.17251   0.61484   0.00000  Uiso   1.00
H665   H     0.06636   0.15427   0.95100   0.00000  Uiso   1.00
H666   H     0.26697   0.17906   0.54900   0.00000  Uiso   1.00
N667   N     0.16667   0.28402   0.75000   0.00000  Uiso   1.00
N668   N     0.16667   0.04931   0.75000   0.00000  Uiso   1.00
O669   O     0.10655   0.20625   0.75000   0.00000  Uiso   1.00
O670   O     0.22679   0.12709   0.75001   0.00000  Uiso   1.00
O671   O     0.22679   0.20625   0.75001   0.00000  Uiso   1.00
O672   O     0.10655   0.12709   0.75000   0.00000  Uiso   1.00
O673   O     0.16666   0.20627   0.68513   0.00000  Uiso   1.00
O674   O     0.16668   0.12707   0.81487   0.00000  Uiso   1.00
O675   O     0.16668   0.20627   0.81487   0.00000  Uiso   1.00
O676   O     0.16666   0.12707   0.68513   0.00000  Uiso   1.00
C677   C     0.24308   0.16721   0.88291   0.00000  Uiso   1.00
N678   N     0.27250   0.16560   0.86264   0.00000  Uiso   1.00
C679   C     0.09025   0.16612   0.61709   0.00000  Uiso   1.00
N680   N     0.06083   0.16773   0.63736   0.00000  Uiso   1.00
C681   C     0.05155   0.14922   0.53442   0.00000  Uiso   1.00
N682   N     0.01938   0.14243   0.54746   0.00000  Uiso   1.00
C683   C     0.28178   0.18411   0.96558   0.00000  Uiso   1.00
N684   N     0.31395   0.19090   0.95254   0.00000  Uiso   1.00
C685   C     0.04298   0.08494   0.78014   0.00000  Uiso   1.00
N686   N     0.05961   0.05259   0.79535   0.00000  Uiso   1.00
C687   C     0.29035   0.24840   0.71986   0.00000  Uiso   1.00
N688   N     0.27373   0.28075   0.70465   0.00000  Uiso   1.00
C689   C     0.29547   0.07847   0.74965   0.00000  Uiso   1.00
N690   N     0.28192   0.04182   0.74607   0.00000  Uiso   1.00
C691   C     0.03787   0.25487   0.75035   0.00000  Uiso   1.00
N692   N     0.05141   0.29151   0.75393   0.00000  Uiso   1.00
C693   C     0.11490   0.05023   0.69019   0.00000  Uiso   1.00
N694   N     0.09254   0.06948   0.66573   0.00000  Uiso   1.00
C695   C     0.21844   0.28310   0.80981   0.00000  Uiso   1.00
N696   N     0.24080   0.26385   0.83427   0.00000  Uiso   1.00
C697   C     0.21552   0.04796   0.81267   0.00000  Uiso   1.00
N698   N     0.23577   0.06629   0.83919   0.00000  Uiso   1.00
C699   C     0.11781   0.28537   0.68733   0.00000  Uiso   1.00
N700   N     0.09756   0.26704   0.66082   0.00000  Uiso   1.00
C701   C     0.42088   0.16710   0.75256   0.00000  Uiso   1.00
C702   C     0.57912   0.16623   0.74744   0.00000  Uiso   1.00
C703   C     0.42489   0.15747   0.51753   0.00000  Uiso   1.00
C704   C     0.57511   0.17586   0.98247   0.00000  Uiso   1.00
C705   C     0.35540   0.12583   0.76147   0.00000  Uiso   1.00
C706   C     0.64460   0.20750   0.73853   0.00000  Uiso   1.00
C707   C     0.64675   0.12401   0.75339   0.00000  Uiso   1.00
C708   C     0.35325   0.20933   0.74661   0.00000  Uiso   1.00
C709   C     0.62394   0.16550   0.74515   0.00000  Uiso   1.00
C710   C     0.37606   0.16783   0.75485   0.00000  Uiso   1.00
C711   C     0.47564   0.02532   0.72052   0.00000  Uiso   1.00
C712   C     0.52436   0.30802   0.77948   0.00000  Uiso   1.00
C713   C     0.52392   0.02420   0.77990   0.00000  Uiso   1.00
C714   C     0.47608   0.30913   0.72010   0.00000  Uiso   1.00
C715   C     0.49943   0.16675   0.66464   0.00000  Uiso   1.00
C716   C     0.50057   0.16658   0.83536   0.00000  Uiso   1.00
C717   C     0.53924   0.16890   0.90781   0.00000  Uiso   1.00
C718   C     0.46076   0.16443   0.59219   0.00000  Uiso   1.00
C719   C     0.50201   0.16639   0.88359   0.00000  Uiso   1.00
C720   C     0.49799   0.16694   0.61641   0.00000  Uiso   1.00
C721   C     0.46531   0.16329   0.90488   0.00000  Uiso   1.00
C722   C     0.53469   0.17005   0.59512   0.00000  Uiso   1.00
C723   C     0.46451   0.16281   0.95096   0.00000  Uiso   1.00
C724   C     0.53549   0.17052   0.54904   0.00000  Uiso   1.00
C725   C     0.50098   0.16669   0.97654   0.00000  Uiso   1.00
C726   C     0.49902   0.16664   0.52346   0.00000  Uiso   1.00
C727   C     0.53918   0.17055   0.95521   0.00000  Uiso   1.00
C728   C     0.46082   0.16278   0.54479   0.00000  Uiso   1.00
C729   C     0.42730   0.15811   0.97139   0.00000  Uiso   1.00
C730   C     0.57270   0.17522   0.52861   0.00000  Uiso   1.00
Cu731  Cu    0.50000   0.21355   0.75000   0.00000  Uiso   1.00
Cu732  Cu    0.50000   0.11978   0.75000   0.00000  Uiso   1.00
H733   H     0.43717   0.16082   0.88517   0.00000  Uiso   1.00
H734   H     0.56283   0.17251   0.61484   0.00000  Uiso   1.00
H735   H     0.39970   0.15427   0.95100   0.00000  Uiso   1.00
H736   H     0.60030   0.17906   0.54900   0.00000  Uiso   1.00
N737   N     0.50000   0.28402   0.75000   0.00000  Uiso   1.00
N738   N     0.50000   0.04931   0.75000   0.00000  Uiso   1.00
O739   O     0.43988   0.20625   0.75000   0.00000  Uiso   1.00
O740   O     0.56012   0.12709   0.75001   0.00000  Uiso   1.00
O741   O     0.56012   0.20625   0.75001   0.00000  Uiso   1.00
O742   O     0.43988   0.12709   0.75000   0.00000  Uiso   1.00
O743   O     0.49999   0.20627   0.68513   0.00000  Uiso   1.00
O744   O     0.50001   0.12707   0.81487   0.00000  Uiso   1.00
O745   O     0.50001   0.20627   0.81487   0.00000  Uiso   1.00
O746   O     0.49999   0.12707   0.68513   0.00000  Uiso   1.00
C747   C     0.57641   0.16721   0.88291   0.00000  Uiso   1.00
N748   N     0.60583   0.16560   0.86264   0.00000  Uiso   1.00
C749   C     0.42359   0.16612   0.61709   0.00000  Uiso   1.00
N750   N     0.39417   0.16773   0.63736   0.00000  Uiso   1.00
C751   C     0.38489   0.14922   0.53442   0.00000  Uiso   1.00
N752   N     0.35271   0.14243   0.54746   0.00000  Uiso   1.00
C753   C     0.61511   0.18411   0.96558   0.00000  Uiso   1.00
N754   N     0.64729   0.19090   0.95254   0.00000  Uiso   1.00
C755   C     0.37632   0.08494   0.78014   0.00000  Uiso   1.00
N756   N     0.39294   0.05259   0.79535   0.00000  Uiso   1.00
C757   C     0.62368   0.24840   0.71986   0.00000  Uiso   1.00
N758   N     0.60706   0.28075   0.70465   0.00000  Uiso   1.00
C759   C     0.62880   0.07847   0.74965   0.00000  Uiso   1.00
N760   N     0.61525   0.04182   0.74607   0.00000  Uiso   1.00
C761   C     0.37120   0.25487   0.75035   0.00000  Uiso   1.00
N762   N     0.38475   0.29151   0.75393   0.00000  Uiso   1.00
C763   C     0.44823   0.05023   0.69019   0.00000  Uiso   1.00
N764   N     0.42587   0.06948   0.66573   0.00000  Uiso   1.00
C765   C     0.55177   0.28310   0.80981   0.00000  Uiso   1.00
N766   N     0.57413   0.26385   0.83427   0.00000  Uiso   1.00
C767   C     0.54886   0.04796   0.81267   0.00000  Uiso   1.00
N768   N     0.56910   0.06629   0.83919   0.00000  Uiso   1.00
C769   C     0.45114   0.28537   0.68733   0.00000  Uiso   1.00
N770   N     0.43090   0.26704   0.66082   0.00000  Uiso   1.00
C771   C     0.75421   0.16710   0.75256   0.00000  Uiso   1.00
C772   C     0.91245   0.16623   0.74744   0.00000  Uiso   1.00
C773   C     0.75822   0.15747   0.51753   0.00000  Uiso   1.00
C774   C     0.90845   0.17586   0.98247   0.00000  Uiso   1.00
C775   C     0.68874   0.12583   0.76147   0.00000  Uiso   1.00
C776   C     0.97793   0.20750   0.73853   0.00000  Uiso   1.00
C777   C     0.98009   0.12401   0.75339   0.00000  Uiso   1.00
C778   C     0.68658   0.20933   0.74661   0.00000  Uiso   1.00
C779   C     0.95727   0.16550   0.74515   0.00000  Uiso   1.00
C780   C     0.70939   0.16783   0.75485   0.00000  Uiso   1.00
C781   C     0.80897   0.02532   0.72052   0.00000  Uiso   1.00
C782   C     0.85769   0.30802   0.77948   0.00000  Uiso   1.00
C783   C     0.85726   0.02420   0.77990   0.00000  Uiso   1.00
C784   C     0.80941   0.30913   0.72010   0.00000  Uiso   1.00
C785   C     0.83276   0.16675   0.66464   0.00000  Uiso   1.00
C786   C     0.83390   0.16658   0.83536   0.00000  Uiso   1.00
C787   C     0.87257   0.16890   0.90781   0.00000  Uiso   1.00
C788   C     0.79410   0.16443   0.59219   0.00000  Uiso   1.00
C789   C     0.83534   0.16639   0.88359   0.00000  Uiso   1.00
C790   C     0.83133   0.16694   0.61641   0.00000  Uiso   1.00
C791   C     0.79864   0.16329   0.90488   0.00000  Uiso   1.00
C792   C     0.86803   0.17005   0.59512   0.00000  Uiso   1.00
C793   C     0.79784   0.16281   0.95096   0.00000  Uiso   1.00
C794   C     0.86882   0.17052   0.54904   0.00000  Uiso   1.00
C795   C     0.83431   0.16669   0.97654   0.00000  Uiso   1.00
C796   C     0.83235   0.16664   0.52346   0.00000  Uiso   1.00
C797   C     0.87252   0.17055   0.95521   0.00000  Uiso   1.00
C798   C     0.79415   0.16278   0.54479   0.00000  Uiso   1.00
C799   C     0.76063   0.15811   0.97139   0.00000  Uiso   1.00
C800   C     0.90604   0.17522   0.52861   0.00000  Uiso   1.00
Cu801  Cu    0.83333   0.21355   0.75000   0.00000  Uiso   1.00
Cu802  Cu    0.83333   0.11978   0.75000   0.00000  Uiso   1.00
H803   H     0.77050   0.16082   0.88517   0.00000  Uiso   1.00
H804   H     0.89617   0.17251   0.61484   0.00000  Uiso   1.00
H805   H     0.73303   0.15427   0.95100   0.00000  Uiso   1.00
H806   H     0.93363   0.17906   0.54900   0.00000  Uiso   1.00
N807   N     0.83333   0.28402   0.75000   0.00000  Uiso   1.00
N808   N     0.83333   0.04931   0.75000   0.00000  Uiso   1.00
O809   O     0.77321   0.20625   0.75000   0.00000  Uiso   1.00
O810   O     0.89345   0.12709   0.75001   0.00000  Uiso   1.00
O811   O     0.89345   0.20625   0.75001   0.00000  Uiso   1.00
O812   O     0.77321   0.12709   0.75000   0.00000  Uiso   1.00
O813   O     0.83332   0.20627   0.68513   0.00000  Uiso   1.00
O814   O     0.83334   0.12707   0.81487   0.00000  Uiso   1.00
O815   O     0.83334   0.20627   0.81487   0.00000  Uiso   1.00
O816   O     0.83332   0.12707   0.68513   0.00000  Uiso   1.00
C817   C     0.90975   0.16721   0.88291   0.00000  Uiso   1.00
N818   N     0.93917   0.16560   0.86264   0.00000  Uiso   1.00
C819   C     0.75692   0.16612   0.61709   0.00000  Uiso   1.00
N820   N     0.72750   0.16773   0.63736   0.00000  Uiso   1.00
C821   C     0.71822   0.14922   0.53442   0.00000  Uiso   1.00
N822   N     0.68605   0.14243   0.54746   0.00000  Uiso   1.00
C823   C     0.94845   0.18411   0.96558   0.00000  Uiso   1.00
N824   N     0.98062   0.19090   0.95254   0.00000  Uiso   1.00
C825   C     0.70965   0.08494   0.78014   0.00000  Uiso   1.00
N826   N     0.72627   0.05259   0.79535   0.00000  Uiso   1.00
C827   C     0.95702   0.24840   0.71986   0.00000  Uiso   1.00
N828   N     0.94039   0.28075   0.70465   0.00000  Uiso   1.00
C829   C     0.96213   0.07847   0.74965   0.00000  Uiso   1.00
N830   N     0.94859   0.04182   0.74607   0.00000  Uiso   1.00
C831   C     0.70453   0.25487   0.75035   0.00000  Uiso   1.00
N832   N     0.71808   0.29151   0.75393   0.00000  Uiso   1.00
C833   C     0.78156   0.05023   0.69019   0.00000  Uiso   1.00
N834   N     0.75920   0.06948   0.66573   0.00000  Uiso   1.00
C835   C     0.88510   0.28310   0.80981   0.00000  Uiso   1.00
N836   N     0.90746   0.26385   0.83427   0.00000  Uiso   1.00
C837   C     0.88219   0.04796   0.81267   0.00000  Uiso   1.00
N838   N     0.90244   0.06629   0.83919   0.00000  Uiso   1.00
C839   C     0.78448   0.28537   0.68733   0.00000  Uiso   1.00
N840   N     0.76423   0.26704   0.66082   0.00000  Uiso   1.00
C841   C     0.08755   0.50044   0.75256   0.00000  Uiso   1.00
C842   C     0.24579   0.49956   0.74744   0.00000  Uiso   1.00
C843   C     0.09155   0.49080   0.51753   0.00000  Uiso   1.00
C844   C     0.24178   0.50920   0.98247   0.00000  Uiso   1.00
C845   C     0.02207   0.45916   0.76147   0.00000  Uiso   1.00
C846   C     0.31126   0.54084   0.73853   0.00000  Uiso   1.00
C847   C     0.31342   0.45734   0.75339   0.00000  Uiso   1.00
C848   C     0.01991   0.54266   0.74661   0.00000  Uiso   1.00
C849   C     0.29061   0.49884   0.74515   0.00000  Uiso   1.00
C850   C     0.04272   0.50116   0.75485   0.00000  Uiso   1.00
C851   C     0.14231   0.35865   0.72052   0.00000  Uiso   1.00
C852   C     0.19103   0.64135   0.77948   0.00000  Uiso   1.00
C853   C     0.19059   0.35754   0.77990   0.00000  Uiso   1.00
C854   C     0.14274   0.64246   0.72010   0.00000  Uiso   1.00
C855   C     0.16610   0.50008   0.66464   0.00000  Uiso   1.00
C856   C     0.16724   0.49992   0.83536   0.00000  Uiso   1.00
C857   C     0.20590   0.50224   0.90781   0.00000  Uiso   1.00
C858   C     0.12743   0.49777   0.59219   0.00000  Uiso   1.00
C859   C     0.16867   0.49973   0.88359   0.00000  Uiso   1.00
C860   C     0.16466   0.50027   0.61641   0.00000  Uiso   1.00
C861   C     0.13197   0.49662   0.90488   0.00000  Uiso   1.00
C862   C     0.20136   0.50338   0.59512   0.00000  Uiso   1.00
C863   C     0.13118   0.49614   0.95096   0.00000  Uiso   1.00
C864   C     0.20215   0.50386   0.54904   0.00000  Uiso   1.00
C865   C     0.16765   0.50002   0.97654   0.00000  Uiso   1.00
C866   C     0.16569   0.49998   0.52346   0.00000  Uiso   1.00
C867   C     0.20585   0.50388   0.95521   0.00000  Uiso   1.00
C868   C     0.12748   0.49612   0.54479   0.00000  Uiso   1.00
C869   C     0.09396   0.49144   0.97139   0.00000  Uiso   1.00
C870   C     0.23937   0.50856   0.52861   0.00000  Uiso   1.00
Cu871  Cu    0.16667   0.54689   0.75000   0.00000  Uiso   1.00
Cu872  Cu    0.16667   0.45311   0.75000   0.00000  Uiso   1.00
H873   H     0.10383   0.49416   0.88517   0.00000  Uiso   1.00
H874   H     0.22950   0.50584   0.61484   0.00000  Uiso   1.00
H875   H     0.06636   0.48761   0.95100   0.00000  Uiso   1.00
H876   H     0.26697   0.51239   0.54900   0.00000  Uiso   1.00
N877   N     0.16667   0.61736   0.75000   0.00000  Uiso   1.00
N878   N     0.16667   0.38264   0.75000   0.00000  Uiso   1.00
O879   O     0.10655   0.53958   0.75000   0.00000  Uiso   1.00
O880   O     0.22679   0.46042   0.75001   0.00000  Uiso   1.00
O881   O     0.22679   0.53958   0.75001   0.00000  Uiso   1.00
O882   O     0.10655   0.46042   0.75000   0.00000  Uiso   1.00
O883   O     0.16666   0.53960   0.68513   0.00000  Uiso   1.00
O884   O     0.16668   0.46040   0.81487   0.00000  Uiso   1.00
O885   O     0.16668   0.53960   0.81487   0.00000  Uiso   1.00
O886   O     0.16666   0.46040   0.68513   0.00000  Uiso   1.00
C887   C     0.24308   0.50054   0.88291   0.00000  Uiso   1.00
N888   N     0.27250   0.49894   0.86264   0.00000  Uiso   1.00
C889   C     0.09025   0.49946   0.61709   0.00000  Uiso   1.00
N890   N     0.06083   0.50106   0.63736   0.00000  Uiso   1.00
C891   C     0.05155   0.48255   0.53442   0.00000  Uiso   1.00
N892   N     0.01938   0.47577   0.54746   0.00000  Uiso   1.00
C893   C     0.28178   0.51745   0.96558   0.00000  Uiso   1.00
N894   N     0.31395   0.52423   0.95254   0.00000  Uiso   1.00
C895   C     0.04298   0.41827   0.78014   0.00000  Uiso   1.00
N896   N     0.05961   0.38592   0.79535   0.00000  Uiso   1.00
C897   C     0.29035   0.58173   0.71986   0.00000  Uiso   1.00
N898   N     0.27373   0.61408   0.70465   0.00000  Uiso   1.00
C899   C     0.29547   0.41180   0.74965   0.00000  Uiso   1.00
N900   N     0.28192   0.37515   0.74607   0.00000  Uiso   1.00
C901   C     0.03787   0.58820   0.75035   0.00000  Uiso   1.00
N902   N     0.05141   0.62485   0.75393   0.00000  Uiso   1.00
C903   C     0.11490   0.38357   0.69019   0.00000  Uiso   1.00
N904   N     0.09254   0.40282   0.66573   0.00000  Uiso   1.00
C905   C     0.21844   0.61643   0.80981   0.00000  Uiso   1.00
N906   N     0.24080   0.59718   0.83427   0.00000  Uiso   1.00
C907   C     0.21552   0.38129   0.81267   0.00000  Uiso   1.00
N908   N     0.23577   0.39963   0.83919   0.00000  Uiso   1.00
C909   C     0.11781   0.61871   0.68733   0.00000  Uiso   1.00
N910   N     0.09756   0.60037   0.66082   0.00000  Uiso   1.00
C911   C     0.42088   0.50044   0.75256   0.00000  Uiso   1.00
C912   C     0.57912   0.49956   0.74744   0.00000  Uiso   1.00
C913   C     0.42489   0.49080   0.51753   0.00000  Uiso   1.00
C914   C     0.57511   0.50920   0.98247   0.00000  Uiso   1.00
C915   C     0.35540   0.45916   0.76147   0.00000  Uiso   1.00
C916   C     0.64460   0.54084   0.73853   0.00000  Uiso   1.00
C917   C     0.64675   0.45734   0.75339   0.00000  Uiso   1.00
C918   C     0.35325   0.54266   0.74661   0.00000  Uiso   1.00
C919   C     0.62394   0.49884   0.74515   0.00000  Uiso   1.00
C920   C     0.37606   0.50116   0.75485   0.00000  Uiso   1.00
C921   C     0.47564   0.35865   0.72052   0.00000  Uiso   1.00
C922   C     0.52436   0.64135   0.77948   0.00000  Uiso   1.00
C923   C     0.52392   0.35754   0.77990   0.00000  Uiso   1.00
C924   C     0.47608   0.64246   0.72010   0.00000  Uiso   1.00
C925   C     0.49943   0.50008   0.66464   0.00000  Uiso   1.00
C926   C     0.50057   0.49992   0.83536   0.00000  Uiso   1.00
C927   C     0.53924   0.50224   0.90781   0.00000  Uiso   1.00
C928   C     0.46076   0.49777   0.59219   0.00000  Uiso   1.00
C929   C     0.50201   0.49973   0.88359   0.00000  Uiso   1.00
C930   C     0.49799   0.50027   0.61641   0.00000  Uiso   1.00
C931   C     0.46531   0.49662   0.90488   0.00000  Uiso   1.00
C932   C     0.53469   0.50338   0.59512   0.00000  Uiso   1.00
C933   C     0.46451   0.49614   0.95096   0.00000  Uiso   1.00
C934   C     0.53549   0.50386   0.54904   0.00000  Uiso   1.00
C935   C     0.50098   0.50002   0.97654   0.00000  Uiso   1.00
C936   C     0.49902   0.49998   0.52346   0.00000  Uiso   1.00
C937   C     0.53918   0.50388   0.95521   0.00000  Uiso   1.00
C938   C     0.46082   0.49612   0.54479   0.00000  Uiso   1.00
C939   C     0.42730   0.49144   0.97139   0.00000  Uiso   1.00
C940   C     0.57270   0.50856   0.52861   0.00000  Uiso   1.00
Cu941  Cu    0.50000   0.54689   0.75000   0.00000  Uiso   1.00
Cu942  Cu    0.50000   0.45311   0.75000   0.00000  Uiso   1.00
H943   H     0.43717   0.49416   0.88517   0.00000  Uiso   1.00
H944   H     0.56283   0.50584   0.61484   0.00000  Uiso   1.00
H945   H     0.39970   0.48761   0.95100   0.00000  Uiso   1.00
H946   H     0.60030   0.51239   0.54900   0.00000  Uiso   1.00
N947   N     0.50000   0.61736   0.75000   0.00000  Uiso   1.00
N948   N     0.50000   0.38264   0.75000   0.00000  Uiso   1.00
O949   O     0.43988   0.53958   0.75000   0.00000  Uiso   1.00
O950   O     0.56012   0.46042   0.75001   0.00000  Uiso   1.00
O951   O     0.56012   0.53958   0.75001   0.00000  Uiso   1.00
O952   O     0.43988   0.46042   0.75000   0.00000  Uiso   1.00
O953   O     0.49999   0.53960   0.68513   0.00000  Uiso   1.00
O954   O     0.50001   0.46040   0.81487   0.00000  Uiso   1.00
O955   O     0.50001   0.53960   0.81487   0.00000  Uiso   1.00
O956   O     0.49999   0.46040   0.68513   0.00000  Uiso   1.00
C957   C     0.57641   0.50054   0.88291   0.00000  Uiso   1.00
N958   N     0.60583   0.49894   0.86264   0.00000  Uiso   1.00
C959   C     0.42359   0.49946   0.61709   0.00000  Uiso   1.00
N960   N     0.39417   0.50106   0.63736   0.00000  Uiso   1.00
C961   C     0.38489   0.48255   0.53442   0.00000  Uiso   1.00
N962   N     0.35271   0.47577   0.54746   0.00000  Uiso   1.00
C963   C     0.61511   0.51745   0.96558   0.00000  Uiso   1.00
N964   N     0.64729   0.52423   0.95254   0.00000  Uiso   1.00
C965   C     0.37632   0.41827   0.78014   0.00000  Uiso   1.00
N966   N     0.39294   0.38592   0.79535   0.00000  Uiso   1.00
C967   C     0.62368   0.58173   0.71986   0.00000  Uiso   1.00
N968   N     0.60706   0.61408   0.70465   0.00000  Uiso   1.00
C969   C     0.62880   0.41180   0.74965   0.00000  Uiso   1.00
N970   N     0.61525   0.37515   0.74607   0.00000  Uiso   1.00
C971   C     0.37120   0.58820   0.75035   0.00000  Uiso   1.00
N972   N     0.38475   0.62485   0.75393   0.00000  Uiso   1.00
C973   C     0.44823   0.38357   0.69019   0.00000  Uiso   1.00
N974   N     0.42587   0.40282   0.66573   0.00000  Uiso   1.00
C975   C     0.55177   0.61643   0.80981   0.00000  Uiso   1.00
N976   N     0.57413   0.59718   0.83427   0.00000  Uiso   1.00
C977   C     0.54886   0.38129   0.81267   0.00000  Uiso   1.00
N978   N     0.56910   0.39963   0.83919   0.00000  Uiso   1.00
C979   C     0.45114   0.61871   0.68733   0.00000  Uiso   1.00
N980   N     0.43090   0.60037   0.66082   0.00000  Uiso   1.00
C981   C     0.75421   0.50044   0.75256   0.00000  Uiso   1.00
C982   C     0.91245   0.49956   0.74744   0.00000  Uiso   1.00
C983   C     0.75822   0.49080   0.51753   0.00000  Uiso   1.00
C984   C     0.90845   0.50920   0.98247   0.00000  Uiso   1.00
C985   C     0.68874   0.45916   0.76147   0.00000  Uiso   1.00
C986   C     0.97793   0.54084   0.73853   0.00000  Uiso   1.00
C987   C     0.98009   0.45734   0.75339   0.00000  Uiso   1.00
C988   C     0.68658   0.54266   0.74661   0.00000  Uiso   1.00
C989   C     0.95727   0.49884   0.74515   0.00000  Uiso   1.00
C990   C     0.70939   0.50116   0.75485   0.00000  Uiso   1.00
C991   C     0.80897   0.35865   0.72052   0.00000  Uiso   1.00
C992   C     0.85769   0.64135   0.77948   0.00000  Uiso   1.00
C993   C     0.85726   0.35754   0.77990   0.00000  Uiso   1.00
C994   C     0.80941   0.64246   0.72010   0.00000  Uiso   1.00
C995   C     0.83276   0.50008   0.66464   0.00000  Uiso   1.00
C996   C     0.83390   0.49992   0.83536   0.00000  Uiso   1.00
C997   C     0.87257   0.50224   0.90781   0.00000  Uiso   1.00
C998   C     0.79410   0.49777   0.59219   0.00000  Uiso   1.00
C999   C     0.83534   0.49973   0.88359   0.00000  Uiso   1.00
C1000  C     0.83133   0.50027   0.61641   0.00000  Uiso   1.00
C1001  C     0.79864   0.49662   0.90488   0.00000  Uiso   1.00
C1002  C     0.86803   0.50338   0.59512   0.00000  Uiso   1.00
C1003  C     0.79784   0.49614   0.95096   0.00000  Uiso   1.00
C1004  C     0.86882   0.50386   0.54904   0.00000  Uiso   1.00
C1005  C     0.83431   0.50002   0.97654   0.00000  Uiso   1.00
C1006  C     0.83235   0.49998   0.52346   0.00000  Uiso   1.00
C1007  C     0.87252   0.50388   0.95521   0.00000  Uiso   1.00
C1008  C     0.79415   0.49612   0.54479   0.00000  Uiso   1.00
C1009  C     0.76063   0.49144   0.97139   0.00000  Uiso   1.00
C1010  C     0.90604   0.50856   0.52861   0.00000  Uiso   1.00
Cu1011 Cu    0.83333   0.54689   0.75000   0.00000  Uiso   1.00
Cu1012 Cu    0.83333   0.45311   0.75000   0.00000  Uiso   1.00
H1013  H     0.77050   0.49416   0.88517   0.00000  Uiso   1.00
H1014  H     0.89617   0.50584   0.61484   0.00000  Uiso   1.00
H1015  H     0.73303   0.48761   0.95100   0.00000  Uiso   1.00
H1016  H     0.93363   0.51239   0.54900   0.00000  Uiso   1.00
N1017  N     0.83333   0.61736   0.75000   0.00000  Uiso   1.00
N1018  N     0.83333   0.38264   0.75000   0.00000  Uiso   1.00
O1019  O     0.77321   0.53958   0.75000   0.00000  Uiso   1.00
O1020  O     0.89345   0.46042   0.75001   0.00000  Uiso   1.00
O1021  O     0.89345   0.53958   0.75001   0.00000  Uiso   1.00
O1022  O     0.77321   0.46042   0.75000   0.00000  Uiso   1.00
O1023  O     0.83332   0.53960   0.68513   0.00000  Uiso   1.00
O1024  O     0.83334   0.46040   0.81487   0.00000  Uiso   1.00
O1025  O     0.83334   0.53960   0.81487   0.00000  Uiso   1.00
O1026  O     0.83332   0.46040   0.68513   0.00000  Uiso   1.00
C1027  C     0.90975   0.50054   0.88291   0.00000  Uiso   1.00
N1028  N     0.93917   0.49894   0.86264   0.00000  Uiso   1.00
C1029  C     0.75692   0.49946   0.61709   0.00000  Uiso   1.00
N1030  N     0.72750   0.50106   0.63736   0.00000  Uiso   1.00
C1031  C     0.71822   0.48255   0.53442   0.00000  Uiso   1.00
N1032  N     0.68605   0.47577   0.54746   0.00000  Uiso   1.00
C1033  C     0.94845   0.51745   0.96558   0.00000  Uiso   1.00
N1034  N     0.98062   0.52423   0.95254   0.00000  Uiso   1.00
C1035  C     0.70965   0.41827   0.78014   0.00000  Uiso   1.00
N1036  N     0.72627   0.38592   0.79535   0.00000  Uiso   1.00
C1037  C     0.95702   0.58173   0.71986   0.00000  Uiso   1.00
N1038  N     0.94039   0.61408   0.70465   0.00000  Uiso   1.00
C1039  C     0.96213   0.41180   0.74965   0.00000  Uiso   1.00
N1040  N     0.94859   0.37515   0.74607   0.00000  Uiso   1.00
C1041  C     0.70453   0.58820   0.75035   0.00000  Uiso   1.00
N1042  N     0.71808   0.62485   0.75393   0.00000  Uiso   1.00
C1043  C     0.78156   0.38357   0.69019   0.00000  Uiso   1.00
N1044  N     0.75920   0.40282   0.66573   0.00000  Uiso   1.00
C1045  C     0.88510   0.61643   0.80981   0.00000  Uiso   1.00
N1046  N     0.90746   0.59718   0.83427   0.00000  Uiso   1.00
C1047  C     0.88219   0.38129   0.81267   0.00000  Uiso   1.00
N1048  N     0.90244   0.39963   0.83919   0.00000  Uiso   1.00
C1049  C     0.78448   0.61871   0.68733   0.00000  Uiso   1.00
N1050  N     0.76423   0.60037   0.66082   0.00000  Uiso   1.00
C1051  C     0.08755   0.83377   0.75256   0.00000  Uiso   1.00
C1052  C     0.24579   0.83290   0.74744   0.00000  Uiso   1.00
C1053  C     0.09155   0.82414   0.51753   0.00000  Uiso   1.00
C1054  C     0.24178   0.84253   0.98247   0.00000  Uiso   1.00
C1055  C     0.02207   0.79250   0.76147   0.00000  Uiso   1.00
C1056  C     0.31126   0.87417   0.73853   0.00000  Uiso   1.00
C1057  C     0.31342   0.79067   0.75339   0.00000  Uiso   1.00
C1058  C     0.01991   0.87599   0.74661   0.00000  Uiso   1.00
C1059  C     0.29061   0.83217   0.74515   0.00000  Uiso   1.00
C1060  C     0.04272   0.83450   0.75485   0.00000  Uiso   1.00
C1061  C     0.14231   0.69198   0.72052   0.00000  Uiso   1.00
C1062  C     0.19103   0.97468   0.77948   0.00000  Uiso   1.00
C1063  C     0.19059   0.69087   0.77990   0.00000  Uiso   1.00
C1064  C     0.14274   0.97580   0.72010   0.00000  Uiso   1.00
C1065  C     0.16610   0.83342   0.66464   0.00000  Uiso   1.00
C1066  C     0.16724   0.83325   0.83536   0.00000  Uiso   1.00
C1067  C     0.20590   0.83557   0.90781   0.00000  Uiso   1.00
C1068  C     0.12743   0.83110   0.59219   0.00000  Uiso   1.00
C1069  C     0.16867   0.83306   0.88359   0.00000  Uiso   1.00
C1070  C     0.16466   0.83361   0.61641   0.00000  Uiso   1.00
C1071  C     0.13197   0.82995   0.90488   0.00000  Uiso   1.00
C1072  C     0.20136   0.83671   0.59512   0.00000  Uiso   1.00
C1073  C     0.13118   0.82948   0.95096   0.00000  Uiso   1.00
C1074  C     0.20215   0.83719   0.54904   0.00000  Uiso   1.00
C1075  C     0.16765   0.83336   0.97654   0.00000  Uiso   1.00
C1076  C     0.16569   0.83331   0.52346   0.00000  Uiso   1.00
C1077  C     0.20585   0.83722   0.95521   0.00000  Uiso   1.00
C1078  C     0.12748   0.82945   0.54479   0.00000  Uiso   1.00
C1079  C     0.09396   0.82478   0.97139   0.00000  Uiso   1.00
C1080  C     0.23937   0.84189   0.52861   0.00000  Uiso   1.00
Cu1081 Cu    0.16667   0.88022   0.75000   0.00000  Uiso   1.00
Cu1082 Cu    0.16667   0.78645   0.75000   0.00000  Uiso   1.00
H1083  H     0.10383   0.82749   0.88517   0.00000  Uiso   1.00
H1084  H     0.22950   0.83918   0.61484   0.00000  Uiso   1.00
H1085  H     0.06636   0.82094   0.95100   0.00000  Uiso   1.00
H1086  H     0.26697   0.84573   0.54900   0.00000  Uiso   1.00
N1087  N     0.16667   0.95069   0.75000   0.00000  Uiso   1.00
N1088  N     0.16667   0.71598   0.75000   0.00000  Uiso   1.00
O1089  O     0.10655   0.87291   0.75000   0.00000  Uiso   1.00
O1090  O     0.22679   0.79375   0.75001   0.00000  Uiso   1.00
O1091  O     0.22679   0.87291   0.75001   0.00000  Uiso   1.00
O1092  O     0.10655   0.79375   0.75000   0.00000  Uiso   1.00
O1093  O     0.16666   0.87293   0.68513   0.00000  Uiso   1.00
O1094  O     0.16668   0.79373   0.81487   0.00000  Uiso   1.00
O1095  O     0.16668   0.87293   0.81487   0.00000  Uiso   1.00
O1096  O     0.16666   0.79373   0.68513   0.00000  Uiso   1.00
C1097  C     0.24308   0.83388   0.88291   0.00000  Uiso   1.00
N1098  N     0.27250   0.83227   0.86264   0.00000  Uiso   1.00
C1099  C     0.09025   0.83279   0.61709   0.00000  Uiso   1.00
N1100  N     0.06083   0.83440   0.63736   0.00000  Uiso   1.00
C1101  C     0.05155   0.81589   0.53442   0.00000  Uiso   1.00
N1102  N     0.01938   0.80910   0.54746   0.00000  Uiso   1.00
C1103  C     0.28178   0.85078   0.96558   0.00000  Uiso   1.00
N1104  N     0.31395   0.85757   0.95254   0.00000  Uiso   1.00
C1105  C     0.04298   0.75160   0.78014   0.00000  Uiso   1.00
N1106  N     0.05961   0.71925   0.79535   0.00000  Uiso   1.00
C1107  C     0.29035   0.91507   0.71986   0.00000  Uiso   1.00
N1108  N     0.27373   0.94742   0.70465   0.00000  Uiso   1.00
C1109  C     0.29547   0.74513   0.74965   0.00000  Uiso   1.00
N1110  N     0.28192   0.70849   0.74607   0.00000  Uiso   1.00
C1111  C     0.03787   0.92153   0.75035   0.00000  Uiso   1.00
N1112  N     0.05141   0.95818   0.75393   0.00000  Uiso   1.00
C1113  C     0.11490   0.71690   0.69019   0.00000  Uiso   1.00
N1114  N     0.09254   0.73615   0.66573   0.00000  Uiso   1.00
C1115  C     0.21844   0.94977   0.80981   0.00000  Uiso   1.00
N1116  N     0.24080   0.93052   0.83427   0.00000  Uiso   1.00
C1117  C     0.21552   0.71463   0.81267   0.00000  Uiso   1.00
N1118  N     0.23577   0.73296   0.83919   0.00000  Uiso   1.00
C1119  C     0.11781   0.95204   0.68733   0.00000  Uiso   1.00
N1120  N     0.09756   0.93371   0.66082   0.00000  Uiso   1.00
C1121  C     0.42088   0.83377   0.75256   0.00000  Uiso   1.00
C1122  C     0.57912   0.83290   0.74744   0.00000  Uiso   1.00
C1123  C     0.42489   0.82414   0.51753   0.00000  Uiso   1.00
C1124  C     0.57511   0.84253   0.98247   0.00000  Uiso   1.00
C1125  C     0.35540   0.79250   0.76147   0.00000  Uiso   1.00
C1126  C     0.64460   0.87417   0.73853   0.00000  Uiso   1.00
C1127  C     0.64675   0.79067   0.75339   0.00000  Uiso   1.00
C1128  C     0.35325   0.87599   0.74661   0.00000  Uiso   1.00
C1129  C     0.62394   0.83217   0.74515   0.00000  Uiso   1.00
C1130  C     0.37606   0.83450   0.75485   0.00000  Uiso   1.00
C1131  C     0.47564   0.69198   0.72052   0.00000  Uiso   1.00
C1132  C     0.52436   0.97468   0.77948   0.00000  Uiso   1.00
C1133  C     0.52392   0.69087   0.77990   0.00000  Uiso   1.00
C1134  C     0.47608   0.97580   0.72010   0.00000  Uiso   1.00
C1135  C     0.49943   0.83342   0.66464   0.00000  Uiso   1.00
C1136  C     0.50057   0.83325   0.83536   0.00000  Uiso   1.00
C1137  C     0.53924   0.83557   0.90781   0.00000  Uiso   1.00
C1138  C     0.46076   0.83110   0.59219   0.00000  Uiso   1.00
C1139  C     0.50201   0.83306   0.88359   0.00000  Uiso   1.00
C1140  C     0.49799   0.83361   0.61641   0.00000  Uiso   1.00
C1141  C     0.46531   0.82995   0.90488   0.00000  Uiso   1.00
C1142  C     0.53469   0.83671   0.59512   0.00000  Uiso   1.00
C1143  C     0.46451   0.82948   0.95096   0.00000  Uiso   1.00
C1144  C     0.53549   0.83719   0.54904   0.00000  Uiso   1.00
C1145  C     0.50098   0.83336   0.97654   0.00000  Uiso   1.00
C1146  C     0.49902   0.83331   0.52346   0.00000  Uiso   1.00
C1147  C     0.53918   0.83722   0.95521   0.00000  Uiso   1.00
C1148  C     0.46082   0.82945   0.54479   0.00000  Uiso   1.00
C1149  C     0.42730   0.82478   0.97139   0.00000  Uiso   1.00
C1150  C     0.57270   0.84189   0.52861   0.00000  Uiso   1.00
Cu1151 Cu    0.50000   0.88022   0.75000   0.00000  Uiso   1.00
Cu1152 Cu    0.50000   0.78645   0.75000   0.00000  Uiso   1.00
H1153  H     0.43717   0.82749   0.88517   0.00000  Uiso   1.00
H1154  H     0.56283   0.83918   0.61484   0.00000  Uiso   1.00
H1155  H     0.39970   0.82094   0.95100   0.00000  Uiso   1.00
H1156  H     0.60030   0.84573   0.54900   0.00000  Uiso   1.00
N1157  N     0.50000   0.95069   0.75000   0.00000  Uiso   1.00
N1158  N     0.50000   0.71598   0.75000   0.00000  Uiso   1.00
O1159  O     0.43988   0.87291   0.75000   0.00000  Uiso   1.00
O1160  O     0.56012   0.79375   0.75001   0.00000  Uiso   1.00
O1161  O     0.56012   0.87291   0.75001   0.00000  Uiso   1.00
O1162  O     0.43988   0.79375   0.75000   0.00000  Uiso   1.00
O1163  O     0.49999   0.87293   0.68513   0.00000  Uiso   1.00
O1164  O     0.50001   0.79373   0.81487   0.00000  Uiso   1.00
O1165  O     0.50001   0.87293   0.81487   0.00000  Uiso   1.00
O1166  O     0.49999   0.79373   0.68513   0.00000  Uiso   1.00
C1167  C     0.57641   0.83388   0.88291   0.00000  Uiso   1.00
N1168  N     0.60583   0.83227   0.86264   0.00000  Uiso   1.00
C1169  C     0.42359   0.83279   0.61709   0.00000  Uiso   1.00
N1170  N     0.39417   0.83440   0.63736   0.00000  Uiso   1.00
C1171  C     0.38489   0.81589   0.53442   0.00000  Uiso   1.00
N1172  N     0.35271   0.80910   0.54746   0.00000  Uiso   1.00
C1173  C     0.61511   0.85078   0.96558   0.00000  Uiso   1.00
N1174  N     0.64729   0.85757   0.95254   0.00000  Uiso   1.00
C1175  C     0.37632   0.75160   0.78014   0.00000  Uiso   1.00
N1176  N     0.39294   0.71925   0.79535   0.00000  Uiso   1.00
C1177  C     0.62368   0.91507   0.71986   0.00000  Uiso   1.00
N1178  N     0.60706   0.94742   0.70465   0.00000  Uiso   1.00
C1179  C     0.62880   0.74513   0.74965   0.00000  Uiso   1.00
N1180  N     0.61525   0.70849   0.74607   0.00000  Uiso   1.00
C1181  C     0.37120   0.92153   0.75035   0.00000  Uiso   1.00
N1182  N     0.38475   0.95818   0.75393   0.00000  Uiso   1.00
C1183  C     0.44823   0.71690   0.69019   0.00000  Uiso   1.00
N1184  N     0.42587   0.73615   0.66573   0.00000  Uiso   1.00
C1185  C     0.55177   0.94977   0.80981   0.00000  Uiso   1.00
N1186  N     0.57413   0.93052   0.83427   0.00000  Uiso   1.00
C1187  C     0.54886   0.71463   0.81267   0.00000  Uiso   1.00
N1188  N     0.56910   0.73296   0.83919   0.00000  Uiso   1.00
C1189  C     0.45114   0.95204   0.68733   0.00000  Uiso   1.00
N1190  N     0.43090   0.93371   0.66082   0.00000  Uiso   1.00
C1191  C     0.75421   0.83377   0.75256   0.00000  Uiso   1.00
C1192  C     0.91245   0.83290   0.74744   0.00000  Uiso   1.00
C1193  C     0.75822   0.82414   0.51753   0.00000  Uiso   1.00
C1194  C     0.90845   0.84253   0.98247   0.00000  Uiso   1.00
C1195  C     0.68874   0.79250   0.76147   0.00000  Uiso   1.00
C1196  C     0.97793   0.87417   0.73853   0.00000  Uiso   1.00
C1197  C     0.98009   0.79067   0.75339   0.00000  Uiso   1.00
C1198  C     0.68658   0.87599   0.74661   0.00000  Uiso   1.00
C1199  C     0.95727   0.83217   0.74515   0.00000  Uiso   1.00
C1200  C     0.70939   0.83450   0.75485   0.00000  Uiso   1.00
C1201  C     0.80897   0.69198   0.72052   0.00000  Uiso   1.00
C1202  C     0.85769   0.97468   0.77948   0.00000  Uiso   1.00
C1203  C     0.85726   0.69087   0.77990   0.00000  Uiso   1.00
C1204  C     0.80941   0.97580   0.72010   0.00000  Uiso   1.00
C1205  C     0.83276   0.83342   0.66464   0.00000  Uiso   1.00
C1206  C     0.83390   0.83325   0.83536   0.00000  Uiso   1.00
C1207  C     0.87257   0.83557   0.90781   0.00000  Uiso   1.00
C1208  C     0.79410   0.83110   0.59219   0.00000  Uiso   1.00
C1209  C     0.83534   0.83306   0.88359   0.00000  Uiso   1.00
C1210  C     0.83133   0.83361   0.61641   0.00000  Uiso   1.00
C1211  C     0.79864   0.82995   0.90488   0.00000  Uiso   1.00
C1212  C     0.86803   0.83671   0.59512   0.00000  Uiso   1.00
C1213  C     0.79784   0.82948   0.95096   0.00000  Uiso   1.00
C1214  C     0.86882   0.83719   0.54904   0.00000  Uiso   1.00
C1215  C     0.83431   0.83336   0.97654   0.00000  Uiso   1.00
C1216  C     0.83235   0.83331   0.52346   0.00000  Uiso   1.00
C1217  C     0.87252   0.83722   0.95521   0.00000  Uiso   1.00
C1218  C     0.79415   0.82945   0.54479   0.00000  Uiso   1.00
C1219  C     0.76063   0.82478   0.97139   0.00000  Uiso   1.00
C1220  C     0.90604   0.84189   0.52861   0.00000  Uiso   1.00
Cu1221 Cu    0.83333   0.88022   0.75000   0.00000  Uiso   1.00
Cu1222 Cu    0.83333   0.78645   0.75000   0.00000  Uiso   1.00
H1223  H     0.77050   0.82749   0.88517   0.00000  Uiso   1.00
H1224  H     0.89617   0.83918   0.61484   0.00000  Uiso   1.00
H1225  H     0.73303   0.82094   0.95100   0.00000  Uiso   1.00
H1226  H     0.93363   0.84573   0.54900   0.00000  Uiso   1.00
N1227  N     0.83333   0.95069   0.75000   0.00000  Uiso   1.00
N1228  N     0.83333   0.71598   0.75000   0.00000  Uiso   1.00
O1229  O     0.77321   0.87291   0.75000   0.00000  Uiso   1.00
O1230  O     0.89345   0.79375   0.75001   0.00000  Uiso   1.00
O1231  O     0.89345   0.87291   0.75001   0.00000  Uiso   1.00
O1232  O     0.77321   0.79375   0.75000   0.00000  Uiso   1.00
O1233  O     0.83332   0.87293   0.68513   0.00000  Uiso   1.00
O1234  O     0.83334   0.79373   0.81487   0.00000  Uiso   1.00
O1235  O     0.83334   0.87293   0.81487   0.00000  Uiso   1.00
O1236  O     0.83332   0.79373   0.68513   0.00000  Uiso   1.00
C1237  C     0.90975   0.83388   0.88291   0.00000  Uiso   1.00
N1238  N     0.93917   0.83227   0.86264   0.00000  Uiso   1.00
C1239  C     0.75692   0.83279   0.61709   0.00000  Uiso   1.00
N1240  N     0.72750   0.83440   0.63736   0.00000  Uiso   1.00
C1241  C     0.71822   0.81589   0.53442   0.00000  Uiso   1.00
N1242  N     0.68605   0.80910   0.54746   0.00000  Uiso   1.00
C1243  C     0.94845   0.85078   0.96558   0.00000  Uiso   1.00
N1244  N     0.98062   0.85757   0.95254   0.00000  Uiso   1.00
C1245  C     0.70965   0.75160   0.78014   0.00000  Uiso   1.00
N1246  N     0.72627   0.71925   0.79535   0.00000  Uiso   1.00
C1247  C     0.95702   0.91507   0.71986   0.00000  Uiso   1.00
N1248  N     0.94039   0.94742   0.70465   0.00000  Uiso   1.00
C1249  C     0.96213   0.74513   0.74965   0.00000  Uiso   1.00
N1250  N     0.94859   0.70849   0.74607   0.00000  Uiso   1.00
C1251  C     0.70453   0.92153   0.75035   0.00000  Uiso   1.00
N1252  N     0.71808   0.95818   0.75393   0.00000  Uiso   1.00
C1253  C     0.78156   0.71690   0.69019   0.00000  Uiso   1.00
N1254  N     0.75920   0.73615   0.66573   0.00000  Uiso   1.00
C1255  C     0.88510   0.94977   0.80981   0.00000  Uiso   1.00
N1256  N     0.90746   0.93052   0.83427   0.00000  Uiso   1.00
C1257  C     0.88219   0.71463   0.81267   0.00000  Uiso   1.00
N1258  N     0.90244   0.73296   0.83919   0.00000  Uiso   1.00
C1259  C     0.78448   0.95204   0.68733   0.00000  Uiso   1.00
N1260  N     0.76423   0.93371   0.66082   0.00000  Uiso   1.00
loop_
_geom_bond_atom_site_label_1
_geom_bond_atom_site_label_2
_geom_bond_distance
_geom_bond_site_symmetry_2
_ccdc_geom_bond_type
C1     O39     1.301   .     A
C1     O42     1.304   .     A
C1     C10     1.475   .     S
C2     O41     1.304   .     A
C2     O40     1.301   .     A
C2     C9      1.475   .     S
C3     C28     1.427   .     A
C3     C51     1.446   .     S
C3     C659    1.391   1_554 S
C4     C53     1.446   .     S
C4     C27     1.427   .     A
C4     C660    1.391   .     S
C5     C10     1.413   .     A
C5     C55     1.455   .     S
C5     C147    1.395   1_455 S
C6     C9      1.413   .     A
C6     C57     1.455   .     S
C6     C78     1.395   .     S
C7     C9      1.416   .     A
C7     C59     1.450   .     S
C7     C75     1.395   .     S
C8     C61     1.450   .     S
C8     C10     1.416   .     A
C8     C146    1.395   1_455 S
C11    N38     1.372   .     A
C11    C63     1.442   .     S
C11    C434    1.426   1_545 S
C12    C65     1.442   .     S
C12    N37     1.372   .     A
C12    C223    1.426   .     S
C13    N38     1.372   .     A
C13    C67     1.443   .     S
C13    C432    1.426   1_545 S
C14    N37     1.372   .     A
C14    C69     1.443   .     S
C14    C221    1.426   .     S
C15    C20     1.449   .     S
C15    O43     1.295   .     A
C15    O46     1.296   .     A
C16    O45     1.296   .     A
C16    O44     1.295   .     A
C16    C19     1.449   .     S
C17    C19     1.407   .     A
C17    C27     1.426   .     A
C17    C47     1.451   .     S
C18    C28     1.426   .     A
C18    C20     1.407   .     A
C18    C49     1.451   .     S
C19    C21     1.385   .     A
C20    C22     1.385   .     A
C21    C23     1.386   .     A
C21    H33     1.086   .     S
C22    H34     1.086   .     S
C22    C24     1.386   .     A
C23    C29     1.393   .     A
C23    C25     1.410   .     A
C24    C30     1.393   .     A
C24    C26     1.410   .     A
C25    C27     1.432   .     A
C25    C656    1.414   .     S
C26    C28     1.432   .     A
C26    C655    1.414   1_554 S
C29    H35     1.086   .     S
C29    C633    1.391   .     S
C30    H36     1.086   .     S
C30    C634    1.391   1_554 S
Cu31   Cu32    2.700   .     S
Cu31   O43     1.962   .     S
Cu31   O45     1.960   .     S
Cu31   O41     1.982   .     S
Cu31   N37     2.029   .     S
Cu31   O39     1.989   .     S
Cu32   N38     2.029   .     S
Cu32   O40     1.989   .     S
Cu32   O44     1.962   .     S
Cu32   O42     1.982   .     S
Cu32   O46     1.960   .     S
C47    N48     1.158   .     T
C49    N50     1.158   .     T
C51    N52     1.158   .     T
C53    N54     1.158   .     T
C55    N56     1.157   .     T
C57    N58     1.157   .     T
C59    N60     1.156   .     T
C61    N62     1.156   .     T
C63    N64     1.157   .     T
C65    N66     1.157   .     T
C67    N68     1.157   .     T
C69    N70     1.157   .     T
C71    O109    1.301   .     A
C71    O112    1.304   .     A
C71    C80     1.475   .     S
C72    O111    1.304   .     A
C72    O110    1.301   .     A
C72    C79     1.475   .     S
C73    C98     1.427   .     A
C73    C121    1.446   .     S
C73    C729    1.391   1_554 S
C74    C123    1.446   .     S
C74    C97     1.427   .     A
C74    C730    1.391   .     S
C75    C80     1.413   .     A
C75    C125    1.455   .     S
C76    C79     1.413   .     A
C76    C127    1.455   .     S
C76    C148    1.395   .     S
C77    C79     1.416   .     A
C77    C129    1.450   .     S
C77    C145    1.395   .     S
C78    C131    1.450   .     S
C78    C80     1.416   .     A
C81    N108    1.372   .     A
C81    C133    1.442   .     S
C81    C504    1.426   1_545 S
C82    C135    1.442   .     S
C82    N107    1.372   .     A
C82    C293    1.426   .     S
C83    N108    1.372   .     A
C83    C137    1.443   .     S
C83    C502    1.426   1_545 S
C84    N107    1.372   .     A
C84    C139    1.443   .     S
C84    C291    1.426   .     S
C85    C90     1.449   .     S
C85    O113    1.295   .     A
C85    O116    1.296   .     A
C86    O115    1.296   .     A
C86    O114    1.295   .     A
C86    C89     1.449   .     S
C87    C89     1.407   .     A
C87    C97     1.426   .     A
C87    C117    1.451   .     S
C88    C98     1.426   .     A
C88    C90     1.407   .     A
C88    C119    1.451   .     S
C89    C91     1.385   .     A
C90    C92     1.385   .     A
C91    C93     1.386   .     A
C91    H103    1.086   .     S
C92    H104    1.086   .     S
C92    C94     1.386   .     A
C93    C99     1.393   .     A
C93    C95     1.410   .     A
C94    C100    1.393   .     A
C94    C96     1.410   .     A
C95    C97     1.432   .     A
C95    C726    1.414   .     S
C96    C98     1.432   .     A
C96    C725    1.414   1_554 S
C99    H105    1.086   .     S
C99    C703    1.391   .     S
C100   H106    1.086   .     S
C100   C704    1.391   1_554 S
Cu101  Cu102   2.700   .     S
Cu101  O113    1.962   .     S
Cu101  O115    1.960   .     S
Cu101  O111    1.982   .     S
Cu101  N107    2.029   .     S
Cu101  O109    1.989   .     S
Cu102  N108    2.029   .     S
Cu102  O110    1.989   .     S
Cu102  O114    1.962   .     S
Cu102  O112    1.982   .     S
Cu102  O116    1.960   .     S
C117   N118    1.158   .     T
C119   N120    1.158   .     T
C121   N122    1.158   .     T
C123   N124    1.158   .     T
C125   N126    1.157   .     T
C127   N128    1.157   .     T
C129   N130    1.156   .     T
C131   N132    1.156   .     T
C133   N134    1.157   .     T
C135   N136    1.157   .     T
C137   N138    1.157   .     T
C139   N140    1.157   .     T
C141   O179    1.301   .     A
C141   O182    1.304   .     A
C141   C150    1.475   .     S
C142   O181    1.304   .     A
C142   O180    1.301   .     A
C142   C149    1.475   .     S
C143   C168    1.427   .     A
C143   C191    1.446   .     S
C143   C799    1.391   1_554 S
C144   C193    1.446   .     S
C144   C167    1.427   .     A
C144   C800    1.391   .     S
C145   C150    1.413   .     A
C145   C195    1.455   .     S
C146   C149    1.413   .     A
C146   C197    1.455   .     S
C146   C8      1.395   1_655 S
C147   C149    1.416   .     A
C147   C199    1.450   .     S
C147   C5      1.395   1_655 S
C148   C201    1.450   .     S
C148   C150    1.416   .     A
C151   N178    1.372   .     A
C151   C203    1.442   .     S
C151   C574    1.426   1_545 S
C152   C205    1.442   .     S
C152   N177    1.372   .     A
C152   C363    1.426   .     S
C153   N178    1.372   .     A
C153   C207    1.443   .     S
C153   C572    1.426   1_545 S
C154   N177    1.372   .     A
C154   C209    1.443   .     S
C154   C361    1.426   .     S
C155   C160    1.449   .     S
C155   O183    1.295   .     A
C155   O186    1.296   .     A
C156   O185    1.296   .     A
C156   O184    1.295   .     A
C156   C159    1.449   .     S
C157   C159    1.407   .     A
C157   C167    1.426   .     A
C157   C187    1.451   .     S
C158   C168    1.426   .     A
C158   C160    1.407   .     A
C158   C189    1.451   .     S
C159   C161    1.385   .     A
C160   C162    1.385   .     A
C161   C163    1.386   .     A
C161   H173    1.086   .     S
C162   H174    1.086   .     S
C162   C164    1.386   .     A
C163   C169    1.393   .     A
C163   C165    1.410   .     A
C164   C170    1.393   .     A
C164   C166    1.410   .     A
C165   C167    1.432   .     A
C165   C796    1.414   .     S
C166   C168    1.432   .     A
C166   C795    1.414   1_554 S
C169   H175    1.086   .     S
C169   C773    1.391   .     S
C170   H176    1.086   .     S
C170   C774    1.391   1_554 S
Cu171  Cu172   2.700   .     S
Cu171  O183    1.962   .     S
Cu171  O185    1.960   .     S
Cu171  O181    1.982   .     S
Cu171  N177    2.029   .     S
Cu171  O179    1.989   .     S
Cu172  N178    2.029   .     S
Cu172  O180    1.989   .     S
Cu172  O184    1.962   .     S
Cu172  O182    1.982   .     S
Cu172  O186    1.960   .     S
C187   N188    1.158   .     T
C189   N190    1.158   .     T
C191   N192    1.158   .     T
C193   N194    1.158   .     T
C195   N196    1.157   .     T
C197   N198    1.157   .     T
C199   N200    1.156   .     T
C201   N202    1.156   .     T
C203   N204    1.157   .     T
C205   N206    1.157   .     T
C207   N208    1.157   .     T
C209   N210    1.157   .     T
C211   O249    1.301   .     A
C211   O252    1.304   .     A
C211   C220    1.475   .     S
C212   O251    1.304   .     A
C212   O250    1.301   .     A
C212   C219    1.475   .     S
C213   C238    1.427   .     A
C213   C261    1.446   .     S
C213   C869    1.391   1_554 S
C214   C263    1.446   .     S
C214   C237    1.427   .     A
C214   C870    1.391   .     S
C215   C220    1.413   .     A
C215   C265    1.455   .     S
C215   C357    1.395   1_455 S
C216   C219    1.413   .     A
C216   C267    1.455   .     S
C216   C288    1.395   .     S
C217   C219    1.416   .     A
C217   C269    1.450   .     S
C217   C285    1.395   .     S
C218   C271    1.450   .     S
C218   C220    1.416   .     A
C218   C356    1.395   1_455 S
C221   N248    1.372   .     A
C221   C273    1.442   .     S
C222   C275    1.442   .     S
C222   N247    1.372   .     A
C222   C433    1.426   .     S
C223   N248    1.372   .     A
C223   C277    1.443   .     S
C224   N247    1.372   .     A
C224   C279    1.443   .     S
C224   C431    1.426   .     S
C225   C230    1.449   .     S
C225   O253    1.295   .     A
C225   O256    1.296   .     A
C226   O255    1.296   .     A
C226   O254    1.295   .     A
C226   C229    1.449   .     S
C227   C229    1.407   .     A
C227   C237    1.426   .     A
C227   C257    1.451   .     S
C228   C238    1.426   .     A
C228   C230    1.407   .     A
C228   C259    1.451   .     S
C229   C231    1.385   .     A
C230   C232    1.385   .     A
C231   C233    1.386   .     A
C231   H243    1.086   .     S
C232   H244    1.086   .     S
C232   C234    1.386   .     A
C233   C239    1.393   .     A
C233   C235    1.410   .     A
C234   C240    1.393   .     A
C234   C236    1.410   .     A
C235   C237    1.432   .     A
C235   C866    1.414   .     S
C236   C238    1.432   .     A
C236   C865    1.414   1_554 S
C239   H245    1.086   .     S
C239   C843    1.391   .     S
C240   H246    1.086   .     S
C240   C844    1.391   1_554 S
Cu241  Cu242   2.700   .     S
Cu241  O253    1.962   .     S
Cu241  O255    1.960   .     S
Cu241  O251    1.982   .     S
Cu241  N247    2.029   .     S
Cu241  O249    1.989   .     S
Cu242  N248    2.029   .     S
Cu242  O250    1.989   .     S
Cu242  O254    1.962   .     S
Cu242  O252    1.982   .     S
Cu242  O256    1.960   .     S
C257   N258    1.158   .     T
C259   N260    1.158   .     T
C261   N262    1.158   .     T
C263   N264    1.158   .     T
C265   N266    1.157   .     T
C267   N268    1.157   .     T
C269   N270    1.156   .     T
C271   N272    1.156   .     T
C273   N274    1.157   .     T
C275   N276    1.157   .     T
C277   N278    1.157   .     T
C279   N280    1.157   .     T
C281   O319    1.301   .     A
C281   O322    1.304   .     A
C281   C290    1.475   .     S
C282   O321    1.304   .     A
C282   O320    1.301   .     A
C282   C289    1.475   .     S
C283   C308    1.427   .     A
C283   C331    1.446   .     S
C283   C939    1.391   1_554 S
C284   C333    1.446   .     S
C284   C307    1.427   .     A
C284   C940    1.391   .     S
C285   C290    1.413   .     A
C285   C335    1.455   .     S
C286   C289    1.413   .     A
C286   C337    1.455   .     S
C286   C358    1.395   .     S
C287   C289    1.416   .     A
C287   C339    1.450   .     S
C287   C355    1.395   .     S
C288   C341    1.450   .     S
C288   C290    1.416   .     A
C291   N318    1.372   .     A
C291   C343    1.442   .     S
C292   C345    1.442   .     S
C292   N317    1.372   .     A
C292   C503    1.426   .     S
C293   N318    1.372   .     A
C293   C347    1.443   .     S
C294   N317    1.372   .     A
C294   C349    1.443   .     S
C294   C501    1.426   .     S
C295   C300    1.449   .     S
C295   O323    1.295   .     A
C295   O326    1.296   .     A
C296   O325    1.296   .     A
C296   O324    1.295   .     A
C296   C299    1.449   .     S
C297   C299    1.407   .     A
C297   C307    1.426   .     A
C297   C327    1.451   .     S
C298   C308    1.426   .     A
C298   C300    1.407   .     A
C298   C329    1.451   .     S
C299   C301    1.385   .     A
C300   C302    1.385   .     A
C301   C303    1.386   .     A
C301   H313    1.086   .     S
C302   H314    1.086   .     S
C302   C304    1.386   .     A
C303   C309    1.393   .     A
C303   C305    1.410   .     A
C304   C310    1.393   .     A
C304   C306    1.410   .     A
C305   C307    1.432   .     A
C305   C936    1.414   .     S
C306   C308    1.432   .     A
C306   C935    1.414   1_554 S
C309   H315    1.086   .     S
C309   C913    1.391   .     S
C310   H316    1.086   .     S
C310   C914    1.391   1_554 S
Cu311  Cu312   2.700   .     S
Cu311  O323    1.962   .     S
Cu311  O325    1.960   .     S
Cu311  O321    1.982   .     S
Cu311  N317    2.029   .     S
Cu311  O319    1.989   .     S
Cu312  N318    2.029   .     S
Cu312  O320    1.989   .     S
Cu312  O324    1.962   .     S
Cu312  O322    1.982   .     S
Cu312  O326    1.960   .     S
C327   N328    1.158   .     T
C329   N330    1.158   .     T
C331   N332    1.158   .     T
C333   N334    1.158   .     T
C335   N336    1.157   .     T
C337   N338    1.157   .     T
C339   N340    1.156   .     T
C341   N342    1.156   .     T
C343   N344    1.157   .     T
C345   N346    1.157   .     T
C347   N348    1.157   .     T
C349   N350    1.157   .     T
C351   O389    1.301   .     A
C351   O392    1.304   .     A
C351   C360    1.475   .     S
C352   O391    1.304   .     A
C352   O390    1.301   .     A
C352   C359    1.475   .     S
C353   C378    1.427   .     A
C353   C401    1.446   .     S
C353   C1009   1.391   1_554 S
C354   C403    1.446   .     S
C354   C377    1.427   .     A
C354   C1010   1.391   .     S
C355   C360    1.413   .     A
C355   C405    1.455   .     S
C356   C359    1.413   .     A
C356   C407    1.455   .     S
C356   C218    1.395   1_655 S
C357   C359    1.416   .     A
C357   C409    1.450   .     S
C357   C215    1.395   1_655 S
C358   C411    1.450   .     S
C358   C360    1.416   .     A
C361   N388    1.372   .     A
C361   C413    1.442   .     S
C362   C415    1.442   .     S
C362   N387    1.372   .     A
C362   C573    1.426   .     S
C363   N388    1.372   .     A
C363   C417    1.443   .     S
C364   N387    1.372   .     A
C364   C419    1.443   .     S
C364   C571    1.426   .     S
C365   C370    1.449   .     S
C365   O393    1.295   .     A
C365   O396    1.296   .     A
C366   O395    1.296   .     A
C366   O394    1.295   .     A
C366   C369    1.449   .     S
C367   C369    1.407   .     A
C367   C377    1.426   .     A
C367   C397    1.451   .     S
C368   C378    1.426   .     A
C368   C370    1.407   .     A
C368   C399    1.451   .     S
C369   C371    1.385   .     A
C370   C372    1.385   .     A
C371   C373    1.386   .     A
C371   H383    1.086   .     S
C372   H384    1.086   .     S
C372   C374    1.386   .     A
C373   C379    1.393   .     A
C373   C375    1.410   .     A
C374   C380    1.393   .     A
C374   C376    1.410   .     A
C375   C377    1.432   .     A
C375   C1006   1.414   .     S
C376   C378    1.432   .     A
C376   C1005   1.414   1_554 S
C379   H385    1.086   .     S
C379   C983    1.391   .     S
C380   H386    1.086   .     S
C380   C984    1.391   1_554 S
Cu381  Cu382   2.700   .     S
Cu381  O393    1.962   .     S
Cu381  O395    1.960   .     S
Cu381  O391    1.982   .     S
Cu381  N387    2.029   .     S
Cu381  O389    1.989   .     S
Cu382  N388    2.029   .     S
Cu382  O390    1.989   .     S
Cu382  O394    1.962   .     S
Cu382  O392    1.982   .     S
Cu382  O396    1.960   .     S
C397   N398    1.158   .     T
C399   N400    1.158   .     T
C401   N402    1.158   .     T
C403   N404    1.158   .     T
C405   N406    1.157   .     T
C407   N408    1.157   .     T
C409   N410    1.156   .     T
C411   N412    1.156   .     T
C413   N414    1.157   .     T
C415   N416    1.157   .     T
C417   N418    1.157   .     T
C419   N420    1.157   .     T
C421   O459    1.301   .     A
C421   O462    1.304   .     A
C421   C430    1.475   .     S
C422   O461    1.304   .     A
C422   O460    1.301   .     A
C422   C429    1.475   .     S
C423   C448    1.427   .     A
C423   C471    1.446   .     S
C423   C1079   1.391   1_554 S
C424   C473    1.446   .     S
C424   C447    1.427   .     A
C424   C1080   1.391   .     S
C425   C430    1.413   .     A
C425   C475    1.455   .     S
C425   C567    1.395   1_455 S
C426   C429    1.413   .     A
C426   C477    1.455   .     S
C426   C498    1.395   .     S
C427   C429    1.416   .     A
C427   C479    1.450   .     S
C427   C495    1.395   .     S
C428   C481    1.450   .     S
C428   C430    1.416   .     A
C428   C566    1.395   1_455 S
C431   N458    1.372   .     A
C431   C483    1.442   .     S
C432   C485    1.442   .     S
C432   N457    1.372   .     A
C432   C13     1.426   1_565 S
C433   N458    1.372   .     A
C433   C487    1.443   .     S
C434   N457    1.372   .     A
C434   C489    1.443   .     S
C434   C11     1.426   1_565 S
C435   C440    1.449   .     S
C435   O463    1.295   .     A
C435   O466    1.296   .     A
C436   O465    1.296   .     A
C436   O464    1.295   .     A
C436   C439    1.449   .     S
C437   C439    1.407   .     A
C437   C447    1.426   .     A
C437   C467    1.451   .     S
C438   C448    1.426   .     A
C438   C440    1.407   .     A
C438   C469    1.451   .     S
C439   C441    1.385   .     A
C440   C442    1.385   .     A
C441   C443    1.386   .     A
C441   H453    1.086   .     S
C442   H454    1.086   .     S
C442   C444    1.386   .     A
C443   C449    1.393   .     A
C443   C445    1.410   .     A
C444   C450    1.393   .     A
C444   C446    1.410   .     A
C445   C447    1.432   .     A
C445   C1076   1.414   .     S
C446   C448    1.432   .     A
C446   C1075   1.414   1_554 S
C449   H455    1.086   .     S
C449   C1053   1.391   .     S
C450   H456    1.086   .     S
C450   C1054   1.391   1_554 S
Cu451  Cu452   2.700   .     S
Cu451  O463    1.962   .     S
Cu451  O465    1.960   .     S
Cu451  O461    1.982   .     S
Cu451  N457    2.029   .     S
Cu451  O459    1.989   .     S
Cu452  N458    2.029   .     S
Cu452  O460    1.989   .     S
Cu452  O464    1.962   .     S
Cu452  O462    1.982   .     S
Cu452  O466    1.960   .     S
C467   N468    1.158   .     T
C469   N470    1.158   .     T
C471   N472    1.158   .     T
C473   N474    1.158   .     T
C475   N476    1.157   .     T
C477   N478    1.157   .     T
C479   N480    1.156   .     T
C481   N482    1.156   .     T
C483   N484    1.157   .     T
C485   N486    1.157   .     T
C487   N488    1.157   .     T
C489   N490    1.157   .     T
C491   O529    1.301   .     A
C491   O532    1.304   .     A
C491   C500    1.475   .     S
C492   O531    1.304   .     A
C492   O530    1.301   .     A
C492   C499    1.475   .     S
C493   C518    1.427   .     A
C493   C541    1.446   .     S
C493   C1149   1.391   1_554 S
C494   C543    1.446   .     S
C494   C517    1.427   .     A
C494   C1150   1.391   .     S
C495   C500    1.413   .     A
C495   C545    1.455   .     S
C496   C499    1.413   .     A
C496   C547    1.455   .     S
C496   C568    1.395   .     S
C497   C499    1.416   .     A
C497   C549    1.450   .     S
C497   C565    1.395   .     S
C498   C551    1.450   .     S
C498   C500    1.416   .     A
C501   N528    1.372   .     A
C501   C553    1.442   .     S
C502   C555    1.442   .     S
C502   N527    1.372   .     A
C502   C83     1.426   1_565 S
C503   N528    1.372   .     A
C503   C557    1.443   .     S
C504   N527    1.372   .     A
C504   C559    1.443   .     S
C504   C81     1.426   1_565 S
C505   C510    1.449   .     S
C505   O533    1.295   .     A
C505   O536    1.296   .     A
C506   O535    1.296   .     A
C506   O534    1.295   .     A
C506   C509    1.449   .     S
C507   C509    1.407   .     A
C507   C517    1.426   .     A
C507   C537    1.451   .     S
C508   C518    1.426   .     A
C508   C510    1.407   .     A
C508   C539    1.451   .     S
C509   C511    1.385   .     A
C510   C512    1.385   .     A
C511   C513    1.386   .     A
C511   H523    1.086   .     S
C512   H524    1.086   .     S
C512   C514    1.386   .     A
C513   C519    1.393   .     A
C513   C515    1.410   .     A
C514   C520    1.393   .     A
C514   C516    1.410   .     A
C515   C517    1.432   .     A
C515   C1146   1.414   .     S
C516   C518    1.432   .     A
C516   C1145   1.414   1_554 S
C519   H525    1.086   .     S
C519   C1123   1.391   .     S
C520   H526    1.086   .     S
C520   C1124   1.391   1_554 S
Cu521  Cu522   2.700   .     S
Cu521  O533    1.962   .     S
Cu521  O535    1.960   .     S
Cu521  O531    1.982   .     S
Cu521  N527    2.029   .     S
Cu521  O529    1.989   .     S
Cu522  N528    2.029   .     S
Cu522  O530    1.989   .     S
Cu522  O534    1.962   .     S
Cu522  O532    1.982   .     S
Cu522  O536    1.960   .     S
C537   N538    1.158   .     T
C539   N540    1.158   .     T
C541   N542    1.158   .     T
C543   N544    1.158   .     T
C545   N546    1.157   .     T
C547   N548    1.157   .     T
C549   N550    1.156   .     T
C551   N552    1.156   .     T
C553   N554    1.157   .     T
C555   N556    1.157   .     T
C557   N558    1.157   .     T
C559   N560    1.157   .     T
C561   O599    1.301   .     A
C561   O602    1.304   .     A
C561   C570    1.475   .     S
C562   O601    1.304   .     A
C562   O600    1.301   .     A
C562   C569    1.475   .     S
C563   C588    1.427   .     A
C563   C611    1.446   .     S
C563   C1219   1.391   1_554 S
C564   C613    1.446   .     S
C564   C587    1.427   .     A
C564   C1220   1.391   .     S
C565   C570    1.413   .     A
C565   C615    1.455   .     S
C566   C569    1.413   .     A
C566   C617    1.455   .     S
C566   C428    1.395   1_655 S
C567   C569    1.416   .     A
C567   C619    1.450   .     S
C567   C425    1.395   1_655 S
C568   C621    1.450   .     S
C568   C570    1.416   .     A
C571   N598    1.372   .     A
C571   C623    1.442   .     S
C572   C625    1.442   .     S
C572   N597    1.372   .     A
C572   C153    1.426   1_565 S
C573   N598    1.372   .     A
C573   C627    1.443   .     S
C574   N597    1.372   .     A
C574   C629    1.443   .     S
C574   C151    1.426   1_565 S
C575   C580    1.449   .     S
C575   O603    1.295   .     A
C575   O606    1.296   .     A
C576   O605    1.296   .     A
C576   O604    1.295   .     A
C576   C579    1.449   .     S
C577   C579    1.407   .     A
C577   C587    1.426   .     A
C577   C607    1.451   .     S
C578   C588    1.426   .     A
C578   C580    1.407   .     A
C578   C609    1.451   .     S
C579   C581    1.385   .     A
C580   C582    1.385   .     A
C581   C583    1.386   .     A
C581   H593    1.086   .     S
C582   H594    1.086   .     S
C582   C584    1.386   .     A
C583   C589    1.393   .     A
C583   C585    1.410   .     A
C584   C590    1.393   .     A
C584   C586    1.410   .     A
C585   C587    1.432   .     A
C585   C1216   1.414   .     S
C586   C588    1.432   .     A
C586   C1215   1.414   1_554 S
C589   H595    1.086   .     S
C589   C1193   1.391   .     S
C590   H596    1.086   .     S
C590   C1194   1.391   1_554 S
Cu591  Cu592   2.700   .     S
Cu591  O603    1.962   .     S
Cu591  O605    1.960   .     S
Cu591  O601    1.982   .     S
Cu591  N597    2.029   .     S
Cu591  O599    1.989   .     S
Cu592  N598    2.029   .     S
Cu592  O600    1.989   .     S
Cu592  O604    1.962   .     S
Cu592  O602    1.982   .     S
Cu592  O606    1.960   .     S
C607   N608    1.158   .     T
C609   N610    1.158   .     T
C611   N612    1.158   .     T
C613   N614    1.158   .     T
C615   N616    1.157   .     T
C617   N618    1.157   .     T
C619   N620    1.156   .     T
C621   N622    1.156   .     T
C623   N624    1.157   .     T
C625   N626    1.157   .     T
C627   N628    1.157   .     T
C629   N630    1.157   .     T
C631   O669    1.301   .     A
C631   O672    1.304   .     A
C631   C640    1.475   .     S
C632   O671    1.304   .     A
C632   O670    1.301   .     A
C632   C639    1.475   .     S
C633   C658    1.427   .     A
C633   C681    1.446   .     S
C634   C683    1.446   .     S
C634   C657    1.427   .     A
C634   C30     1.391   1_556 S
C635   C640    1.413   .     A
C635   C685    1.455   .     S
C635   C777    1.395   1_455 S
C636   C639    1.413   .     A
C636   C687    1.455   .     S
C636   C708    1.395   .     S
C637   C639    1.416   .     A
C637   C689    1.450   .     S
C637   C705    1.395   .     S
C638   C691    1.450   .     S
C638   C640    1.416   .     A
C638   C776    1.395   1_455 S
C641   N668    1.372   .     A
C641   C693    1.442   .     S
C641   C1064   1.426   1_545 S
C642   C695    1.442   .     S
C642   N667    1.372   .     A
C642   C853    1.426   .     S
C643   N668    1.372   .     A
C643   C697    1.443   .     S
C643   C1062   1.426   1_545 S
C644   N667    1.372   .     A
C644   C699    1.443   .     S
C644   C851    1.426   .     S
C645   C650    1.449   .     S
C645   O673    1.295   .     A
C645   O676    1.296   .     A
C646   O675    1.296   .     A
C646   O674    1.295   .     A
C646   C649    1.449   .     S
C647   C649    1.407   .     A
C647   C657    1.426   .     A
C647   C677    1.451   .     S
C648   C658    1.426   .     A
C648   C650    1.407   .     A
C648   C679    1.451   .     S
C649   C651    1.385   .     A
C650   C652    1.385   .     A
C651   C653    1.386   .     A
C651   H663    1.086   .     S
C652   H664    1.086   .     S
C652   C654    1.386   .     A
C653   C659    1.393   .     A
C653   C655    1.410   .     A
C654   C660    1.393   .     A
C654   C656    1.410   .     A
C655   C657    1.432   .     A
C655   C26     1.414   1_556 S
C656   C658    1.432   .     A
C659   H665    1.086   .     S
C659   C3      1.391   1_556 S
C660   H666    1.086   .     S
Cu661  Cu662   2.700   .     S
Cu661  O673    1.962   .     S
Cu661  O675    1.960   .     S
Cu661  O671    1.982   .     S
Cu661  N667    2.029   .     S
Cu661  O669    1.989   .     S
Cu662  N668    2.029   .     S
Cu662  O670    1.989   .     S
Cu662  O674    1.962   .     S
Cu662  O672    1.982   .     S
Cu662  O676    1.960   .     S
C677   N678    1.158   .     T
C679   N680    1.158   .     T
C681   N682    1.158   .     T
C683   N684    1.158   .     T
C685   N686    1.157   .     T
C687   N688    1.157   .     T
C689   N690    1.156   .     T
C691   N692    1.156   .     T
C693   N694    1.157   .     T
C695   N696    1.157   .     T
C697   N698    1.157   .     T
C699   N700    1.157   .     T
C701   O739    1.301   .     A
C701   O742    1.304   .     A
C701   C710    1.475   .     S
C702   O741    1.304   .     A
C702   O740    1.301   .     A
C702   C709    1.475   .     S
C703   C728    1.427   .     A
C703   C751    1.446   .     S
C704   C753    1.446   .     S
C704   C727    1.427   .     A
C704   C100    1.391   1_556 S
C705   C710    1.413   .     A
C705   C755    1.455   .     S
C706   C709    1.413   .     A
C706   C757    1.455   .     S
C706   C778    1.395   .     S
C707   C709    1.416   .     A
C707   C759    1.450   .     S
C707   C775    1.395   .     S
C708   C761    1.450   .     S
C708   C710    1.416   .     A
C711   N738    1.372   .     A
C711   C763    1.442   .     S
C711   C1134   1.426   1_545 S
C712   C765    1.442   .     S
C712   N737    1.372   .     A
C712   C923    1.426   .     S
C713   N738    1.372   .     A
C713   C767    1.443   .     S
C713   C1132   1.426   1_545 S
C714   N737    1.372   .     A
C714   C769    1.443   .     S
C714   C921    1.426   .     S
C715   C720    1.449   .     S
C715   O743    1.295   .     A
C715   O746    1.296   .     A
C716   O745    1.296   .     A
C716   O744    1.295   .     A
C716   C719    1.449   .     S
C717   C719    1.407   .     A
C717   C727    1.426   .     A
C717   C747    1.451   .     S
C718   C728    1.426   .     A
C718   C720    1.407   .     A
C718   C749    1.451   .     S
C719   C721    1.385   .     A
C720   C722    1.385   .     A
C721   C723    1.386   .     A
C721   H733    1.086   .     S
C722   H734    1.086   .     S
C722   C724    1.386   .     A
C723   C729    1.393   .     A
C723   C725    1.410   .     A
C724   C730    1.393   .     A
C724   C726    1.410   .     A
C725   C727    1.432   .     A
C725   C96     1.414   1_556 S
C726   C728    1.432   .     A
C729   H735    1.086   .     S
C729   C73     1.391   1_556 S
C730   H736    1.086   .     S
Cu731  Cu732   2.700   .     S
Cu731  O743    1.962   .     S
Cu731  O745    1.960   .     S
Cu731  O741    1.982   .     S
Cu731  N737    2.029   .     S
Cu731  O739    1.989   .     S
Cu732  N738    2.029   .     S
Cu732  O740    1.989   .     S
Cu732  O744    1.962   .     S
Cu732  O742    1.982   .     S
Cu732  O746    1.960   .     S
C747   N748    1.158   .     T
C749   N750    1.158   .     T
C751   N752    1.158   .     T
C753   N754    1.158   .     T
C755   N756    1.157   .     T
C757   N758    1.157   .     T
C759   N760    1.156   .     T
C761   N762    1.156   .     T
C763   N764    1.157   .     T
C765   N766    1.157   .     T
C767   N768    1.157   .     T
C769   N770    1.157   .     T
C771   O809    1.301   .     A
C771   O812    1.304   .     A
C771   C780    1.475   .     S
C772   O811    1.304   .     A
C772   O810    1.301   .     A
C772   C779    1.475   .     S
C773   C798    1.427   .     A
C773   C821    1.446   .     S
C774   C823    1.446   .     S
C774   C797    1.427   .     A
C774   C170    1.391   1_556 S
C775   C780    1.413   .     A
C775   C825    1.455   .     S
C776   C779    1.413   .     A
C776   C827    1.455   .     S
C776   C638    1.395   1_655 S
C777   C779    1.416   .     A
C777   C829    1.450   .     S
C777   C635    1.395   1_655 S
C778   C831    1.450   .     S
C778   C780    1.416   .     A
C781   N808    1.372   .     A
C781   C833    1.442   .     S
C781   C1204   1.426   1_545 S
C782   C835    1.442   .     S
C782   N807    1.372   .     A
C782   C993    1.426   .     S
C783   N808    1.372   .     A
C783   C837    1.443   .     S
C783   C1202   1.426   1_545 S
C784   N807    1.372   .     A
C784   C839    1.443   .     S
C784   C991    1.426   .     S
C785   C790    1.449   .     S
C785   O813    1.295   .     A
C785   O816    1.296   .     A
C786   O815    1.296   .     A
C786   O814    1.295   .     A
C786   C789    1.449   .     S
C787   C789    1.407   .     A
C787   C797    1.426   .     A
C787   C817    1.451   .     S
C788   C798    1.426   .     A
C788   C790    1.407   .     A
C788   C819    1.451   .     S
C789   C791    1.385   .     A
C790   C792    1.385   .     A
C791   C793    1.386   .     A
C791   H803    1.086   .     S
C792   H804    1.086   .     S
C792   C794    1.386   .     A
C793   C799    1.393   .     A
C793   C795    1.410   .     A
C794   C800    1.393   .     A
C794   C796    1.410   .     A
C795   C797    1.432   .     A
C795   C166    1.414   1_556 S
C796   C798    1.432   .     A
C799   H805    1.086   .     S
C799   C143    1.391   1_556 S
C800   H806    1.086   .     S
Cu801  Cu802   2.700   .     S
Cu801  O813    1.962   .     S
Cu801  O815    1.960   .     S
Cu801  O811    1.982   .     S
Cu801  N807    2.029   .     S
Cu801  O809    1.989   .     S
Cu802  N808    2.029   .     S
Cu802  O810    1.989   .     S
Cu802  O814    1.962   .     S
Cu802  O812    1.982   .     S
Cu802  O816    1.960   .     S
C817   N818    1.158   .     T
C819   N820    1.158   .     T
C821   N822    1.158   .     T
C823   N824    1.158   .     T
C825   N826    1.157   .     T
C827   N828    1.157   .     T
C829   N830    1.156   .     T
C831   N832    1.156   .     T
C833   N834    1.157   .     T
C835   N836    1.157   .     T
C837   N838    1.157   .     T
C839   N840    1.157   .     T
C841   O879    1.301   .     A
C841   O882    1.304   .     A
C841   C850    1.475   .     S
C842   O881    1.304   .     A
C842   O880    1.301   .     A
C842   C849    1.475   .     S
C843   C868    1.427   .     A
C843   C891    1.446   .     S
C844   C893    1.446   .     S
C844   C867    1.427   .     A
C844   C240    1.391   1_556 S
C845   C850    1.413   .     A
C845   C895    1.455   .     S
C845   C987    1.395   1_455 S
C846   C849    1.413   .     A
C846   C897    1.455   .     S
C846   C918    1.395   .     S
C847   C849    1.416   .     A
C847   C899    1.450   .     S
C847   C915    1.395   .     S
C848   C901    1.450   .     S
C848   C850    1.416   .     A
C848   C986    1.395   1_455 S
C851   N878    1.372   .     A
C851   C903    1.442   .     S
C852   C905    1.442   .     S
C852   N877    1.372   .     A
C852   C1063   1.426   .     S
C853   N878    1.372   .     A
C853   C907    1.443   .     S
C854   N877    1.372   .     A
C854   C909    1.443   .     S
C854   C1061   1.426   .     S
C855   C860    1.449   .     S
C855   O883    1.295   .     A
C855   O886    1.296   .     A
C856   O885    1.296   .     A
C856   O884    1.295   .     A
C856   C859    1.449   .     S
C857   C859    1.407   .     A
C857   C867    1.426   .     A
C857   C887    1.451   .     S
C858   C868    1.426   .     A
C858   C860    1.407   .     A
C858   C889    1.451   .     S
C859   C861    1.385   .     A
C860   C862    1.385   .     A
C861   C863    1.386   .     A
C861   H873    1.086   .     S
C862   H874    1.086   .     S
C862   C864    1.386   .     A
C863   C869    1.393   .     A
C863   C865    1.410   .     A
C864   C870    1.393   .     A
C864   C866    1.410   .     A
C865   C867    1.432   .     A
C865   C236    1.414   1_556 S
C866   C868    1.432   .     A
C869   H875    1.086   .     S
C869   C213    1.391   1_556 S
C870   H876    1.086   .     S
Cu871  Cu872   2.700   .     S
Cu871  O883    1.962   .     S
Cu871  O885    1.960   .     S
Cu871  O881    1.982   .     S
Cu871  N877    2.029   .     S
Cu871  O879    1.989   .     S
Cu872  N878    2.029   .     S
Cu872  O880    1.989   .     S
Cu872  O884    1.962   .     S
Cu872  O882    1.982   .     S
Cu872  O886    1.960   .     S
C887   N888    1.158   .     T
C889   N890    1.158   .     T
C891   N892    1.158   .     T
C893   N894    1.158   .     T
C895   N896    1.157   .     T
C897   N898    1.157   .     T
C899   N900    1.156   .     T
C901   N902    1.156   .     T
C903   N904    1.157   .     T
C905   N906    1.157   .     T
C907   N908    1.157   .     T
C909   N910    1.157   .     T
C911   O949    1.301   .     A
C911   O952    1.304   .     A
C911   C920    1.475   .     S
C912   O951    1.304   .     A
C912   O950    1.301   .     A
C912   C919    1.475   .     S
C913   C938    1.427   .     A
C913   C961    1.446   .     S
C914   C963    1.446   .     S
C914   C937    1.427   .     A
C914   C310    1.391   1_556 S
C915   C920    1.413   .     A
C915   C965    1.455   .     S
C916   C919    1.413   .     A
C916   C967    1.455   .     S
C916   C988    1.395   .     S
C917   C919    1.416   .     A
C917   C969    1.450   .     S
C917   C985    1.395   .     S
C918   C971    1.450   .     S
C918   C920    1.416   .     A
C921   N948    1.372   .     A
C921   C973    1.442   .     S
C922   C975    1.442   .     S
C922   N947    1.372   .     A
C922   C1133   1.426   .     S
C923   N948    1.372   .     A
C923   C977    1.443   .     S
C924   N947    1.372   .     A
C924   C979    1.443   .     S
C924   C1131   1.426   .     S
C925   C930    1.449   .     S
C925   O953    1.295   .     A
C925   O956    1.296   .     A
C926   O955    1.296   .     A
C926   O954    1.295   .     A
C926   C929    1.449   .     S
C927   C929    1.407   .     A
C927   C937    1.426   .     A
C927   C957    1.451   .     S
C928   C938    1.426   .     A
C928   C930    1.407   .     A
C928   C959    1.451   .     S
C929   C931    1.385   .     A
C930   C932    1.385   .     A
C931   C933    1.386   .     A
C931   H943    1.086   .     S
C932   H944    1.086   .     S
C932   C934    1.386   .     A
C933   C939    1.393   .     A
C933   C935    1.410   .     A
C934   C940    1.393   .     A
C934   C936    1.410   .     A
C935   C937    1.432   .     A
C935   C306    1.414   1_556 S
C936   C938    1.432   .     A
C939   H945    1.086   .     S
C939   C283    1.391   1_556 S
C940   H946    1.086   .     S
Cu941  Cu942   2.700   .     S
Cu941  O953    1.962   .     S
Cu941  O955    1.960   .     S
Cu941  O951    1.982   .     S
Cu941  N947    2.029   .     S
Cu941  O949    1.989   .     S
Cu942  N948    2.029   .     S
Cu942  O950    1.989   .     S
Cu942  O954    1.962   .     S
Cu942  O952    1.982   .     S
Cu942  O956    1.960   .     S
C957   N958    1.158   .     T
C959   N960    1.158   .     T
C961   N962    1.158   .     T
C963   N964    1.158   .     T
C965   N966    1.157   .     T
C967   N968    1.157   .     T
C969   N970    1.156   .     T
C971   N972    1.156   .     T
C973   N974    1.157   .     T
C975   N976    1.157   .     T
C977   N978    1.157   .     T
C979   N980    1.157   .     T
C981   O1019   1.301   .     A
C981   O1022   1.304   .     A
C981   C990    1.475   .     S
C982   O1021   1.304   .     A
C982   O1020   1.301   .     A
C982   C989    1.475   .     S
C983   C1008   1.427   .     A
C983   C1031   1.446   .     S
C984   C1033   1.446   .     S
C984   C1007   1.427   .     A
C984   C380    1.391   1_556 S
C985   C990    1.413   .     A
C985   C1035   1.455   .     S
C986   C989    1.413   .     A
C986   C1037   1.455   .     S
C986   C848    1.395   1_655 S
C987   C989    1.416   .     A
C987   C1039   1.450   .     S
C987   C845    1.395   1_655 S
C988   C1041   1.450   .     S
C988   C990    1.416   .     A
C991   N1018   1.372   .     A
C991   C1043   1.442   .     S
C992   C1045   1.442   .     S
C992   N1017   1.372   .     A
C992   C1203   1.426   .     S
C993   N1018   1.372   .     A
C993   C1047   1.443   .     S
C994   N1017   1.372   .     A
C994   C1049   1.443   .     S
C994   C1201   1.426   .     S
C995   C1000   1.449   .     S
C995   O1023   1.295   .     A
C995   O1026   1.296   .     A
C996   O1025   1.296   .     A
C996   O1024   1.295   .     A
C996   C999    1.449   .     S
C997   C999    1.407   .     A
C997   C1007   1.426   .     A
C997   C1027   1.451   .     S
C998   C1008   1.426   .     A
C998   C1000   1.407   .     A
C998   C1029   1.451   .     S
C999   C1001   1.385   .     A
C1000  C1002   1.385   .     A
C1001  C1003   1.386   .     A
C1001  H1013   1.086   .     S
C1002  H1014   1.086   .     S
C1002  C1004   1.386   .     A
C1003  C1009   1.393   .     A
C1003  C1005   1.410   .     A
C1004  C1010   1.393   .     A
C1004  C1006   1.410   .     A
C1005  C1007   1.432   .     A
C1005  C376    1.414   1_556 S
C1006  C1008   1.432   .     A
C1009  H1015   1.086   .     S
C1009  C353    1.391   1_556 S
C1010  H1016   1.086   .     S
Cu1011 Cu1012  2.700   .     S
Cu1011 O1023   1.962   .     S
Cu1011 O1025   1.960   .     S
Cu1011 O1021   1.982   .     S
Cu1011 N1017   2.029   .     S
Cu1011 O1019   1.989   .     S
Cu1012 N1018   2.029   .     S
Cu1012 O1020   1.989   .     S
Cu1012 O1024   1.962   .     S
Cu1012 O1022   1.982   .     S
Cu1012 O1026   1.960   .     S
C1027  N1028   1.158   .     T
C1029  N1030   1.158   .     T
C1031  N1032   1.158   .     T
C1033  N1034   1.158   .     T
C1035  N1036   1.157   .     T
C1037  N1038   1.157   .     T
C1039  N1040   1.156   .     T
C1041  N1042   1.156   .     T
C1043  N1044   1.157   .     T
C1045  N1046   1.157   .     T
C1047  N1048   1.157   .     T
C1049  N1050   1.157   .     T
C1051  O1089   1.301   .     A
C1051  O1092   1.304   .     A
C1051  C1060   1.475   .     S
C1052  O1091   1.304   .     A
C1052  O1090   1.301   .     A
C1052  C1059   1.475   .     S
C1053  C1078   1.427   .     A
C1053  C1101   1.446   .     S
C1054  C1103   1.446   .     S
C1054  C1077   1.427   .     A
C1054  C450    1.391   1_556 S
C1055  C1060   1.413   .     A
C1055  C1105   1.455   .     S
C1055  C1197   1.395   1_455 S
C1056  C1059   1.413   .     A
C1056  C1107   1.455   .     S
C1056  C1128   1.395   .     S
C1057  C1059   1.416   .     A
C1057  C1109   1.450   .     S
C1057  C1125   1.395   .     S
C1058  C1111   1.450   .     S
C1058  C1060   1.416   .     A
C1058  C1196   1.395   1_455 S
C1061  N1088   1.372   .     A
C1061  C1113   1.442   .     S
C1062  C1115   1.442   .     S
C1062  N1087   1.372   .     A
C1062  C643    1.426   1_565 S
C1063  N1088   1.372   .     A
C1063  C1117   1.443   .     S
C1064  N1087   1.372   .     A
C1064  C1119   1.443   .     S
C1064  C641    1.426   1_565 S
C1065  C1070   1.449   .     S
C1065  O1093   1.295   .     A
C1065  O1096   1.296   .     A
C1066  O1095   1.296   .     A
C1066  O1094   1.295   .     A
C1066  C1069   1.449   .     S
C1067  C1069   1.407   .     A
C1067  C1077   1.426   .     A
C1067  C1097   1.451   .     S
C1068  C1078   1.426   .     A
C1068  C1070   1.407   .     A
C1068  C1099   1.451   .     S
C1069  C1071   1.385   .     A
C1070  C1072   1.385   .     A
C1071  C1073   1.386   .     A
C1071  H1083   1.086   .     S
C1072  H1084   1.086   .     S
C1072  C1074   1.386   .     A
C1073  C1079   1.393   .     A
C1073  C1075   1.410   .     A
C1074  C1080   1.393   .     A
C1074  C1076   1.410   .     A
C1075  C1077   1.432   .     A
C1075  C446    1.414   1_556 S
C1076  C1078   1.432   .     A
C1079  H1085   1.086   .     S
C1079  C423    1.391   1_556 S
C1080  H1086   1.086   .     S
Cu1081 Cu1082  2.700   .     S
Cu1081 O1093   1.962   .     S
Cu1081 O1095   1.960   .     S
Cu1081 O1091   1.982   .     S
Cu1081 N1087   2.029   .     S
Cu1081 O1089   1.989   .     S
Cu1082 N1088   2.029   .     S
Cu1082 O1090   1.989   .     S
Cu1082 O1094   1.962   .     S
Cu1082 O1092   1.982   .     S
Cu1082 O1096   1.960   .     S
C1097  N1098   1.158   .     T
C1099  N1100   1.158   .     T
C1101  N1102   1.158   .     T
C1103  N1104   1.158   .     T
C1105  N1106   1.157   .     T
C1107  N1108   1.157   .     T
C1109  N1110   1.156   .     T
C1111  N1112   1.156   .     T
C1113  N1114   1.157   .     T
C1115  N1116   1.157   .     T
C1117  N1118   1.157   .     T
C1119  N1120   1.157   .     T
C1121  O1159   1.301   .     A
C1121  O1162   1.304   .     A
C1121  C1130   1.475   .     S
C1122  O1161   1.304   .     A
C1122  O1160   1.301   .     A
C1122  C1129   1.475   .     S
C1123  C1148   1.427   .     A
C1123  C1171   1.446   .     S
C1124  C1173   1.446   .     S
C1124  C1147   1.427   .     A
C1124  C520    1.391   1_556 S
C1125  C1130   1.413   .     A
C1125  C1175   1.455   .     S
C1126  C1129   1.413   .     A
C1126  C1177   1.455   .     S
C1126  C1198   1.395   .     S
C1127  C1129   1.416   .     A
C1127  C1179   1.450   .     S
C1127  C1195   1.395   .     S
C1128  C1181   1.450   .     S
C1128  C1130   1.416   .     A
C1131  N1158   1.372   .     A
C1131  C1183   1.442   .     S
C1132  C1185   1.442   .     S
C1132  N1157   1.372   .     A
C1132  C713    1.426   1_565 S
C1133  N1158   1.372   .     A
C1133  C1187   1.443   .     S
C1134  N1157   1.372   .     A
C1134  C1189   1.443   .     S
C1134  C711    1.426   1_565 S
C1135  C1140   1.449   .     S
C1135  O1163   1.295   .     A
C1135  O1166   1.296   .     A
C1136  O1165   1.296   .     A
C1136  O1164   1.295   .     A
C1136  C1139   1.449   .     S
C1137  C1139   1.407   .     A
C1137  C1147   1.426   .     A
C1137  C1167   1.451   .     S
C1138  C1148   1.426   .     A
C1138  C1140   1.407   .     A
C1138  C1169   1.451   .     S
C1139  C1141   1.385   .     A
C1140  C1142   1.385   .     A
C1141  C1143   1.386   .     A
C1141  H1153   1.086   .     S
C1142  H1154   1.086   .     S
C1142  C1144   1.386   .     A
C1143  C1149   1.393   .     A
C1143  C1145   1.410   .     A
C1144  C1150   1.393   .     A
C1144  C1146   1.410   .     A
C1145  C1147   1.432   .     A
C1145  C516    1.414   1_556 S
C1146  C1148   1.432   .     A
C1149  H1155   1.086   .     S
C1149  C493    1.391   1_556 S
C1150  H1156   1.086   .     S
Cu1151 Cu1152  2.700   .     S
Cu1151 O1163   1.962   .     S
Cu1151 O1165   1.960   .     S
Cu1151 O1161   1.982   .     S
Cu1151 N1157   2.029   .     S
Cu1151 O1159   1.989   .     S
Cu1152 N1158   2.029   .     S
Cu1152 O1160   1.989   .     S
Cu1152 O1164   1.962   .     S
Cu1152 O1162   1.982   .     S
Cu1152 O1166   1.960   .     S
C1167  N1168   1.158   .     T
C1169  N1170   1.158   .     T
C1171  N1172   1.158   .     T
C1173  N1174   1.158   .     T
C1175  N1176   1.157   .     T
C1177  N1178   1.157   .     T
C1179  N1180   1.156   .     T
C1181  N1182   1.156   .     T
C1183  N1184   1.157   .     T
C1185  N1186   1.157   .     T
C1187  N1188   1.157   .     T
C1189  N1190   1.157   .     T
C1191  O1229   1.301   .     A
C1191  O1232   1.304   .     A
C1191  C1200   1.475   .     S
C1192  O1231   1.304   .     A
C1192  O1230   1.301   .     A
C1192  C1199   1.475   .     S
C1193  C1218   1.427   .     A
C1193  C1241   1.446   .     S
C1194  C1243   1.446   .     S
C1194  C1217   1.427   .     A
C1194  C590    1.391   1_556 S
C1195  C1200   1.413   .     A
C1195  C1245   1.455   .     S
C1196  C1199   1.413   .     A
C1196  C1247   1.455   .     S
C1196  C1058   1.395   1_655 S
C1197  C1199   1.416   .     A
C1197  C1249   1.450   .     S
C1197  C1055   1.395   1_655 S
C1198  C1251   1.450   .     S
C1198  C1200   1.416   .     A
C1201  N1228   1.372   .     A
C1201  C1253   1.442   .     S
C1202  C1255   1.442   .     S
C1202  N1227   1.372   .     A
C1202  C783    1.426   1_565 S
C1203  N1228   1.372   .     A
C1203  C1257   1.443   .     S
C1204  N1227   1.372   .     A
C1204  C1259   1.443   .     S
C1204  C781    1.426   1_565 S
C1205  C1210   1.449   .     S
C1205  O1233   1.295   .     A
C1205  O1236   1.296   .     A
C1206  O1235   1.296   .     A
C1206  O1234   1.295   .     A
C1206  C1209   1.449   .     S
C1207  C1209   1.407   .     A
C1207  C1217   1.426   .     A
C1207  C1237   1.451   .     S
C1208  C1218   1.426   .     A
C1208  C1210   1.407   .     A
C1208  C1239   1.451   .     S
C1209  C1211   1.385   .     A
C1210  C1212   1.385   .     A
C1211  C1213   1.386   .     A
C1211  H1223   1.086   .     S
C1212  H1224   1.086   .     S
C1212  C1214   1.386   .     A
C1213  C1219   1.393   .     A
C1213  C1215   1.410   .     A
C1214  C1220   1.393   .     A
C1214  C1216   1.410   .     A
C1215  C1217   1.432   .     A
C1215  C586    1.414   1_556 S
C1216  C1218   1.432   .     A
C1219  H1225   1.086   .     S
C1219  C563    1.391   1_556 S
C1220  H1226   1.086   .     S
Cu1221 Cu1222  2.700   .     S
Cu1221 O1233   1.962   .     S
Cu1221 O1235   1.960   .     S
Cu1221 O1231   1.982   .     S
Cu1221 N1227   2.029   .     S
Cu1221 O1229   1.989   .     S
Cu1222 N1228   2.029   .     S
Cu1222 O1230   1.989   .     S
Cu1222 O1234   1.962   .     S
Cu1222 O1232   1.982   .     S
Cu1222 O1236   1.960   .     S
C1237  N1238   1.158   .     T
C1239  N1240   1.158   .     T
C1241  N1242   1.158   .     T
C1243  N1244   1.158   .     T
C1245  N1246   1.157   .     T
C1247  N1248   1.157   .     T
C1249  N1250   1.156   .     T
C1251  N1252   1.156   .     T
C1253  N1254   1.157   .     T
C1255  N1256   1.157   .     T
C1257  N1258   1.157   .     T
C1259  N1260   1.157   .     T
