data_str_m2_o10_o16_pcu_sym.162
_audit_creation_date              2020-01-03
_audit_creation_method            'Materials Studio'
_symmetry_space_group_name_H-M    'P1'
_symmetry_Int_Tables_number       1
_symmetry_cell_setting            triclinic
loop_
_symmetry_equiv_pos_as_xyz
  x,y,z
_cell_length_a                    22.2942
_cell_length_b                    26.0340
_cell_length_c                    26.9597
_cell_angle_alpha                 94.5163
_cell_angle_beta                  78.7015
_cell_angle_gamma                 102.6356
loop_
_atom_site_label
_atom_site_type_symbol
_atom_site_fract_x
_atom_site_fract_y
_atom_site_fract_z
_atom_site_U_iso_or_equiv
_atom_site_adp_type
_atom_site_occupancy
C1     C     0.17962   0.26633   0.25658   0.00000  Uiso   1.00
C2     C     0.13885   0.15824   0.48763   0.00000  Uiso   1.00
C3     C     0.15491   0.17438   0.43685   0.00000  Uiso   1.00
C4     C     0.17921   0.18135   0.02193   0.00000  Uiso   1.00
C5     C     0.21863   0.23124   0.01019   0.00000  Uiso   1.00
C6     C     0.22751   0.24983   0.46165   0.00000  Uiso   1.00
C7     C     0.20923   0.21384   0.42396   0.00000  Uiso   1.00
C8     C     0.18506   0.15608   0.06500   0.00000  Uiso   1.00
C9     C     0.25318   0.23750   0.09012   0.00000  Uiso   1.00
C10    C     0.11569   0.15183   0.40149   0.00000  Uiso   1.00
C11    C     0.18199   0.32128   0.27012   0.00000  Uiso   1.00
C12    C     0.13378   0.16250   0.34698   0.00000  Uiso   1.00
C13    C     0.14416   0.01088   0.25026   0.00000  Uiso   1.00
C14    C     0.15115   0.06673   0.25074   0.00000  Uiso   1.00
C15    C     0.19985   0.17144   0.15354   0.00000  Uiso   1.00
C16    C     0.25467   0.25880   0.04429   0.00000  Uiso   1.00
C17    C     0.21793   0.18634   0.10099   0.00000  Uiso   1.00
C18    C     0.06084   0.11458   0.41789   0.00000  Uiso   1.00
C19    C     0.04368   0.10082   0.46834   0.00000  Uiso   1.00
C20    C     0.08199   0.12254   0.00298   0.00000  Uiso   1.00
Cu21   Cu    0.10710   0.16105   0.24436   0.00000  Uiso   1.00
Cu22   Cu    0.22623   0.17228   0.25565   0.00000  Uiso   1.00
H23    H     0.11063   0.32160   0.22825   0.00000  Uiso   1.00
H24    H     0.00624   0.21134   0.28382   0.00000  Uiso   1.00
H25    H     0.32799   0.12364   0.21390   0.00000  Uiso   1.00
H26    H     0.26346   0.28458   0.45095   0.00000  Uiso   1.00
H27    H     0.28422   0.29710   0.03525   0.00000  Uiso   1.00
H28    H     0.03121   0.09571   0.39144   0.00000  Uiso   1.00
H29    H     0.06564   0.11273   0.04204   0.00000  Uiso   1.00
H30    H     0.00036   0.07305   0.48069   0.00000  Uiso   1.00
N31    N     0.31574   0.18074   0.26416   0.00000  Uiso   1.00
N32    N     0.01759   0.15259   0.23584   0.00000  Uiso   1.00
O33    O     0.12797   0.23807   0.24633   0.00000  Uiso   1.00
O34    O     0.22858   0.24755   0.25587   0.00000  Uiso   1.00
O35    O     0.09181   0.15960   0.31840   0.00000  Uiso   1.00
O36    O     0.19242   0.16908   0.32793   0.00000  Uiso   1.00
O37    O     0.10476   0.08578   0.24414   0.00000  Uiso   1.00
O38    O     0.20536   0.09526   0.25367   0.00000  Uiso   1.00
O39    O     0.14092   0.16425   0.17207   0.00000  Uiso   1.00
O40    O     0.24152   0.17373   0.18161   0.00000  Uiso   1.00
I41    I     0.30561   0.28643   0.14033   0.00000  Uiso   1.00
C42    C     0.17497   0.09601   0.06495   0.00000  Uiso   1.00
C43    C     0.12229   0.06939   0.10609   0.00000  Uiso   1.00
H44    H     0.10371   0.02853   0.09307   0.00000  Uiso   1.00
H45    H     0.14058   0.06674   0.14099   0.00000  Uiso   1.00
H46    H     0.08331   0.09071   0.11529   0.00000  Uiso   1.00
H47    H     0.16673   0.07801   0.02753   0.00000  Uiso   1.00
H48    H     0.21924   0.08547   0.06958   0.00000  Uiso   1.00
I49    I     0.29168   0.18805   0.38951   0.00000  Uiso   1.00
C50    C     0.22386   0.01537   0.30735   0.00000  Uiso   1.00
C51    C     0.21791   0.31604   0.35340   0.00000  Uiso   1.00
H52    H     0.16793   0.30174   0.37035   0.00000  Uiso   1.00
H53    H     0.24095   0.28212   0.34281   0.00000  Uiso   1.00
H54    H     0.24155   0.00739   0.38236   0.00000  Uiso   1.00
H55    H     0.27340   0.02393   0.28752   0.00000  Uiso   1.00
H56    H     0.21109   0.05282   0.32354   0.00000  Uiso   1.00
C57    C     0.51295   0.26633   0.25658   0.00000  Uiso   1.00
C58    C     0.47219   0.15824   0.48763   0.00000  Uiso   1.00
C59    C     0.48825   0.17438   0.43685   0.00000  Uiso   1.00
C60    C     0.51255   0.18135   0.02193   0.00000  Uiso   1.00
C61    C     0.55196   0.23124   0.01019   0.00000  Uiso   1.00
C62    C     0.56084   0.24983   0.46165   0.00000  Uiso   1.00
C63    C     0.54257   0.21384   0.42396   0.00000  Uiso   1.00
C64    C     0.51840   0.15608   0.06500   0.00000  Uiso   1.00
C65    C     0.58651   0.23750   0.09012   0.00000  Uiso   1.00
C66    C     0.44902   0.15183   0.40149   0.00000  Uiso   1.00
C67    C     0.51532   0.32128   0.27012   0.00000  Uiso   1.00
C68    C     0.46711   0.16250   0.34698   0.00000  Uiso   1.00
C69    C     0.47749   0.01088   0.25026   0.00000  Uiso   1.00
C70    C     0.48448   0.06673   0.25074   0.00000  Uiso   1.00
C71    C     0.53318   0.17144   0.15354   0.00000  Uiso   1.00
C72    C     0.58800   0.25880   0.04429   0.00000  Uiso   1.00
C73    C     0.55126   0.18634   0.10099   0.00000  Uiso   1.00
C74    C     0.39417   0.11458   0.41789   0.00000  Uiso   1.00
C75    C     0.37701   0.10082   0.46834   0.00000  Uiso   1.00
C76    C     0.41533   0.12254   0.00298   0.00000  Uiso   1.00
Cu77   Cu    0.44043   0.16105   0.24436   0.00000  Uiso   1.00
Cu78   Cu    0.55957   0.17228   0.25565   0.00000  Uiso   1.00
H79    H     0.44396   0.32160   0.22825   0.00000  Uiso   1.00
H80    H     0.33957   0.21134   0.28382   0.00000  Uiso   1.00
H81    H     0.66133   0.12364   0.21390   0.00000  Uiso   1.00
H82    H     0.59680   0.28458   0.45095   0.00000  Uiso   1.00
H83    H     0.61755   0.29710   0.03525   0.00000  Uiso   1.00
H84    H     0.36455   0.09571   0.39144   0.00000  Uiso   1.00
H85    H     0.39897   0.11273   0.04204   0.00000  Uiso   1.00
H86    H     0.33369   0.07305   0.48069   0.00000  Uiso   1.00
N87    N     0.64908   0.18074   0.26416   0.00000  Uiso   1.00
N88    N     0.35092   0.15259   0.23584   0.00000  Uiso   1.00
O89    O     0.46131   0.23807   0.24633   0.00000  Uiso   1.00
O90    O     0.56191   0.24755   0.25587   0.00000  Uiso   1.00
O91    O     0.42515   0.15960   0.31840   0.00000  Uiso   1.00
O92    O     0.52575   0.16908   0.32793   0.00000  Uiso   1.00
O93    O     0.43809   0.08578   0.24414   0.00000  Uiso   1.00
O94    O     0.53869   0.09526   0.25367   0.00000  Uiso   1.00
O95    O     0.47425   0.16425   0.17207   0.00000  Uiso   1.00
O96    O     0.57485   0.17373   0.18161   0.00000  Uiso   1.00
I97    I     0.63894   0.28643   0.14033   0.00000  Uiso   1.00
C98    C     0.50830   0.09601   0.06495   0.00000  Uiso   1.00
C99    C     0.45562   0.06939   0.10609   0.00000  Uiso   1.00
H100   H     0.43704   0.02853   0.09307   0.00000  Uiso   1.00
H101   H     0.47391   0.06674   0.14099   0.00000  Uiso   1.00
H102   H     0.41665   0.09071   0.11529   0.00000  Uiso   1.00
H103   H     0.50006   0.07801   0.02753   0.00000  Uiso   1.00
H104   H     0.55258   0.08547   0.06958   0.00000  Uiso   1.00
I105   I     0.62501   0.18805   0.38951   0.00000  Uiso   1.00
C106   C     0.55719   0.01537   0.30735   0.00000  Uiso   1.00
C107   C     0.55125   0.31604   0.35340   0.00000  Uiso   1.00
H108   H     0.50126   0.30174   0.37035   0.00000  Uiso   1.00
H109   H     0.57428   0.28212   0.34281   0.00000  Uiso   1.00
H110   H     0.57489   0.00739   0.38236   0.00000  Uiso   1.00
H111   H     0.60673   0.02393   0.28752   0.00000  Uiso   1.00
H112   H     0.54442   0.05282   0.32354   0.00000  Uiso   1.00
C113   C     0.84628   0.26633   0.25658   0.00000  Uiso   1.00
C114   C     0.80552   0.15824   0.48763   0.00000  Uiso   1.00
C115   C     0.82158   0.17438   0.43685   0.00000  Uiso   1.00
C116   C     0.84588   0.18135   0.02193   0.00000  Uiso   1.00
C117   C     0.88530   0.23124   0.01019   0.00000  Uiso   1.00
C118   C     0.89418   0.24983   0.46165   0.00000  Uiso   1.00
C119   C     0.87590   0.21384   0.42396   0.00000  Uiso   1.00
C120   C     0.85173   0.15608   0.06500   0.00000  Uiso   1.00
C121   C     0.91985   0.23750   0.09012   0.00000  Uiso   1.00
C122   C     0.78235   0.15183   0.40149   0.00000  Uiso   1.00
C123   C     0.84866   0.32128   0.27012   0.00000  Uiso   1.00
C124   C     0.80044   0.16250   0.34698   0.00000  Uiso   1.00
C125   C     0.81083   0.01088   0.25026   0.00000  Uiso   1.00
C126   C     0.81782   0.06673   0.25074   0.00000  Uiso   1.00
C127   C     0.86651   0.17144   0.15354   0.00000  Uiso   1.00
C128   C     0.92134   0.25880   0.04429   0.00000  Uiso   1.00
C129   C     0.88460   0.18634   0.10099   0.00000  Uiso   1.00
C130   C     0.72751   0.11458   0.41789   0.00000  Uiso   1.00
C131   C     0.71034   0.10082   0.46834   0.00000  Uiso   1.00
C132   C     0.74866   0.12254   0.00298   0.00000  Uiso   1.00
Cu133  Cu    0.77377   0.16105   0.24436   0.00000  Uiso   1.00
Cu134  Cu    0.89290   0.17228   0.25565   0.00000  Uiso   1.00
H135   H     0.77729   0.32160   0.22825   0.00000  Uiso   1.00
H136   H     0.67291   0.21134   0.28382   0.00000  Uiso   1.00
H137   H     0.99466   0.12364   0.21390   0.00000  Uiso   1.00
H138   H     0.93013   0.28458   0.45095   0.00000  Uiso   1.00
H139   H     0.95089   0.29710   0.03525   0.00000  Uiso   1.00
H140   H     0.69788   0.09571   0.39144   0.00000  Uiso   1.00
H141   H     0.73231   0.11273   0.04204   0.00000  Uiso   1.00
H142   H     0.66702   0.07305   0.48069   0.00000  Uiso   1.00
N143   N     0.98241   0.18074   0.26416   0.00000  Uiso   1.00
N144   N     0.68426   0.15259   0.23584   0.00000  Uiso   1.00
O145   O     0.79464   0.23807   0.24633   0.00000  Uiso   1.00
O146   O     0.89524   0.24755   0.25587   0.00000  Uiso   1.00
O147   O     0.75848   0.15960   0.31840   0.00000  Uiso   1.00
O148   O     0.85908   0.16908   0.32793   0.00000  Uiso   1.00
O149   O     0.77142   0.08578   0.24414   0.00000  Uiso   1.00
O150   O     0.87203   0.09526   0.25367   0.00000  Uiso   1.00
O151   O     0.80758   0.16425   0.17207   0.00000  Uiso   1.00
O152   O     0.90819   0.17373   0.18161   0.00000  Uiso   1.00
I153   I     0.97227   0.28643   0.14033   0.00000  Uiso   1.00
C154   C     0.84164   0.09601   0.06495   0.00000  Uiso   1.00
C155   C     0.78896   0.06939   0.10609   0.00000  Uiso   1.00
H156   H     0.77038   0.02853   0.09307   0.00000  Uiso   1.00
H157   H     0.80724   0.06674   0.14099   0.00000  Uiso   1.00
H158   H     0.74998   0.09071   0.11529   0.00000  Uiso   1.00
H159   H     0.83339   0.07801   0.02753   0.00000  Uiso   1.00
H160   H     0.88591   0.08547   0.06958   0.00000  Uiso   1.00
I161   I     0.95835   0.18805   0.38951   0.00000  Uiso   1.00
C162   C     0.89052   0.01537   0.30735   0.00000  Uiso   1.00
C163   C     0.88458   0.31604   0.35340   0.00000  Uiso   1.00
H164   H     0.83460   0.30174   0.37035   0.00000  Uiso   1.00
H165   H     0.90762   0.28212   0.34281   0.00000  Uiso   1.00
H166   H     0.90822   0.00739   0.38236   0.00000  Uiso   1.00
H167   H     0.94006   0.02393   0.28752   0.00000  Uiso   1.00
H168   H     0.87775   0.05282   0.32354   0.00000  Uiso   1.00
C169   C     0.17962   0.59967   0.25658   0.00000  Uiso   1.00
C170   C     0.13885   0.49158   0.48763   0.00000  Uiso   1.00
C171   C     0.15491   0.50771   0.43685   0.00000  Uiso   1.00
C172   C     0.17921   0.51469   0.02193   0.00000  Uiso   1.00
C173   C     0.21863   0.56457   0.01019   0.00000  Uiso   1.00
C174   C     0.22751   0.58317   0.46165   0.00000  Uiso   1.00
C175   C     0.20923   0.54717   0.42396   0.00000  Uiso   1.00
C176   C     0.18506   0.48942   0.06500   0.00000  Uiso   1.00
C177   C     0.25318   0.57083   0.09012   0.00000  Uiso   1.00
C178   C     0.11569   0.48517   0.40149   0.00000  Uiso   1.00
C179   C     0.18199   0.65461   0.27012   0.00000  Uiso   1.00
C180   C     0.13378   0.49584   0.34698   0.00000  Uiso   1.00
C181   C     0.14416   0.34422   0.25026   0.00000  Uiso   1.00
C182   C     0.15115   0.40006   0.25074   0.00000  Uiso   1.00
C183   C     0.19985   0.50478   0.15354   0.00000  Uiso   1.00
C184   C     0.25467   0.59213   0.04429   0.00000  Uiso   1.00
C185   C     0.21793   0.51967   0.10099   0.00000  Uiso   1.00
C186   C     0.06084   0.44791   0.41789   0.00000  Uiso   1.00
C187   C     0.04368   0.43415   0.46834   0.00000  Uiso   1.00
C188   C     0.08199   0.45587   0.00298   0.00000  Uiso   1.00
Cu189  Cu    0.10710   0.49439   0.24436   0.00000  Uiso   1.00
Cu190  Cu    0.22623   0.50561   0.25565   0.00000  Uiso   1.00
H191   H     0.11063   0.65493   0.22825   0.00000  Uiso   1.00
H192   H     0.00624   0.54468   0.28382   0.00000  Uiso   1.00
H193   H     0.32799   0.45697   0.21390   0.00000  Uiso   1.00
H194   H     0.26346   0.61791   0.45095   0.00000  Uiso   1.00
H195   H     0.28422   0.63044   0.03525   0.00000  Uiso   1.00
H196   H     0.03121   0.42904   0.39144   0.00000  Uiso   1.00
H197   H     0.06564   0.44606   0.04204   0.00000  Uiso   1.00
H198   H     0.00036   0.40638   0.48069   0.00000  Uiso   1.00
N199   N     0.31574   0.51407   0.26416   0.00000  Uiso   1.00
N200   N     0.01759   0.48593   0.23584   0.00000  Uiso   1.00
O201   O     0.12797   0.57141   0.24633   0.00000  Uiso   1.00
O202   O     0.22858   0.58089   0.25587   0.00000  Uiso   1.00
O203   O     0.09181   0.49293   0.31840   0.00000  Uiso   1.00
O204   O     0.19242   0.50241   0.32793   0.00000  Uiso   1.00
O205   O     0.10476   0.41911   0.24414   0.00000  Uiso   1.00
O206   O     0.20536   0.42859   0.25367   0.00000  Uiso   1.00
O207   O     0.14092   0.49759   0.17207   0.00000  Uiso   1.00
O208   O     0.24152   0.50707   0.18161   0.00000  Uiso   1.00
I209   I     0.30561   0.61976   0.14033   0.00000  Uiso   1.00
C210   C     0.17497   0.42935   0.06495   0.00000  Uiso   1.00
C211   C     0.12229   0.40273   0.10609   0.00000  Uiso   1.00
H212   H     0.10371   0.36186   0.09307   0.00000  Uiso   1.00
H213   H     0.14058   0.40007   0.14099   0.00000  Uiso   1.00
H214   H     0.08331   0.42404   0.11529   0.00000  Uiso   1.00
H215   H     0.16673   0.41134   0.02753   0.00000  Uiso   1.00
H216   H     0.21924   0.41881   0.06958   0.00000  Uiso   1.00
I217   I     0.29168   0.52138   0.38951   0.00000  Uiso   1.00
C218   C     0.22386   0.34871   0.30735   0.00000  Uiso   1.00
C219   C     0.21791   0.64938   0.35340   0.00000  Uiso   1.00
H220   H     0.16793   0.63508   0.37035   0.00000  Uiso   1.00
H221   H     0.24095   0.61545   0.34281   0.00000  Uiso   1.00
H222   H     0.24155   0.34072   0.38236   0.00000  Uiso   1.00
H223   H     0.27340   0.35726   0.28752   0.00000  Uiso   1.00
H224   H     0.21109   0.38616   0.32354   0.00000  Uiso   1.00
C225   C     0.51295   0.59967   0.25658   0.00000  Uiso   1.00
C226   C     0.47219   0.49158   0.48763   0.00000  Uiso   1.00
C227   C     0.48825   0.50771   0.43685   0.00000  Uiso   1.00
C228   C     0.51255   0.51469   0.02193   0.00000  Uiso   1.00
C229   C     0.55196   0.56457   0.01019   0.00000  Uiso   1.00
C230   C     0.56084   0.58317   0.46165   0.00000  Uiso   1.00
C231   C     0.54257   0.54717   0.42396   0.00000  Uiso   1.00
C232   C     0.51840   0.48942   0.06500   0.00000  Uiso   1.00
C233   C     0.58651   0.57083   0.09012   0.00000  Uiso   1.00
C234   C     0.44902   0.48517   0.40149   0.00000  Uiso   1.00
C235   C     0.51532   0.65461   0.27012   0.00000  Uiso   1.00
C236   C     0.46711   0.49584   0.34698   0.00000  Uiso   1.00
C237   C     0.47749   0.34422   0.25026   0.00000  Uiso   1.00
C238   C     0.48448   0.40006   0.25074   0.00000  Uiso   1.00
C239   C     0.53318   0.50478   0.15354   0.00000  Uiso   1.00
C240   C     0.58800   0.59213   0.04429   0.00000  Uiso   1.00
C241   C     0.55126   0.51967   0.10099   0.00000  Uiso   1.00
C242   C     0.39417   0.44791   0.41789   0.00000  Uiso   1.00
C243   C     0.37701   0.43415   0.46834   0.00000  Uiso   1.00
C244   C     0.41533   0.45587   0.00298   0.00000  Uiso   1.00
Cu245  Cu    0.44043   0.49439   0.24436   0.00000  Uiso   1.00
Cu246  Cu    0.55957   0.50561   0.25565   0.00000  Uiso   1.00
H247   H     0.44396   0.65493   0.22825   0.00000  Uiso   1.00
H248   H     0.33957   0.54468   0.28382   0.00000  Uiso   1.00
H249   H     0.66133   0.45697   0.21390   0.00000  Uiso   1.00
H250   H     0.59680   0.61791   0.45095   0.00000  Uiso   1.00
H251   H     0.61755   0.63044   0.03525   0.00000  Uiso   1.00
H252   H     0.36455   0.42904   0.39144   0.00000  Uiso   1.00
H253   H     0.39897   0.44606   0.04204   0.00000  Uiso   1.00
H254   H     0.33369   0.40638   0.48069   0.00000  Uiso   1.00
N255   N     0.64908   0.51407   0.26416   0.00000  Uiso   1.00
N256   N     0.35092   0.48593   0.23584   0.00000  Uiso   1.00
O257   O     0.46131   0.57141   0.24633   0.00000  Uiso   1.00
O258   O     0.56191   0.58089   0.25587   0.00000  Uiso   1.00
O259   O     0.42515   0.49293   0.31840   0.00000  Uiso   1.00
O260   O     0.52575   0.50241   0.32793   0.00000  Uiso   1.00
O261   O     0.43809   0.41911   0.24414   0.00000  Uiso   1.00
O262   O     0.53869   0.42859   0.25367   0.00000  Uiso   1.00
O263   O     0.47425   0.49759   0.17207   0.00000  Uiso   1.00
O264   O     0.57485   0.50707   0.18161   0.00000  Uiso   1.00
I265   I     0.63894   0.61976   0.14033   0.00000  Uiso   1.00
C266   C     0.50830   0.42935   0.06495   0.00000  Uiso   1.00
C267   C     0.45562   0.40273   0.10609   0.00000  Uiso   1.00
H268   H     0.43704   0.36186   0.09307   0.00000  Uiso   1.00
H269   H     0.47391   0.40007   0.14099   0.00000  Uiso   1.00
H270   H     0.41665   0.42404   0.11529   0.00000  Uiso   1.00
H271   H     0.50006   0.41134   0.02753   0.00000  Uiso   1.00
H272   H     0.55258   0.41881   0.06958   0.00000  Uiso   1.00
I273   I     0.62501   0.52138   0.38951   0.00000  Uiso   1.00
C274   C     0.55719   0.34871   0.30735   0.00000  Uiso   1.00
C275   C     0.55125   0.64938   0.35340   0.00000  Uiso   1.00
H276   H     0.50126   0.63508   0.37035   0.00000  Uiso   1.00
H277   H     0.57428   0.61545   0.34281   0.00000  Uiso   1.00
H278   H     0.57489   0.34072   0.38236   0.00000  Uiso   1.00
H279   H     0.60673   0.35726   0.28752   0.00000  Uiso   1.00
H280   H     0.54442   0.38616   0.32354   0.00000  Uiso   1.00
C281   C     0.84628   0.59967   0.25658   0.00000  Uiso   1.00
C282   C     0.80552   0.49158   0.48763   0.00000  Uiso   1.00
C283   C     0.82158   0.50771   0.43685   0.00000  Uiso   1.00
C284   C     0.84588   0.51469   0.02193   0.00000  Uiso   1.00
C285   C     0.88530   0.56457   0.01019   0.00000  Uiso   1.00
C286   C     0.89418   0.58317   0.46165   0.00000  Uiso   1.00
C287   C     0.87590   0.54717   0.42396   0.00000  Uiso   1.00
C288   C     0.85173   0.48942   0.06500   0.00000  Uiso   1.00
C289   C     0.91985   0.57083   0.09012   0.00000  Uiso   1.00
C290   C     0.78235   0.48517   0.40149   0.00000  Uiso   1.00
C291   C     0.84866   0.65461   0.27012   0.00000  Uiso   1.00
C292   C     0.80044   0.49584   0.34698   0.00000  Uiso   1.00
C293   C     0.81083   0.34422   0.25026   0.00000  Uiso   1.00
C294   C     0.81782   0.40006   0.25074   0.00000  Uiso   1.00
C295   C     0.86651   0.50478   0.15354   0.00000  Uiso   1.00
C296   C     0.92134   0.59213   0.04429   0.00000  Uiso   1.00
C297   C     0.88460   0.51967   0.10099   0.00000  Uiso   1.00
C298   C     0.72751   0.44791   0.41789   0.00000  Uiso   1.00
C299   C     0.71034   0.43415   0.46834   0.00000  Uiso   1.00
C300   C     0.74866   0.45587   0.00298   0.00000  Uiso   1.00
Cu301  Cu    0.77377   0.49439   0.24436   0.00000  Uiso   1.00
Cu302  Cu    0.89290   0.50561   0.25565   0.00000  Uiso   1.00
H303   H     0.77729   0.65493   0.22825   0.00000  Uiso   1.00
H304   H     0.67291   0.54468   0.28382   0.00000  Uiso   1.00
H305   H     0.99466   0.45697   0.21390   0.00000  Uiso   1.00
H306   H     0.93013   0.61791   0.45095   0.00000  Uiso   1.00
H307   H     0.95089   0.63044   0.03525   0.00000  Uiso   1.00
H308   H     0.69788   0.42904   0.39144   0.00000  Uiso   1.00
H309   H     0.73231   0.44606   0.04204   0.00000  Uiso   1.00
H310   H     0.66702   0.40638   0.48069   0.00000  Uiso   1.00
N311   N     0.98241   0.51407   0.26416   0.00000  Uiso   1.00
N312   N     0.68426   0.48593   0.23584   0.00000  Uiso   1.00
O313   O     0.79464   0.57141   0.24633   0.00000  Uiso   1.00
O314   O     0.89524   0.58089   0.25587   0.00000  Uiso   1.00
O315   O     0.75848   0.49293   0.31840   0.00000  Uiso   1.00
O316   O     0.85908   0.50241   0.32793   0.00000  Uiso   1.00
O317   O     0.77142   0.41911   0.24414   0.00000  Uiso   1.00
O318   O     0.87203   0.42859   0.25367   0.00000  Uiso   1.00
O319   O     0.80758   0.49759   0.17207   0.00000  Uiso   1.00
O320   O     0.90819   0.50707   0.18161   0.00000  Uiso   1.00
I321   I     0.97227   0.61976   0.14033   0.00000  Uiso   1.00
C322   C     0.84164   0.42935   0.06495   0.00000  Uiso   1.00
C323   C     0.78896   0.40273   0.10609   0.00000  Uiso   1.00
H324   H     0.77038   0.36186   0.09307   0.00000  Uiso   1.00
H325   H     0.80724   0.40007   0.14099   0.00000  Uiso   1.00
H326   H     0.74998   0.42404   0.11529   0.00000  Uiso   1.00
H327   H     0.83339   0.41134   0.02753   0.00000  Uiso   1.00
H328   H     0.88591   0.41881   0.06958   0.00000  Uiso   1.00
I329   I     0.95835   0.52138   0.38951   0.00000  Uiso   1.00
C330   C     0.89052   0.34871   0.30735   0.00000  Uiso   1.00
C331   C     0.88458   0.64938   0.35340   0.00000  Uiso   1.00
H332   H     0.83460   0.63508   0.37035   0.00000  Uiso   1.00
H333   H     0.90762   0.61545   0.34281   0.00000  Uiso   1.00
H334   H     0.90822   0.34072   0.38236   0.00000  Uiso   1.00
H335   H     0.94006   0.35726   0.28752   0.00000  Uiso   1.00
H336   H     0.87775   0.38616   0.32354   0.00000  Uiso   1.00
C337   C     0.17962   0.93300   0.25658   0.00000  Uiso   1.00
C338   C     0.13885   0.82491   0.48763   0.00000  Uiso   1.00
C339   C     0.15491   0.84104   0.43685   0.00000  Uiso   1.00
C340   C     0.17921   0.84802   0.02193   0.00000  Uiso   1.00
C341   C     0.21863   0.89790   0.01019   0.00000  Uiso   1.00
C342   C     0.22751   0.91650   0.46165   0.00000  Uiso   1.00
C343   C     0.20923   0.88051   0.42396   0.00000  Uiso   1.00
C344   C     0.18506   0.82275   0.06500   0.00000  Uiso   1.00
C345   C     0.25318   0.90417   0.09012   0.00000  Uiso   1.00
C346   C     0.11569   0.81850   0.40149   0.00000  Uiso   1.00
C347   C     0.18199   0.98794   0.27012   0.00000  Uiso   1.00
C348   C     0.13378   0.82917   0.34698   0.00000  Uiso   1.00
C349   C     0.14416   0.67755   0.25026   0.00000  Uiso   1.00
C350   C     0.15115   0.73340   0.25074   0.00000  Uiso   1.00
C351   C     0.19985   0.83811   0.15354   0.00000  Uiso   1.00
C352   C     0.25467   0.92546   0.04429   0.00000  Uiso   1.00
C353   C     0.21793   0.85300   0.10099   0.00000  Uiso   1.00
C354   C     0.06084   0.78125   0.41789   0.00000  Uiso   1.00
C355   C     0.04368   0.76748   0.46834   0.00000  Uiso   1.00
C356   C     0.08199   0.78921   0.00298   0.00000  Uiso   1.00
Cu357  Cu    0.10710   0.82772   0.24436   0.00000  Uiso   1.00
Cu358  Cu    0.22623   0.83895   0.25565   0.00000  Uiso   1.00
H359   H     0.11063   0.98827   0.22825   0.00000  Uiso   1.00
H360   H     0.00624   0.87801   0.28382   0.00000  Uiso   1.00
H361   H     0.32799   0.79031   0.21390   0.00000  Uiso   1.00
H362   H     0.26346   0.95124   0.45095   0.00000  Uiso   1.00
H363   H     0.28422   0.96377   0.03525   0.00000  Uiso   1.00
H364   H     0.03121   0.76238   0.39144   0.00000  Uiso   1.00
H365   H     0.06564   0.77940   0.04204   0.00000  Uiso   1.00
H366   H     0.00036   0.73972   0.48069   0.00000  Uiso   1.00
N367   N     0.31574   0.84741   0.26416   0.00000  Uiso   1.00
N368   N     0.01759   0.81926   0.23584   0.00000  Uiso   1.00
O369   O     0.12797   0.90474   0.24633   0.00000  Uiso   1.00
O370   O     0.22858   0.91422   0.25587   0.00000  Uiso   1.00
O371   O     0.09181   0.82627   0.31840   0.00000  Uiso   1.00
O372   O     0.19242   0.83575   0.32793   0.00000  Uiso   1.00
O373   O     0.10476   0.75245   0.24414   0.00000  Uiso   1.00
O374   O     0.20536   0.76193   0.25367   0.00000  Uiso   1.00
O375   O     0.14092   0.83092   0.17207   0.00000  Uiso   1.00
O376   O     0.24152   0.84040   0.18161   0.00000  Uiso   1.00
I377   I     0.30561   0.95310   0.14033   0.00000  Uiso   1.00
C378   C     0.17497   0.76268   0.06495   0.00000  Uiso   1.00
C379   C     0.12229   0.73606   0.10609   0.00000  Uiso   1.00
H380   H     0.10371   0.69519   0.09307   0.00000  Uiso   1.00
H381   H     0.14058   0.73340   0.14099   0.00000  Uiso   1.00
H382   H     0.08331   0.75737   0.11529   0.00000  Uiso   1.00
H383   H     0.16673   0.74468   0.02753   0.00000  Uiso   1.00
H384   H     0.21924   0.75214   0.06958   0.00000  Uiso   1.00
I385   I     0.29168   0.85471   0.38951   0.00000  Uiso   1.00
C386   C     0.22386   0.68204   0.30735   0.00000  Uiso   1.00
C387   C     0.21791   0.98271   0.35340   0.00000  Uiso   1.00
H388   H     0.16793   0.96841   0.37035   0.00000  Uiso   1.00
H389   H     0.24095   0.94878   0.34281   0.00000  Uiso   1.00
H390   H     0.24155   0.67405   0.38236   0.00000  Uiso   1.00
H391   H     0.27340   0.69059   0.28752   0.00000  Uiso   1.00
H392   H     0.21109   0.71949   0.32354   0.00000  Uiso   1.00
C393   C     0.51295   0.93300   0.25658   0.00000  Uiso   1.00
C394   C     0.47219   0.82491   0.48763   0.00000  Uiso   1.00
C395   C     0.48825   0.84104   0.43685   0.00000  Uiso   1.00
C396   C     0.51255   0.84802   0.02193   0.00000  Uiso   1.00
C397   C     0.55196   0.89790   0.01019   0.00000  Uiso   1.00
C398   C     0.56084   0.91650   0.46165   0.00000  Uiso   1.00
C399   C     0.54257   0.88051   0.42396   0.00000  Uiso   1.00
C400   C     0.51840   0.82275   0.06500   0.00000  Uiso   1.00
C401   C     0.58651   0.90417   0.09012   0.00000  Uiso   1.00
C402   C     0.44902   0.81850   0.40149   0.00000  Uiso   1.00
C403   C     0.51532   0.98794   0.27012   0.00000  Uiso   1.00
C404   C     0.46711   0.82917   0.34698   0.00000  Uiso   1.00
C405   C     0.47749   0.67755   0.25026   0.00000  Uiso   1.00
C406   C     0.48448   0.73340   0.25074   0.00000  Uiso   1.00
C407   C     0.53318   0.83811   0.15354   0.00000  Uiso   1.00
C408   C     0.58800   0.92546   0.04429   0.00000  Uiso   1.00
C409   C     0.55126   0.85300   0.10099   0.00000  Uiso   1.00
C410   C     0.39417   0.78125   0.41789   0.00000  Uiso   1.00
C411   C     0.37701   0.76748   0.46834   0.00000  Uiso   1.00
C412   C     0.41533   0.78921   0.00298   0.00000  Uiso   1.00
Cu413  Cu    0.44043   0.82772   0.24436   0.00000  Uiso   1.00
Cu414  Cu    0.55957   0.83895   0.25565   0.00000  Uiso   1.00
H415   H     0.44396   0.98827   0.22825   0.00000  Uiso   1.00
H416   H     0.33957   0.87801   0.28382   0.00000  Uiso   1.00
H417   H     0.66133   0.79031   0.21390   0.00000  Uiso   1.00
H418   H     0.59680   0.95124   0.45095   0.00000  Uiso   1.00
H419   H     0.61755   0.96377   0.03525   0.00000  Uiso   1.00
H420   H     0.36455   0.76238   0.39144   0.00000  Uiso   1.00
H421   H     0.39897   0.77940   0.04204   0.00000  Uiso   1.00
H422   H     0.33369   0.73972   0.48069   0.00000  Uiso   1.00
N423   N     0.64908   0.84741   0.26416   0.00000  Uiso   1.00
N424   N     0.35092   0.81926   0.23584   0.00000  Uiso   1.00
O425   O     0.46131   0.90474   0.24633   0.00000  Uiso   1.00
O426   O     0.56191   0.91422   0.25587   0.00000  Uiso   1.00
O427   O     0.42515   0.82627   0.31840   0.00000  Uiso   1.00
O428   O     0.52575   0.83575   0.32793   0.00000  Uiso   1.00
O429   O     0.43809   0.75245   0.24414   0.00000  Uiso   1.00
O430   O     0.53869   0.76193   0.25367   0.00000  Uiso   1.00
O431   O     0.47425   0.83092   0.17207   0.00000  Uiso   1.00
O432   O     0.57485   0.84040   0.18161   0.00000  Uiso   1.00
I433   I     0.63894   0.95310   0.14033   0.00000  Uiso   1.00
C434   C     0.50830   0.76268   0.06495   0.00000  Uiso   1.00
C435   C     0.45562   0.73606   0.10609   0.00000  Uiso   1.00
H436   H     0.43704   0.69519   0.09307   0.00000  Uiso   1.00
H437   H     0.47391   0.73340   0.14099   0.00000  Uiso   1.00
H438   H     0.41665   0.75737   0.11529   0.00000  Uiso   1.00
H439   H     0.50006   0.74468   0.02753   0.00000  Uiso   1.00
H440   H     0.55258   0.75214   0.06958   0.00000  Uiso   1.00
I441   I     0.62501   0.85471   0.38951   0.00000  Uiso   1.00
C442   C     0.55719   0.68204   0.30735   0.00000  Uiso   1.00
C443   C     0.55125   0.98271   0.35340   0.00000  Uiso   1.00
H444   H     0.50126   0.96841   0.37035   0.00000  Uiso   1.00
H445   H     0.57428   0.94878   0.34281   0.00000  Uiso   1.00
H446   H     0.57489   0.67405   0.38236   0.00000  Uiso   1.00
H447   H     0.60673   0.69059   0.28752   0.00000  Uiso   1.00
H448   H     0.54442   0.71949   0.32354   0.00000  Uiso   1.00
C449   C     0.84628   0.93300   0.25658   0.00000  Uiso   1.00
C450   C     0.80552   0.82491   0.48763   0.00000  Uiso   1.00
C451   C     0.82158   0.84104   0.43685   0.00000  Uiso   1.00
C452   C     0.84588   0.84802   0.02193   0.00000  Uiso   1.00
C453   C     0.88530   0.89790   0.01019   0.00000  Uiso   1.00
C454   C     0.89418   0.91650   0.46165   0.00000  Uiso   1.00
C455   C     0.87590   0.88051   0.42396   0.00000  Uiso   1.00
C456   C     0.85173   0.82275   0.06500   0.00000  Uiso   1.00
C457   C     0.91985   0.90417   0.09012   0.00000  Uiso   1.00
C458   C     0.78235   0.81850   0.40149   0.00000  Uiso   1.00
C459   C     0.84866   0.98794   0.27012   0.00000  Uiso   1.00
C460   C     0.80044   0.82917   0.34698   0.00000  Uiso   1.00
C461   C     0.81083   0.67755   0.25026   0.00000  Uiso   1.00
C462   C     0.81782   0.73340   0.25074   0.00000  Uiso   1.00
C463   C     0.86651   0.83811   0.15354   0.00000  Uiso   1.00
C464   C     0.92134   0.92546   0.04429   0.00000  Uiso   1.00
C465   C     0.88460   0.85300   0.10099   0.00000  Uiso   1.00
C466   C     0.72751   0.78125   0.41789   0.00000  Uiso   1.00
C467   C     0.71034   0.76748   0.46834   0.00000  Uiso   1.00
C468   C     0.74866   0.78921   0.00298   0.00000  Uiso   1.00
Cu469  Cu    0.77377   0.82772   0.24436   0.00000  Uiso   1.00
Cu470  Cu    0.89290   0.83895   0.25565   0.00000  Uiso   1.00
H471   H     0.77729   0.98827   0.22825   0.00000  Uiso   1.00
H472   H     0.67291   0.87801   0.28382   0.00000  Uiso   1.00
H473   H     0.99466   0.79031   0.21390   0.00000  Uiso   1.00
H474   H     0.93013   0.95124   0.45095   0.00000  Uiso   1.00
H475   H     0.95089   0.96377   0.03525   0.00000  Uiso   1.00
H476   H     0.69788   0.76238   0.39144   0.00000  Uiso   1.00
H477   H     0.73231   0.77940   0.04204   0.00000  Uiso   1.00
H478   H     0.66702   0.73972   0.48069   0.00000  Uiso   1.00
N479   N     0.98241   0.84741   0.26416   0.00000  Uiso   1.00
N480   N     0.68426   0.81926   0.23584   0.00000  Uiso   1.00
O481   O     0.79464   0.90474   0.24633   0.00000  Uiso   1.00
O482   O     0.89524   0.91422   0.25587   0.00000  Uiso   1.00
O483   O     0.75848   0.82627   0.31840   0.00000  Uiso   1.00
O484   O     0.85908   0.83575   0.32793   0.00000  Uiso   1.00
O485   O     0.77142   0.75245   0.24414   0.00000  Uiso   1.00
O486   O     0.87203   0.76193   0.25367   0.00000  Uiso   1.00
O487   O     0.80758   0.83092   0.17207   0.00000  Uiso   1.00
O488   O     0.90819   0.84040   0.18161   0.00000  Uiso   1.00
I489   I     0.97227   0.95310   0.14033   0.00000  Uiso   1.00
C490   C     0.84164   0.76268   0.06495   0.00000  Uiso   1.00
C491   C     0.78896   0.73606   0.10609   0.00000  Uiso   1.00
H492   H     0.77038   0.69519   0.09307   0.00000  Uiso   1.00
H493   H     0.80724   0.73340   0.14099   0.00000  Uiso   1.00
H494   H     0.74998   0.75737   0.11529   0.00000  Uiso   1.00
H495   H     0.83339   0.74468   0.02753   0.00000  Uiso   1.00
H496   H     0.88591   0.75214   0.06958   0.00000  Uiso   1.00
I497   I     0.95835   0.85471   0.38951   0.00000  Uiso   1.00
C498   C     0.89052   0.68204   0.30735   0.00000  Uiso   1.00
C499   C     0.88458   0.98271   0.35340   0.00000  Uiso   1.00
H500   H     0.83460   0.96841   0.37035   0.00000  Uiso   1.00
H501   H     0.90762   0.94878   0.34281   0.00000  Uiso   1.00
H502   H     0.90822   0.67405   0.38236   0.00000  Uiso   1.00
H503   H     0.94006   0.69059   0.28752   0.00000  Uiso   1.00
H504   H     0.87775   0.71949   0.32354   0.00000  Uiso   1.00
C505   C     0.17962   0.26633   0.75658   0.00000  Uiso   1.00
C506   C     0.13885   0.15824   0.98763   0.00000  Uiso   1.00
C507   C     0.15491   0.17438   0.93685   0.00000  Uiso   1.00
C508   C     0.17921   0.18135   0.52193   0.00000  Uiso   1.00
C509   C     0.21863   0.23124   0.51019   0.00000  Uiso   1.00
C510   C     0.22751   0.24983   0.96165   0.00000  Uiso   1.00
C511   C     0.20923   0.21384   0.92396   0.00000  Uiso   1.00
C512   C     0.18506   0.15608   0.56500   0.00000  Uiso   1.00
C513   C     0.25318   0.23750   0.59012   0.00000  Uiso   1.00
C514   C     0.11569   0.15183   0.90149   0.00000  Uiso   1.00
C515   C     0.18199   0.32128   0.77012   0.00000  Uiso   1.00
C516   C     0.13378   0.16250   0.84698   0.00000  Uiso   1.00
C517   C     0.14416   0.01088   0.75026   0.00000  Uiso   1.00
C518   C     0.15115   0.06673   0.75074   0.00000  Uiso   1.00
C519   C     0.19985   0.17144   0.65354   0.00000  Uiso   1.00
C520   C     0.25467   0.25880   0.54429   0.00000  Uiso   1.00
C521   C     0.21793   0.18634   0.60099   0.00000  Uiso   1.00
C522   C     0.06084   0.11458   0.91789   0.00000  Uiso   1.00
C523   C     0.04368   0.10082   0.96834   0.00000  Uiso   1.00
C524   C     0.08199   0.12254   0.50298   0.00000  Uiso   1.00
Cu525  Cu    0.10710   0.16105   0.74436   0.00000  Uiso   1.00
Cu526  Cu    0.22623   0.17228   0.75565   0.00000  Uiso   1.00
H527   H     0.11063   0.32160   0.72825   0.00000  Uiso   1.00
H528   H     0.00624   0.21134   0.78382   0.00000  Uiso   1.00
H529   H     0.32799   0.12364   0.71390   0.00000  Uiso   1.00
H530   H     0.26346   0.28458   0.95095   0.00000  Uiso   1.00
H531   H     0.28422   0.29710   0.53525   0.00000  Uiso   1.00
H532   H     0.03121   0.09571   0.89144   0.00000  Uiso   1.00
H533   H     0.06564   0.11273   0.54204   0.00000  Uiso   1.00
H534   H     0.00036   0.07305   0.98069   0.00000  Uiso   1.00
N535   N     0.31574   0.18074   0.76416   0.00000  Uiso   1.00
N536   N     0.01759   0.15259   0.73584   0.00000  Uiso   1.00
O537   O     0.12797   0.23807   0.74633   0.00000  Uiso   1.00
O538   O     0.22858   0.24755   0.75587   0.00000  Uiso   1.00
O539   O     0.09181   0.15960   0.81840   0.00000  Uiso   1.00
O540   O     0.19242   0.16908   0.82793   0.00000  Uiso   1.00
O541   O     0.10476   0.08578   0.74414   0.00000  Uiso   1.00
O542   O     0.20536   0.09526   0.75367   0.00000  Uiso   1.00
O543   O     0.14092   0.16425   0.67207   0.00000  Uiso   1.00
O544   O     0.24152   0.17373   0.68161   0.00000  Uiso   1.00
I545   I     0.30561   0.28643   0.64033   0.00000  Uiso   1.00
C546   C     0.17497   0.09601   0.56495   0.00000  Uiso   1.00
C547   C     0.12229   0.06939   0.60609   0.00000  Uiso   1.00
H548   H     0.10371   0.02853   0.59307   0.00000  Uiso   1.00
H549   H     0.14058   0.06674   0.64099   0.00000  Uiso   1.00
H550   H     0.08331   0.09071   0.61529   0.00000  Uiso   1.00
H551   H     0.16673   0.07801   0.52753   0.00000  Uiso   1.00
H552   H     0.21924   0.08547   0.56958   0.00000  Uiso   1.00
I553   I     0.29168   0.18805   0.88951   0.00000  Uiso   1.00
C554   C     0.22386   0.01537   0.80735   0.00000  Uiso   1.00
C555   C     0.21791   0.31604   0.85340   0.00000  Uiso   1.00
H556   H     0.16793   0.30174   0.87035   0.00000  Uiso   1.00
H557   H     0.24095   0.28212   0.84281   0.00000  Uiso   1.00
H558   H     0.24155   0.00739   0.88236   0.00000  Uiso   1.00
H559   H     0.27340   0.02393   0.78752   0.00000  Uiso   1.00
H560   H     0.21109   0.05282   0.82354   0.00000  Uiso   1.00
C561   C     0.51295   0.26633   0.75658   0.00000  Uiso   1.00
C562   C     0.47219   0.15824   0.98763   0.00000  Uiso   1.00
C563   C     0.48825   0.17438   0.93685   0.00000  Uiso   1.00
C564   C     0.51255   0.18135   0.52193   0.00000  Uiso   1.00
C565   C     0.55196   0.23124   0.51019   0.00000  Uiso   1.00
C566   C     0.56084   0.24983   0.96165   0.00000  Uiso   1.00
C567   C     0.54257   0.21384   0.92396   0.00000  Uiso   1.00
C568   C     0.51840   0.15608   0.56500   0.00000  Uiso   1.00
C569   C     0.58651   0.23750   0.59012   0.00000  Uiso   1.00
C570   C     0.44902   0.15183   0.90149   0.00000  Uiso   1.00
C571   C     0.51532   0.32128   0.77012   0.00000  Uiso   1.00
C572   C     0.46711   0.16250   0.84698   0.00000  Uiso   1.00
C573   C     0.47749   0.01088   0.75026   0.00000  Uiso   1.00
C574   C     0.48448   0.06673   0.75074   0.00000  Uiso   1.00
C575   C     0.53318   0.17144   0.65354   0.00000  Uiso   1.00
C576   C     0.58800   0.25880   0.54429   0.00000  Uiso   1.00
C577   C     0.55126   0.18634   0.60099   0.00000  Uiso   1.00
C578   C     0.39417   0.11458   0.91789   0.00000  Uiso   1.00
C579   C     0.37701   0.10082   0.96834   0.00000  Uiso   1.00
C580   C     0.41533   0.12254   0.50298   0.00000  Uiso   1.00
Cu581  Cu    0.44043   0.16105   0.74436   0.00000  Uiso   1.00
Cu582  Cu    0.55957   0.17228   0.75565   0.00000  Uiso   1.00
H583   H     0.44396   0.32160   0.72825   0.00000  Uiso   1.00
H584   H     0.33957   0.21134   0.78382   0.00000  Uiso   1.00
H585   H     0.66133   0.12364   0.71390   0.00000  Uiso   1.00
H586   H     0.59680   0.28458   0.95095   0.00000  Uiso   1.00
H587   H     0.61755   0.29710   0.53525   0.00000  Uiso   1.00
H588   H     0.36455   0.09571   0.89144   0.00000  Uiso   1.00
H589   H     0.39897   0.11273   0.54204   0.00000  Uiso   1.00
H590   H     0.33369   0.07305   0.98069   0.00000  Uiso   1.00
N591   N     0.64908   0.18074   0.76416   0.00000  Uiso   1.00
N592   N     0.35092   0.15259   0.73584   0.00000  Uiso   1.00
O593   O     0.46131   0.23807   0.74633   0.00000  Uiso   1.00
O594   O     0.56191   0.24755   0.75587   0.00000  Uiso   1.00
O595   O     0.42515   0.15960   0.81840   0.00000  Uiso   1.00
O596   O     0.52575   0.16908   0.82793   0.00000  Uiso   1.00
O597   O     0.43809   0.08578   0.74414   0.00000  Uiso   1.00
O598   O     0.53869   0.09526   0.75367   0.00000  Uiso   1.00
O599   O     0.47425   0.16425   0.67207   0.00000  Uiso   1.00
O600   O     0.57485   0.17373   0.68161   0.00000  Uiso   1.00
I601   I     0.63894   0.28643   0.64033   0.00000  Uiso   1.00
C602   C     0.50830   0.09601   0.56495   0.00000  Uiso   1.00
C603   C     0.45562   0.06939   0.60609   0.00000  Uiso   1.00
H604   H     0.43704   0.02853   0.59307   0.00000  Uiso   1.00
H605   H     0.47391   0.06674   0.64099   0.00000  Uiso   1.00
H606   H     0.41665   0.09071   0.61529   0.00000  Uiso   1.00
H607   H     0.50006   0.07801   0.52753   0.00000  Uiso   1.00
H608   H     0.55258   0.08547   0.56958   0.00000  Uiso   1.00
I609   I     0.62501   0.18805   0.88951   0.00000  Uiso   1.00
C610   C     0.55719   0.01537   0.80735   0.00000  Uiso   1.00
C611   C     0.55125   0.31604   0.85340   0.00000  Uiso   1.00
H612   H     0.50126   0.30174   0.87035   0.00000  Uiso   1.00
H613   H     0.57428   0.28212   0.84281   0.00000  Uiso   1.00
H614   H     0.57489   0.00739   0.88236   0.00000  Uiso   1.00
H615   H     0.60673   0.02393   0.78752   0.00000  Uiso   1.00
H616   H     0.54442   0.05282   0.82354   0.00000  Uiso   1.00
C617   C     0.84628   0.26633   0.75658   0.00000  Uiso   1.00
C618   C     0.80552   0.15824   0.98763   0.00000  Uiso   1.00
C619   C     0.82158   0.17438   0.93685   0.00000  Uiso   1.00
C620   C     0.84588   0.18135   0.52193   0.00000  Uiso   1.00
C621   C     0.88530   0.23124   0.51019   0.00000  Uiso   1.00
C622   C     0.89418   0.24983   0.96165   0.00000  Uiso   1.00
C623   C     0.87590   0.21384   0.92396   0.00000  Uiso   1.00
C624   C     0.85173   0.15608   0.56500   0.00000  Uiso   1.00
C625   C     0.91985   0.23750   0.59012   0.00000  Uiso   1.00
C626   C     0.78235   0.15183   0.90149   0.00000  Uiso   1.00
C627   C     0.84866   0.32128   0.77012   0.00000  Uiso   1.00
C628   C     0.80044   0.16250   0.84698   0.00000  Uiso   1.00
C629   C     0.81083   0.01088   0.75026   0.00000  Uiso   1.00
C630   C     0.81782   0.06673   0.75074   0.00000  Uiso   1.00
C631   C     0.86651   0.17144   0.65354   0.00000  Uiso   1.00
C632   C     0.92134   0.25880   0.54429   0.00000  Uiso   1.00
C633   C     0.88460   0.18634   0.60099   0.00000  Uiso   1.00
C634   C     0.72751   0.11458   0.91789   0.00000  Uiso   1.00
C635   C     0.71034   0.10082   0.96834   0.00000  Uiso   1.00
C636   C     0.74866   0.12254   0.50298   0.00000  Uiso   1.00
Cu637  Cu    0.77377   0.16105   0.74436   0.00000  Uiso   1.00
Cu638  Cu    0.89290   0.17228   0.75565   0.00000  Uiso   1.00
H639   H     0.77729   0.32160   0.72825   0.00000  Uiso   1.00
H640   H     0.67291   0.21134   0.78382   0.00000  Uiso   1.00
H641   H     0.99466   0.12364   0.71390   0.00000  Uiso   1.00
H642   H     0.93013   0.28458   0.95095   0.00000  Uiso   1.00
H643   H     0.95089   0.29710   0.53525   0.00000  Uiso   1.00
H644   H     0.69788   0.09571   0.89144   0.00000  Uiso   1.00
H645   H     0.73231   0.11273   0.54204   0.00000  Uiso   1.00
H646   H     0.66702   0.07305   0.98069   0.00000  Uiso   1.00
N647   N     0.98241   0.18074   0.76416   0.00000  Uiso   1.00
N648   N     0.68426   0.15259   0.73584   0.00000  Uiso   1.00
O649   O     0.79464   0.23807   0.74633   0.00000  Uiso   1.00
O650   O     0.89524   0.24755   0.75587   0.00000  Uiso   1.00
O651   O     0.75848   0.15960   0.81840   0.00000  Uiso   1.00
O652   O     0.85908   0.16908   0.82793   0.00000  Uiso   1.00
O653   O     0.77142   0.08578   0.74414   0.00000  Uiso   1.00
O654   O     0.87203   0.09526   0.75367   0.00000  Uiso   1.00
O655   O     0.80758   0.16425   0.67207   0.00000  Uiso   1.00
O656   O     0.90819   0.17373   0.68161   0.00000  Uiso   1.00
I657   I     0.97227   0.28643   0.64033   0.00000  Uiso   1.00
C658   C     0.84164   0.09601   0.56495   0.00000  Uiso   1.00
C659   C     0.78896   0.06939   0.60609   0.00000  Uiso   1.00
H660   H     0.77038   0.02853   0.59307   0.00000  Uiso   1.00
H661   H     0.80724   0.06674   0.64099   0.00000  Uiso   1.00
H662   H     0.74998   0.09071   0.61529   0.00000  Uiso   1.00
H663   H     0.83339   0.07801   0.52753   0.00000  Uiso   1.00
H664   H     0.88591   0.08547   0.56958   0.00000  Uiso   1.00
I665   I     0.95835   0.18805   0.88951   0.00000  Uiso   1.00
C666   C     0.89052   0.01537   0.80735   0.00000  Uiso   1.00
C667   C     0.88458   0.31604   0.85340   0.00000  Uiso   1.00
H668   H     0.83460   0.30174   0.87035   0.00000  Uiso   1.00
H669   H     0.90762   0.28212   0.84281   0.00000  Uiso   1.00
H670   H     0.90822   0.00739   0.88236   0.00000  Uiso   1.00
H671   H     0.94006   0.02393   0.78752   0.00000  Uiso   1.00
H672   H     0.87775   0.05282   0.82354   0.00000  Uiso   1.00
C673   C     0.17962   0.59967   0.75658   0.00000  Uiso   1.00
C674   C     0.13885   0.49158   0.98763   0.00000  Uiso   1.00
C675   C     0.15491   0.50771   0.93685   0.00000  Uiso   1.00
C676   C     0.17921   0.51469   0.52193   0.00000  Uiso   1.00
C677   C     0.21863   0.56457   0.51019   0.00000  Uiso   1.00
C678   C     0.22751   0.58317   0.96165   0.00000  Uiso   1.00
C679   C     0.20923   0.54717   0.92396   0.00000  Uiso   1.00
C680   C     0.18506   0.48942   0.56500   0.00000  Uiso   1.00
C681   C     0.25318   0.57083   0.59012   0.00000  Uiso   1.00
C682   C     0.11569   0.48517   0.90149   0.00000  Uiso   1.00
C683   C     0.18199   0.65461   0.77012   0.00000  Uiso   1.00
C684   C     0.13378   0.49584   0.84698   0.00000  Uiso   1.00
C685   C     0.14416   0.34422   0.75026   0.00000  Uiso   1.00
C686   C     0.15115   0.40006   0.75074   0.00000  Uiso   1.00
C687   C     0.19985   0.50478   0.65354   0.00000  Uiso   1.00
C688   C     0.25467   0.59213   0.54429   0.00000  Uiso   1.00
C689   C     0.21793   0.51967   0.60099   0.00000  Uiso   1.00
C690   C     0.06084   0.44791   0.91789   0.00000  Uiso   1.00
C691   C     0.04368   0.43415   0.96834   0.00000  Uiso   1.00
C692   C     0.08199   0.45587   0.50298   0.00000  Uiso   1.00
Cu693  Cu    0.10710   0.49439   0.74436   0.00000  Uiso   1.00
Cu694  Cu    0.22623   0.50561   0.75565   0.00000  Uiso   1.00
H695   H     0.11063   0.65493   0.72825   0.00000  Uiso   1.00
H696   H     0.00624   0.54468   0.78382   0.00000  Uiso   1.00
H697   H     0.32799   0.45697   0.71390   0.00000  Uiso   1.00
H698   H     0.26346   0.61791   0.95095   0.00000  Uiso   1.00
H699   H     0.28422   0.63044   0.53525   0.00000  Uiso   1.00
H700   H     0.03121   0.42904   0.89144   0.00000  Uiso   1.00
H701   H     0.06564   0.44606   0.54204   0.00000  Uiso   1.00
H702   H     0.00036   0.40638   0.98069   0.00000  Uiso   1.00
N703   N     0.31574   0.51407   0.76416   0.00000  Uiso   1.00
N704   N     0.01759   0.48593   0.73584   0.00000  Uiso   1.00
O705   O     0.12797   0.57141   0.74633   0.00000  Uiso   1.00
O706   O     0.22858   0.58089   0.75587   0.00000  Uiso   1.00
O707   O     0.09181   0.49293   0.81840   0.00000  Uiso   1.00
O708   O     0.19242   0.50241   0.82793   0.00000  Uiso   1.00
O709   O     0.10476   0.41911   0.74414   0.00000  Uiso   1.00
O710   O     0.20536   0.42859   0.75367   0.00000  Uiso   1.00
O711   O     0.14092   0.49759   0.67207   0.00000  Uiso   1.00
O712   O     0.24152   0.50707   0.68161   0.00000  Uiso   1.00
I713   I     0.30561   0.61976   0.64033   0.00000  Uiso   1.00
C714   C     0.17497   0.42935   0.56495   0.00000  Uiso   1.00
C715   C     0.12229   0.40273   0.60609   0.00000  Uiso   1.00
H716   H     0.10371   0.36186   0.59307   0.00000  Uiso   1.00
H717   H     0.14058   0.40007   0.64099   0.00000  Uiso   1.00
H718   H     0.08331   0.42404   0.61529   0.00000  Uiso   1.00
H719   H     0.16673   0.41134   0.52753   0.00000  Uiso   1.00
H720   H     0.21924   0.41881   0.56958   0.00000  Uiso   1.00
I721   I     0.29168   0.52138   0.88951   0.00000  Uiso   1.00
C722   C     0.22386   0.34871   0.80735   0.00000  Uiso   1.00
C723   C     0.21791   0.64938   0.85340   0.00000  Uiso   1.00
H724   H     0.16793   0.63508   0.87035   0.00000  Uiso   1.00
H725   H     0.24095   0.61545   0.84281   0.00000  Uiso   1.00
H726   H     0.24155   0.34072   0.88236   0.00000  Uiso   1.00
H727   H     0.27340   0.35726   0.78752   0.00000  Uiso   1.00
H728   H     0.21109   0.38616   0.82354   0.00000  Uiso   1.00
C729   C     0.51295   0.59967   0.75658   0.00000  Uiso   1.00
C730   C     0.47219   0.49158   0.98763   0.00000  Uiso   1.00
C731   C     0.48825   0.50771   0.93685   0.00000  Uiso   1.00
C732   C     0.51255   0.51469   0.52193   0.00000  Uiso   1.00
C733   C     0.55196   0.56457   0.51019   0.00000  Uiso   1.00
C734   C     0.56084   0.58317   0.96165   0.00000  Uiso   1.00
C735   C     0.54257   0.54717   0.92396   0.00000  Uiso   1.00
C736   C     0.51840   0.48942   0.56500   0.00000  Uiso   1.00
C737   C     0.58651   0.57083   0.59012   0.00000  Uiso   1.00
C738   C     0.44902   0.48517   0.90149   0.00000  Uiso   1.00
C739   C     0.51532   0.65461   0.77012   0.00000  Uiso   1.00
C740   C     0.46711   0.49584   0.84698   0.00000  Uiso   1.00
C741   C     0.47749   0.34422   0.75026   0.00000  Uiso   1.00
C742   C     0.48448   0.40006   0.75074   0.00000  Uiso   1.00
C743   C     0.53318   0.50478   0.65354   0.00000  Uiso   1.00
C744   C     0.58800   0.59213   0.54429   0.00000  Uiso   1.00
C745   C     0.55126   0.51967   0.60099   0.00000  Uiso   1.00
C746   C     0.39417   0.44791   0.91789   0.00000  Uiso   1.00
C747   C     0.37701   0.43415   0.96834   0.00000  Uiso   1.00
C748   C     0.41533   0.45587   0.50298   0.00000  Uiso   1.00
Cu749  Cu    0.44043   0.49439   0.74436   0.00000  Uiso   1.00
Cu750  Cu    0.55957   0.50561   0.75565   0.00000  Uiso   1.00
H751   H     0.44396   0.65493   0.72825   0.00000  Uiso   1.00
H752   H     0.33957   0.54468   0.78382   0.00000  Uiso   1.00
H753   H     0.66133   0.45697   0.71390   0.00000  Uiso   1.00
H754   H     0.59680   0.61791   0.95095   0.00000  Uiso   1.00
H755   H     0.61755   0.63044   0.53525   0.00000  Uiso   1.00
H756   H     0.36455   0.42904   0.89144   0.00000  Uiso   1.00
H757   H     0.39897   0.44606   0.54204   0.00000  Uiso   1.00
H758   H     0.33369   0.40638   0.98069   0.00000  Uiso   1.00
N759   N     0.64908   0.51407   0.76416   0.00000  Uiso   1.00
N760   N     0.35092   0.48593   0.73584   0.00000  Uiso   1.00
O761   O     0.46131   0.57141   0.74633   0.00000  Uiso   1.00
O762   O     0.56191   0.58089   0.75587   0.00000  Uiso   1.00
O763   O     0.42515   0.49293   0.81840   0.00000  Uiso   1.00
O764   O     0.52575   0.50241   0.82793   0.00000  Uiso   1.00
O765   O     0.43809   0.41911   0.74414   0.00000  Uiso   1.00
O766   O     0.53869   0.42859   0.75367   0.00000  Uiso   1.00
O767   O     0.47425   0.49759   0.67207   0.00000  Uiso   1.00
O768   O     0.57485   0.50707   0.68161   0.00000  Uiso   1.00
I769   I     0.63894   0.61976   0.64033   0.00000  Uiso   1.00
C770   C     0.50830   0.42935   0.56495   0.00000  Uiso   1.00
C771   C     0.45562   0.40273   0.60609   0.00000  Uiso   1.00
H772   H     0.43704   0.36186   0.59307   0.00000  Uiso   1.00
H773   H     0.47391   0.40007   0.64099   0.00000  Uiso   1.00
H774   H     0.41665   0.42404   0.61529   0.00000  Uiso   1.00
H775   H     0.50006   0.41134   0.52753   0.00000  Uiso   1.00
H776   H     0.55258   0.41881   0.56958   0.00000  Uiso   1.00
I777   I     0.62501   0.52138   0.88951   0.00000  Uiso   1.00
C778   C     0.55719   0.34871   0.80735   0.00000  Uiso   1.00
C779   C     0.55125   0.64938   0.85340   0.00000  Uiso   1.00
H780   H     0.50126   0.63508   0.87035   0.00000  Uiso   1.00
H781   H     0.57428   0.61545   0.84281   0.00000  Uiso   1.00
H782   H     0.57489   0.34072   0.88236   0.00000  Uiso   1.00
H783   H     0.60673   0.35726   0.78752   0.00000  Uiso   1.00
H784   H     0.54442   0.38616   0.82354   0.00000  Uiso   1.00
C785   C     0.84628   0.59967   0.75658   0.00000  Uiso   1.00
C786   C     0.80552   0.49158   0.98763   0.00000  Uiso   1.00
C787   C     0.82158   0.50771   0.93685   0.00000  Uiso   1.00
C788   C     0.84588   0.51469   0.52193   0.00000  Uiso   1.00
C789   C     0.88530   0.56457   0.51019   0.00000  Uiso   1.00
C790   C     0.89418   0.58317   0.96165   0.00000  Uiso   1.00
C791   C     0.87590   0.54717   0.92396   0.00000  Uiso   1.00
C792   C     0.85173   0.48942   0.56500   0.00000  Uiso   1.00
C793   C     0.91985   0.57083   0.59012   0.00000  Uiso   1.00
C794   C     0.78235   0.48517   0.90149   0.00000  Uiso   1.00
C795   C     0.84866   0.65461   0.77012   0.00000  Uiso   1.00
C796   C     0.80044   0.49584   0.84698   0.00000  Uiso   1.00
C797   C     0.81083   0.34422   0.75026   0.00000  Uiso   1.00
C798   C     0.81782   0.40006   0.75074   0.00000  Uiso   1.00
C799   C     0.86651   0.50478   0.65354   0.00000  Uiso   1.00
C800   C     0.92134   0.59213   0.54429   0.00000  Uiso   1.00
C801   C     0.88460   0.51967   0.60099   0.00000  Uiso   1.00
C802   C     0.72751   0.44791   0.91789   0.00000  Uiso   1.00
C803   C     0.71034   0.43415   0.96834   0.00000  Uiso   1.00
C804   C     0.74866   0.45587   0.50298   0.00000  Uiso   1.00
Cu805  Cu    0.77377   0.49439   0.74436   0.00000  Uiso   1.00
Cu806  Cu    0.89290   0.50561   0.75565   0.00000  Uiso   1.00
H807   H     0.77729   0.65493   0.72825   0.00000  Uiso   1.00
H808   H     0.67291   0.54468   0.78382   0.00000  Uiso   1.00
H809   H     0.99466   0.45697   0.71390   0.00000  Uiso   1.00
H810   H     0.93013   0.61791   0.95095   0.00000  Uiso   1.00
H811   H     0.95089   0.63044   0.53525   0.00000  Uiso   1.00
H812   H     0.69788   0.42904   0.89144   0.00000  Uiso   1.00
H813   H     0.73231   0.44606   0.54204   0.00000  Uiso   1.00
H814   H     0.66702   0.40638   0.98069   0.00000  Uiso   1.00
N815   N     0.98241   0.51407   0.76416   0.00000  Uiso   1.00
N816   N     0.68426   0.48593   0.73584   0.00000  Uiso   1.00
O817   O     0.79464   0.57141   0.74633   0.00000  Uiso   1.00
O818   O     0.89524   0.58089   0.75587   0.00000  Uiso   1.00
O819   O     0.75848   0.49293   0.81840   0.00000  Uiso   1.00
O820   O     0.85908   0.50241   0.82793   0.00000  Uiso   1.00
O821   O     0.77142   0.41911   0.74414   0.00000  Uiso   1.00
O822   O     0.87203   0.42859   0.75367   0.00000  Uiso   1.00
O823   O     0.80758   0.49759   0.67207   0.00000  Uiso   1.00
O824   O     0.90819   0.50707   0.68161   0.00000  Uiso   1.00
I825   I     0.97227   0.61976   0.64033   0.00000  Uiso   1.00
C826   C     0.84164   0.42935   0.56495   0.00000  Uiso   1.00
C827   C     0.78896   0.40273   0.60609   0.00000  Uiso   1.00
H828   H     0.77038   0.36186   0.59307   0.00000  Uiso   1.00
H829   H     0.80724   0.40007   0.64099   0.00000  Uiso   1.00
H830   H     0.74998   0.42404   0.61529   0.00000  Uiso   1.00
H831   H     0.83339   0.41134   0.52753   0.00000  Uiso   1.00
H832   H     0.88591   0.41881   0.56958   0.00000  Uiso   1.00
I833   I     0.95835   0.52138   0.88951   0.00000  Uiso   1.00
C834   C     0.89052   0.34871   0.80735   0.00000  Uiso   1.00
C835   C     0.88458   0.64938   0.85340   0.00000  Uiso   1.00
H836   H     0.83460   0.63508   0.87035   0.00000  Uiso   1.00
H837   H     0.90762   0.61545   0.84281   0.00000  Uiso   1.00
H838   H     0.90822   0.34072   0.88236   0.00000  Uiso   1.00
H839   H     0.94006   0.35726   0.78752   0.00000  Uiso   1.00
H840   H     0.87775   0.38616   0.82354   0.00000  Uiso   1.00
C841   C     0.17962   0.93300   0.75658   0.00000  Uiso   1.00
C842   C     0.13885   0.82491   0.98763   0.00000  Uiso   1.00
C843   C     0.15491   0.84104   0.93685   0.00000  Uiso   1.00
C844   C     0.17921   0.84802   0.52193   0.00000  Uiso   1.00
C845   C     0.21863   0.89790   0.51019   0.00000  Uiso   1.00
C846   C     0.22751   0.91650   0.96165   0.00000  Uiso   1.00
C847   C     0.20923   0.88051   0.92396   0.00000  Uiso   1.00
C848   C     0.18506   0.82275   0.56500   0.00000  Uiso   1.00
C849   C     0.25318   0.90417   0.59012   0.00000  Uiso   1.00
C850   C     0.11569   0.81850   0.90149   0.00000  Uiso   1.00
C851   C     0.18199   0.98794   0.77012   0.00000  Uiso   1.00
C852   C     0.13378   0.82917   0.84698   0.00000  Uiso   1.00
C853   C     0.14416   0.67755   0.75026   0.00000  Uiso   1.00
C854   C     0.15115   0.73340   0.75074   0.00000  Uiso   1.00
C855   C     0.19985   0.83811   0.65354   0.00000  Uiso   1.00
C856   C     0.25467   0.92546   0.54429   0.00000  Uiso   1.00
C857   C     0.21793   0.85300   0.60099   0.00000  Uiso   1.00
C858   C     0.06084   0.78125   0.91789   0.00000  Uiso   1.00
C859   C     0.04368   0.76748   0.96834   0.00000  Uiso   1.00
C860   C     0.08199   0.78921   0.50298   0.00000  Uiso   1.00
Cu861  Cu    0.10710   0.82772   0.74436   0.00000  Uiso   1.00
Cu862  Cu    0.22623   0.83895   0.75565   0.00000  Uiso   1.00
H863   H     0.11063   0.98827   0.72825   0.00000  Uiso   1.00
H864   H     0.00624   0.87801   0.78382   0.00000  Uiso   1.00
H865   H     0.32799   0.79031   0.71390   0.00000  Uiso   1.00
H866   H     0.26346   0.95124   0.95095   0.00000  Uiso   1.00
H867   H     0.28422   0.96377   0.53525   0.00000  Uiso   1.00
H868   H     0.03121   0.76238   0.89144   0.00000  Uiso   1.00
H869   H     0.06564   0.77940   0.54204   0.00000  Uiso   1.00
H870   H     0.00036   0.73972   0.98069   0.00000  Uiso   1.00
N871   N     0.31574   0.84741   0.76416   0.00000  Uiso   1.00
N872   N     0.01759   0.81926   0.73584   0.00000  Uiso   1.00
O873   O     0.12797   0.90474   0.74633   0.00000  Uiso   1.00
O874   O     0.22858   0.91422   0.75587   0.00000  Uiso   1.00
O875   O     0.09181   0.82627   0.81840   0.00000  Uiso   1.00
O876   O     0.19242   0.83575   0.82793   0.00000  Uiso   1.00
O877   O     0.10476   0.75245   0.74414   0.00000  Uiso   1.00
O878   O     0.20536   0.76193   0.75367   0.00000  Uiso   1.00
O879   O     0.14092   0.83092   0.67207   0.00000  Uiso   1.00
O880   O     0.24152   0.84040   0.68161   0.00000  Uiso   1.00
I881   I     0.30561   0.95310   0.64033   0.00000  Uiso   1.00
C882   C     0.17497   0.76268   0.56495   0.00000  Uiso   1.00
C883   C     0.12229   0.73606   0.60609   0.00000  Uiso   1.00
H884   H     0.10371   0.69519   0.59307   0.00000  Uiso   1.00
H885   H     0.14058   0.73340   0.64099   0.00000  Uiso   1.00
H886   H     0.08331   0.75737   0.61529   0.00000  Uiso   1.00
H887   H     0.16673   0.74468   0.52753   0.00000  Uiso   1.00
H888   H     0.21924   0.75214   0.56958   0.00000  Uiso   1.00
I889   I     0.29168   0.85471   0.88951   0.00000  Uiso   1.00
C890   C     0.22386   0.68204   0.80735   0.00000  Uiso   1.00
C891   C     0.21791   0.98271   0.85340   0.00000  Uiso   1.00
H892   H     0.16793   0.96841   0.87035   0.00000  Uiso   1.00
H893   H     0.24095   0.94878   0.84281   0.00000  Uiso   1.00
H894   H     0.24155   0.67405   0.88236   0.00000  Uiso   1.00
H895   H     0.27340   0.69059   0.78752   0.00000  Uiso   1.00
H896   H     0.21109   0.71949   0.82354   0.00000  Uiso   1.00
C897   C     0.51295   0.93300   0.75658   0.00000  Uiso   1.00
C898   C     0.47219   0.82491   0.98763   0.00000  Uiso   1.00
C899   C     0.48825   0.84104   0.93685   0.00000  Uiso   1.00
C900   C     0.51255   0.84802   0.52193   0.00000  Uiso   1.00
C901   C     0.55196   0.89790   0.51019   0.00000  Uiso   1.00
C902   C     0.56084   0.91650   0.96165   0.00000  Uiso   1.00
C903   C     0.54257   0.88051   0.92396   0.00000  Uiso   1.00
C904   C     0.51840   0.82275   0.56500   0.00000  Uiso   1.00
C905   C     0.58651   0.90417   0.59012   0.00000  Uiso   1.00
C906   C     0.44902   0.81850   0.90149   0.00000  Uiso   1.00
C907   C     0.51532   0.98794   0.77012   0.00000  Uiso   1.00
C908   C     0.46711   0.82917   0.84698   0.00000  Uiso   1.00
C909   C     0.47749   0.67755   0.75026   0.00000  Uiso   1.00
C910   C     0.48448   0.73340   0.75074   0.00000  Uiso   1.00
C911   C     0.53318   0.83811   0.65354   0.00000  Uiso   1.00
C912   C     0.58800   0.92546   0.54429   0.00000  Uiso   1.00
C913   C     0.55126   0.85300   0.60099   0.00000  Uiso   1.00
C914   C     0.39417   0.78125   0.91789   0.00000  Uiso   1.00
C915   C     0.37701   0.76748   0.96834   0.00000  Uiso   1.00
C916   C     0.41533   0.78921   0.50298   0.00000  Uiso   1.00
Cu917  Cu    0.44043   0.82772   0.74436   0.00000  Uiso   1.00
Cu918  Cu    0.55957   0.83895   0.75565   0.00000  Uiso   1.00
H919   H     0.44396   0.98827   0.72825   0.00000  Uiso   1.00
H920   H     0.33957   0.87801   0.78382   0.00000  Uiso   1.00
H921   H     0.66133   0.79031   0.71390   0.00000  Uiso   1.00
H922   H     0.59680   0.95124   0.95095   0.00000  Uiso   1.00
H923   H     0.61755   0.96377   0.53525   0.00000  Uiso   1.00
H924   H     0.36455   0.76238   0.89144   0.00000  Uiso   1.00
H925   H     0.39897   0.77940   0.54204   0.00000  Uiso   1.00
H926   H     0.33369   0.73972   0.98069   0.00000  Uiso   1.00
N927   N     0.64908   0.84741   0.76416   0.00000  Uiso   1.00
N928   N     0.35092   0.81926   0.73584   0.00000  Uiso   1.00
O929   O     0.46131   0.90474   0.74633   0.00000  Uiso   1.00
O930   O     0.56191   0.91422   0.75587   0.00000  Uiso   1.00
O931   O     0.42515   0.82627   0.81840   0.00000  Uiso   1.00
O932   O     0.52575   0.83575   0.82793   0.00000  Uiso   1.00
O933   O     0.43809   0.75245   0.74414   0.00000  Uiso   1.00
O934   O     0.53869   0.76193   0.75367   0.00000  Uiso   1.00
O935   O     0.47425   0.83092   0.67207   0.00000  Uiso   1.00
O936   O     0.57485   0.84040   0.68161   0.00000  Uiso   1.00
I937   I     0.63894   0.95310   0.64033   0.00000  Uiso   1.00
C938   C     0.50830   0.76268   0.56495   0.00000  Uiso   1.00
C939   C     0.45562   0.73606   0.60609   0.00000  Uiso   1.00
H940   H     0.43704   0.69519   0.59307   0.00000  Uiso   1.00
H941   H     0.47391   0.73340   0.64099   0.00000  Uiso   1.00
H942   H     0.41665   0.75737   0.61529   0.00000  Uiso   1.00
H943   H     0.50006   0.74468   0.52753   0.00000  Uiso   1.00
H944   H     0.55258   0.75214   0.56958   0.00000  Uiso   1.00
I945   I     0.62501   0.85471   0.88951   0.00000  Uiso   1.00
C946   C     0.55719   0.68204   0.80735   0.00000  Uiso   1.00
C947   C     0.55125   0.98271   0.85340   0.00000  Uiso   1.00
H948   H     0.50126   0.96841   0.87035   0.00000  Uiso   1.00
H949   H     0.57428   0.94878   0.84281   0.00000  Uiso   1.00
H950   H     0.57489   0.67405   0.88236   0.00000  Uiso   1.00
H951   H     0.60673   0.69059   0.78752   0.00000  Uiso   1.00
H952   H     0.54442   0.71949   0.82354   0.00000  Uiso   1.00
C953   C     0.84628   0.93300   0.75658   0.00000  Uiso   1.00
C954   C     0.80552   0.82491   0.98763   0.00000  Uiso   1.00
C955   C     0.82158   0.84104   0.93685   0.00000  Uiso   1.00
C956   C     0.84588   0.84802   0.52193   0.00000  Uiso   1.00
C957   C     0.88530   0.89790   0.51019   0.00000  Uiso   1.00
C958   C     0.89418   0.91650   0.96165   0.00000  Uiso   1.00
C959   C     0.87590   0.88051   0.92396   0.00000  Uiso   1.00
C960   C     0.85173   0.82275   0.56500   0.00000  Uiso   1.00
C961   C     0.91985   0.90417   0.59012   0.00000  Uiso   1.00
C962   C     0.78235   0.81850   0.90149   0.00000  Uiso   1.00
C963   C     0.84866   0.98794   0.77012   0.00000  Uiso   1.00
C964   C     0.80044   0.82917   0.84698   0.00000  Uiso   1.00
C965   C     0.81083   0.67755   0.75026   0.00000  Uiso   1.00
C966   C     0.81782   0.73340   0.75074   0.00000  Uiso   1.00
C967   C     0.86651   0.83811   0.65354   0.00000  Uiso   1.00
C968   C     0.92134   0.92546   0.54429   0.00000  Uiso   1.00
C969   C     0.88460   0.85300   0.60099   0.00000  Uiso   1.00
C970   C     0.72751   0.78125   0.91789   0.00000  Uiso   1.00
C971   C     0.71034   0.76748   0.96834   0.00000  Uiso   1.00
C972   C     0.74866   0.78921   0.50298   0.00000  Uiso   1.00
Cu973  Cu    0.77377   0.82772   0.74436   0.00000  Uiso   1.00
Cu974  Cu    0.89290   0.83895   0.75565   0.00000  Uiso   1.00
H975   H     0.77729   0.98827   0.72825   0.00000  Uiso   1.00
H976   H     0.67291   0.87801   0.78382   0.00000  Uiso   1.00
H977   H     0.99466   0.79031   0.71390   0.00000  Uiso   1.00
H978   H     0.93013   0.95124   0.95095   0.00000  Uiso   1.00
H979   H     0.95089   0.96377   0.53525   0.00000  Uiso   1.00
H980   H     0.69788   0.76238   0.89144   0.00000  Uiso   1.00
H981   H     0.73231   0.77940   0.54204   0.00000  Uiso   1.00
H982   H     0.66702   0.73972   0.98069   0.00000  Uiso   1.00
N983   N     0.98241   0.84741   0.76416   0.00000  Uiso   1.00
N984   N     0.68426   0.81926   0.73584   0.00000  Uiso   1.00
O985   O     0.79464   0.90474   0.74633   0.00000  Uiso   1.00
O986   O     0.89524   0.91422   0.75587   0.00000  Uiso   1.00
O987   O     0.75848   0.82627   0.81840   0.00000  Uiso   1.00
O988   O     0.85908   0.83575   0.82793   0.00000  Uiso   1.00
O989   O     0.77142   0.75245   0.74414   0.00000  Uiso   1.00
O990   O     0.87203   0.76193   0.75367   0.00000  Uiso   1.00
O991   O     0.80758   0.83092   0.67207   0.00000  Uiso   1.00
O992   O     0.90819   0.84040   0.68161   0.00000  Uiso   1.00
I993   I     0.97227   0.95310   0.64033   0.00000  Uiso   1.00
C994   C     0.84164   0.76268   0.56495   0.00000  Uiso   1.00
C995   C     0.78896   0.73606   0.60609   0.00000  Uiso   1.00
H996   H     0.77038   0.69519   0.59307   0.00000  Uiso   1.00
H997   H     0.80724   0.73340   0.64099   0.00000  Uiso   1.00
H998   H     0.74998   0.75737   0.61529   0.00000  Uiso   1.00
H999   H     0.83339   0.74468   0.52753   0.00000  Uiso   1.00
H1000  H     0.88591   0.75214   0.56958   0.00000  Uiso   1.00
I1001  I     0.95835   0.85471   0.88951   0.00000  Uiso   1.00
C1002  C     0.89052   0.68204   0.80735   0.00000  Uiso   1.00
C1003  C     0.88458   0.98271   0.85340   0.00000  Uiso   1.00
H1004  H     0.83460   0.96841   0.87035   0.00000  Uiso   1.00
H1005  H     0.90762   0.94878   0.84281   0.00000  Uiso   1.00
H1006  H     0.90822   0.67405   0.88236   0.00000  Uiso   1.00
H1007  H     0.94006   0.69059   0.78752   0.00000  Uiso   1.00
H1008  H     0.87775   0.71949   0.82354   0.00000  Uiso   1.00
loop_
_geom_bond_atom_site_label_1
_geom_bond_atom_site_label_2
_geom_bond_distance
_geom_bond_site_symmetry_2
_ccdc_geom_bond_type
C1     O33     1.290   .     A
C1     O34     1.286   .     A
C1     C11     1.440   .     S
C2     C3      1.418   .     A
C2     C508    1.424   .     S
C2     C524    1.408   .     S
C3     C7      1.411   .     A
C3     C10     1.425   .     A
C4     C8      1.420   .     A
C4     C5      1.420   .     A
C4     C506    1.424   1_554 S
C5     C16     1.392   .     A
C5     C510    1.394   1_554 S
C6     C7      1.386   .     A
C6     H26     1.085   .     S
C6     C509    1.394   .     S
C7     I49     2.113   .     S
C8     C17     1.416   .     A
C8     C42     1.530   .     S
C9     I41     2.126   .     S
C9     C17     1.411   .     A
C9     C16     1.385   .     A
C10    C12     1.477   .     S
C10    C18     1.403   .     A
C11    C181    1.342   .     S
C11    C218    1.533   .     S
C12    O36     1.286   .     A
C12    O35     1.310   .     A
C13    C14     1.427   .     S
C13    C347    1.342   1_545 S
C13    H359    1.088   1_545 S
C14    O38     1.286   .     A
C14    O37     1.288   .     A
C15    O39     1.289   .     A
C15    O40     1.297   .     A
C15    C17     1.454   .     S
C16    H27     1.084   .     S
C18    H28     1.083   .     S
C18    C19     1.392   .     A
C19    H30     1.083   .     S
C19    C524    1.393   .     S
C20    H29     1.076   .     S
C20    C506    1.408   1_554 S
C20    C523    1.393   1_554 S
Cu21   O35     1.960   .     S
Cu21   O39     1.948   .     S
Cu21   N32     2.016   .     S
Cu21   O33     1.956   .     S
Cu21   O37     1.948   .     S
Cu21   Cu22    2.682   .     S
Cu22   O36     1.948   .     S
Cu22   O40     1.960   .     S
Cu22   O34     1.948   .     S
Cu22   O38     1.956   .     S
Cu22   N31     2.016   .     S
H23    C181    1.088   .     S
H24    N143    1.028   1_455 S
H25    N88     1.029   .     S
N31    H80     1.028   .     S
N31    N88     1.290   .     S
N32    N143    1.290   1_455 S
N32    H137    1.029   1_455 S
C42    H48     1.112   .     S
C42    H47     1.110   .     S
C42    C43     1.531   .     S
C43    H44     1.110   .     S
C43    H45     1.109   .     S
C43    H46     1.109   .     S
C50    H55     1.111   .     S
C50    H56     1.108   .     S
C50    C347    1.533   1_545 S
C50    C387    1.528   1_545 S
C51    H52     1.111   .     S
C51    H53     1.108   .     S
C51    C218    1.528   .     S
C51    H222    1.111   .     S
H54    C387    1.111   1_545 S
C57    O89     1.290   .     A
C57    O90     1.286   .     A
C57    C67     1.440   .     S
C58    C59     1.418   .     A
C58    C564    1.424   .     S
C58    C580    1.408   .     S
C59    C63     1.411   .     A
C59    C66     1.425   .     A
C60    C64     1.420   .     A
C60    C61     1.420   .     A
C60    C562    1.424   1_554 S
C61    C72     1.392   .     A
C61    C566    1.394   1_554 S
C62    C63     1.386   .     A
C62    H82     1.085   .     S
C62    C565    1.394   .     S
C63    I105    2.113   .     S
C64    C73     1.416   .     A
C64    C98     1.530   .     S
C65    I97     2.126   .     S
C65    C73     1.411   .     A
C65    C72     1.385   .     A
C66    C68     1.477   .     S
C66    C74     1.403   .     A
C67    C237    1.342   .     S
C67    C274    1.533   .     S
C68    O92     1.286   .     A
C68    O91     1.310   .     A
C69    C70     1.427   .     S
C69    C403    1.342   1_545 S
C69    H415    1.088   1_545 S
C70    O94     1.286   .     A
C70    O93     1.288   .     A
C71    O95     1.289   .     A
C71    O96     1.297   .     A
C71    C73     1.454   .     S
C72    H83     1.084   .     S
C74    H84     1.083   .     S
C74    C75     1.392   .     A
C75    H86     1.083   .     S
C75    C580    1.393   .     S
C76    H85     1.076   .     S
C76    C562    1.408   1_554 S
C76    C579    1.393   1_554 S
Cu77   O91     1.960   .     S
Cu77   O95     1.948   .     S
Cu77   N88     2.016   .     S
Cu77   O89     1.956   .     S
Cu77   O93     1.948   .     S
Cu77   Cu78    2.682   .     S
Cu78   O92     1.948   .     S
Cu78   O96     1.960   .     S
Cu78   O90     1.948   .     S
Cu78   O94     1.956   .     S
Cu78   N87     2.016   .     S
H79    C237    1.088   .     S
H81    N144    1.029   .     S
N87    H136    1.028   .     S
N87    N144    1.290   .     S
C98    H104    1.112   .     S
C98    H103    1.110   .     S
C98    C99     1.531   .     S
C99    H100    1.110   .     S
C99    H101    1.109   .     S
C99    H102    1.109   .     S
C106   H111    1.111   .     S
C106   H112    1.108   .     S
C106   C403    1.533   1_545 S
C106   C443    1.528   1_545 S
C107   H108    1.111   .     S
C107   H109    1.108   .     S
C107   C274    1.528   .     S
C107   H278    1.111   .     S
H110   C443    1.111   1_545 S
C113   O145    1.290   .     A
C113   O146    1.286   .     A
C113   C123    1.440   .     S
C114   C115    1.418   .     A
C114   C620    1.424   .     S
C114   C636    1.408   .     S
C115   C119    1.411   .     A
C115   C122    1.425   .     A
C116   C120    1.420   .     A
C116   C117    1.420   .     A
C116   C618    1.424   1_554 S
C117   C128    1.392   .     A
C117   C622    1.394   1_554 S
C118   C119    1.386   .     A
C118   H138    1.085   .     S
C118   C621    1.394   .     S
C119   I161    2.113   .     S
C120   C129    1.416   .     A
C120   C154    1.530   .     S
C121   I153    2.126   .     S
C121   C129    1.411   .     A
C121   C128    1.385   .     A
C122   C124    1.477   .     S
C122   C130    1.403   .     A
C123   C293    1.342   .     S
C123   C330    1.533   .     S
C124   O148    1.286   .     A
C124   O147    1.310   .     A
C125   C126    1.427   .     S
C125   C459    1.342   1_545 S
C125   H471    1.088   1_545 S
C126   O150    1.286   .     A
C126   O149    1.288   .     A
C127   O151    1.289   .     A
C127   O152    1.297   .     A
C127   C129    1.454   .     S
C128   H139    1.084   .     S
C130   H140    1.083   .     S
C130   C131    1.392   .     A
C131   H142    1.083   .     S
C131   C636    1.393   .     S
C132   H141    1.076   .     S
C132   C618    1.408   1_554 S
C132   C635    1.393   1_554 S
Cu133  O147    1.960   .     S
Cu133  O151    1.948   .     S
Cu133  N144    2.016   .     S
Cu133  O145    1.956   .     S
Cu133  O149    1.948   .     S
Cu133  Cu134   2.682   .     S
Cu134  O148    1.948   .     S
Cu134  O152    1.960   .     S
Cu134  O146    1.948   .     S
Cu134  O150    1.956   .     S
Cu134  N143    2.016   .     S
H135   C293    1.088   .     S
H137   N32     1.029   1_655 S
N143   H24     1.028   1_655 S
N143   N32     1.290   1_655 S
C154   H160    1.112   .     S
C154   H159    1.110   .     S
C154   C155    1.531   .     S
C155   H156    1.110   .     S
C155   H157    1.109   .     S
C155   H158    1.109   .     S
C162   H167    1.111   .     S
C162   H168    1.108   .     S
C162   C459    1.533   1_545 S
C162   C499    1.528   1_545 S
C163   H164    1.111   .     S
C163   H165    1.108   .     S
C163   C330    1.528   .     S
C163   H334    1.111   .     S
H166   C499    1.111   1_545 S
C169   O201    1.290   .     A
C169   O202    1.286   .     A
C169   C179    1.440   .     S
C170   C171    1.418   .     A
C170   C676    1.424   .     S
C170   C692    1.408   .     S
C171   C175    1.411   .     A
C171   C178    1.425   .     A
C172   C176    1.420   .     A
C172   C173    1.420   .     A
C172   C674    1.424   1_554 S
C173   C184    1.392   .     A
C173   C678    1.394   1_554 S
C174   C175    1.386   .     A
C174   H194    1.085   .     S
C174   C677    1.394   .     S
C175   I217    2.113   .     S
C176   C185    1.416   .     A
C176   C210    1.530   .     S
C177   I209    2.126   .     S
C177   C185    1.411   .     A
C177   C184    1.385   .     A
C178   C180    1.477   .     S
C178   C186    1.403   .     A
C179   C349    1.342   .     S
C179   C386    1.533   .     S
C180   O204    1.286   .     A
C180   O203    1.310   .     A
C181   C182    1.427   .     S
C182   O206    1.286   .     A
C182   O205    1.288   .     A
C183   O207    1.289   .     A
C183   O208    1.297   .     A
C183   C185    1.454   .     S
C184   H195    1.084   .     S
C186   H196    1.083   .     S
C186   C187    1.392   .     A
C187   H198    1.083   .     S
C187   C692    1.393   .     S
C188   H197    1.076   .     S
C188   C674    1.408   1_554 S
C188   C691    1.393   1_554 S
Cu189  O203    1.960   .     S
Cu189  O207    1.948   .     S
Cu189  N200    2.016   .     S
Cu189  O201    1.956   .     S
Cu189  O205    1.948   .     S
Cu189  Cu190   2.682   .     S
Cu190  O204    1.948   .     S
Cu190  O208    1.960   .     S
Cu190  O202    1.948   .     S
Cu190  O206    1.956   .     S
Cu190  N199    2.016   .     S
H191   C349    1.088   .     S
H192   N311    1.028   1_455 S
H193   N256    1.029   .     S
N199   H248    1.028   .     S
N199   N256    1.290   .     S
N200   N311    1.290   1_455 S
N200   H305    1.029   1_455 S
C210   H216    1.112   .     S
C210   H215    1.110   .     S
C210   C211    1.531   .     S
C211   H212    1.110   .     S
C211   H213    1.109   .     S
C211   H214    1.109   .     S
C218   H223    1.111   .     S
C218   H224    1.108   .     S
C219   H220    1.111   .     S
C219   H221    1.108   .     S
C219   C386    1.528   .     S
C219   H390    1.111   .     S
C225   O257    1.290   .     A
C225   O258    1.286   .     A
C225   C235    1.440   .     S
C226   C227    1.418   .     A
C226   C732    1.424   .     S
C226   C748    1.408   .     S
C227   C231    1.411   .     A
C227   C234    1.425   .     A
C228   C232    1.420   .     A
C228   C229    1.420   .     A
C228   C730    1.424   1_554 S
C229   C240    1.392   .     A
C229   C734    1.394   1_554 S
C230   C231    1.386   .     A
C230   H250    1.085   .     S
C230   C733    1.394   .     S
C231   I273    2.113   .     S
C232   C241    1.416   .     A
C232   C266    1.530   .     S
C233   I265    2.126   .     S
C233   C241    1.411   .     A
C233   C240    1.385   .     A
C234   C236    1.477   .     S
C234   C242    1.403   .     A
C235   C405    1.342   .     S
C235   C442    1.533   .     S
C236   O260    1.286   .     A
C236   O259    1.310   .     A
C237   C238    1.427   .     S
C238   O262    1.286   .     A
C238   O261    1.288   .     A
C239   O263    1.289   .     A
C239   O264    1.297   .     A
C239   C241    1.454   .     S
C240   H251    1.084   .     S
C242   H252    1.083   .     S
C242   C243    1.392   .     A
C243   H254    1.083   .     S
C243   C748    1.393   .     S
C244   H253    1.076   .     S
C244   C730    1.408   1_554 S
C244   C747    1.393   1_554 S
Cu245  O259    1.960   .     S
Cu245  O263    1.948   .     S
Cu245  N256    2.016   .     S
Cu245  O257    1.956   .     S
Cu245  O261    1.948   .     S
Cu245  Cu246   2.682   .     S
Cu246  O260    1.948   .     S
Cu246  O264    1.960   .     S
Cu246  O258    1.948   .     S
Cu246  O262    1.956   .     S
Cu246  N255    2.016   .     S
H247   C405    1.088   .     S
H249   N312    1.029   .     S
N255   H304    1.028   .     S
N255   N312    1.290   .     S
C266   H272    1.112   .     S
C266   H271    1.110   .     S
C266   C267    1.531   .     S
C267   H268    1.110   .     S
C267   H269    1.109   .     S
C267   H270    1.109   .     S
C274   H279    1.111   .     S
C274   H280    1.108   .     S
C275   H276    1.111   .     S
C275   H277    1.108   .     S
C275   C442    1.528   .     S
C275   H446    1.111   .     S
C281   O313    1.290   .     A
C281   O314    1.286   .     A
C281   C291    1.440   .     S
C282   C283    1.418   .     A
C282   C788    1.424   .     S
C282   C804    1.408   .     S
C283   C287    1.411   .     A
C283   C290    1.425   .     A
C284   C288    1.420   .     A
C284   C285    1.420   .     A
C284   C786    1.424   1_554 S
C285   C296    1.392   .     A
C285   C790    1.394   1_554 S
C286   C287    1.386   .     A
C286   H306    1.085   .     S
C286   C789    1.394   .     S
C287   I329    2.113   .     S
C288   C297    1.416   .     A
C288   C322    1.530   .     S
C289   I321    2.126   .     S
C289   C297    1.411   .     A
C289   C296    1.385   .     A
C290   C292    1.477   .     S
C290   C298    1.403   .     A
C291   C461    1.342   .     S
C291   C498    1.533   .     S
C292   O316    1.286   .     A
C292   O315    1.310   .     A
C293   C294    1.427   .     S
C294   O318    1.286   .     A
C294   O317    1.288   .     A
C295   O319    1.289   .     A
C295   O320    1.297   .     A
C295   C297    1.454   .     S
C296   H307    1.084   .     S
C298   H308    1.083   .     S
C298   C299    1.392   .     A
C299   H310    1.083   .     S
C299   C804    1.393   .     S
C300   H309    1.076   .     S
C300   C786    1.408   1_554 S
C300   C803    1.393   1_554 S
Cu301  O315    1.960   .     S
Cu301  O319    1.948   .     S
Cu301  N312    2.016   .     S
Cu301  O313    1.956   .     S
Cu301  O317    1.948   .     S
Cu301  Cu302   2.682   .     S
Cu302  O316    1.948   .     S
Cu302  O320    1.960   .     S
Cu302  O314    1.948   .     S
Cu302  O318    1.956   .     S
Cu302  N311    2.016   .     S
H303   C461    1.088   .     S
H305   N200    1.029   1_655 S
N311   H192    1.028   1_655 S
N311   N200    1.290   1_655 S
C322   H328    1.112   .     S
C322   H327    1.110   .     S
C322   C323    1.531   .     S
C323   H324    1.110   .     S
C323   H325    1.109   .     S
C323   H326    1.109   .     S
C330   H335    1.111   .     S
C330   H336    1.108   .     S
C331   H332    1.111   .     S
C331   H333    1.108   .     S
C331   C498    1.528   .     S
C331   H502    1.111   .     S
C337   O369    1.290   .     A
C337   O370    1.286   .     A
C337   C347    1.440   .     S
C338   C339    1.418   .     A
C338   C844    1.424   .     S
C338   C860    1.408   .     S
C339   C343    1.411   .     A
C339   C346    1.425   .     A
C340   C344    1.420   .     A
C340   C341    1.420   .     A
C340   C842    1.424   1_554 S
C341   C352    1.392   .     A
C341   C846    1.394   1_554 S
C342   C343    1.386   .     A
C342   H362    1.085   .     S
C342   C845    1.394   .     S
C343   I385    2.113   .     S
C344   C353    1.416   .     A
C344   C378    1.530   .     S
C345   I377    2.126   .     S
C345   C353    1.411   .     A
C345   C352    1.385   .     A
C346   C348    1.477   .     S
C346   C354    1.403   .     A
C347   C13     1.342   1_565 S
C347   C50     1.533   1_565 S
C348   O372    1.286   .     A
C348   O371    1.310   .     A
C349   C350    1.427   .     S
C350   O374    1.286   .     A
C350   O373    1.288   .     A
C351   O375    1.289   .     A
C351   O376    1.297   .     A
C351   C353    1.454   .     S
C352   H363    1.084   .     S
C354   H364    1.083   .     S
C354   C355    1.392   .     A
C355   H366    1.083   .     S
C355   C860    1.393   .     S
C356   H365    1.076   .     S
C356   C842    1.408   1_554 S
C356   C859    1.393   1_554 S
Cu357  O371    1.960   .     S
Cu357  O375    1.948   .     S
Cu357  N368    2.016   .     S
Cu357  O369    1.956   .     S
Cu357  O373    1.948   .     S
Cu357  Cu358   2.682   .     S
Cu358  O372    1.948   .     S
Cu358  O376    1.960   .     S
Cu358  O370    1.948   .     S
Cu358  O374    1.956   .     S
Cu358  N367    2.016   .     S
H359   C13     1.088   1_565 S
H360   N479    1.028   1_455 S
H361   N424    1.029   .     S
N367   H416    1.028   .     S
N367   N424    1.290   .     S
N368   N479    1.290   1_455 S
N368   H473    1.029   1_455 S
C378   H384    1.112   .     S
C378   H383    1.110   .     S
C378   C379    1.531   .     S
C379   H380    1.110   .     S
C379   H381    1.109   .     S
C379   H382    1.109   .     S
C386   H391    1.111   .     S
C386   H392    1.108   .     S
C387   H388    1.111   .     S
C387   H389    1.108   .     S
C387   C50     1.528   1_565 S
C387   H54     1.111   1_565 S
C393   O425    1.290   .     A
C393   O426    1.286   .     A
C393   C403    1.440   .     S
C394   C395    1.418   .     A
C394   C900    1.424   .     S
C394   C916    1.408   .     S
C395   C399    1.411   .     A
C395   C402    1.425   .     A
C396   C400    1.420   .     A
C396   C397    1.420   .     A
C396   C898    1.424   1_554 S
C397   C408    1.392   .     A
C397   C902    1.394   1_554 S
C398   C399    1.386   .     A
C398   H418    1.085   .     S
C398   C901    1.394   .     S
C399   I441    2.113   .     S
C400   C409    1.416   .     A
C400   C434    1.530   .     S
C401   I433    2.126   .     S
C401   C409    1.411   .     A
C401   C408    1.385   .     A
C402   C404    1.477   .     S
C402   C410    1.403   .     A
C403   C69     1.342   1_565 S
C403   C106    1.533   1_565 S
C404   O428    1.286   .     A
C404   O427    1.310   .     A
C405   C406    1.427   .     S
C406   O430    1.286   .     A
C406   O429    1.288   .     A
C407   O431    1.289   .     A
C407   O432    1.297   .     A
C407   C409    1.454   .     S
C408   H419    1.084   .     S
C410   H420    1.083   .     S
C410   C411    1.392   .     A
C411   H422    1.083   .     S
C411   C916    1.393   .     S
C412   H421    1.076   .     S
C412   C898    1.408   1_554 S
C412   C915    1.393   1_554 S
Cu413  O427    1.960   .     S
Cu413  O431    1.948   .     S
Cu413  N424    2.016   .     S
Cu413  O425    1.956   .     S
Cu413  O429    1.948   .     S
Cu413  Cu414   2.682   .     S
Cu414  O428    1.948   .     S
Cu414  O432    1.960   .     S
Cu414  O426    1.948   .     S
Cu414  O430    1.956   .     S
Cu414  N423    2.016   .     S
H415   C69     1.088   1_565 S
H417   N480    1.029   .     S
N423   H472    1.028   .     S
N423   N480    1.290   .     S
C434   H440    1.112   .     S
C434   H439    1.110   .     S
C434   C435    1.531   .     S
C435   H436    1.110   .     S
C435   H437    1.109   .     S
C435   H438    1.109   .     S
C442   H447    1.111   .     S
C442   H448    1.108   .     S
C443   H444    1.111   .     S
C443   H445    1.108   .     S
C443   C106    1.528   1_565 S
C443   H110    1.111   1_565 S
C449   O481    1.290   .     A
C449   O482    1.286   .     A
C449   C459    1.440   .     S
C450   C451    1.418   .     A
C450   C956    1.424   .     S
C450   C972    1.408   .     S
C451   C455    1.411   .     A
C451   C458    1.425   .     A
C452   C456    1.420   .     A
C452   C453    1.420   .     A
C452   C954    1.424   1_554 S
C453   C464    1.392   .     A
C453   C958    1.394   1_554 S
C454   C455    1.386   .     A
C454   H474    1.085   .     S
C454   C957    1.394   .     S
C455   I497    2.113   .     S
C456   C465    1.416   .     A
C456   C490    1.530   .     S
C457   I489    2.126   .     S
C457   C465    1.411   .     A
C457   C464    1.385   .     A
C458   C460    1.477   .     S
C458   C466    1.403   .     A
C459   C125    1.342   1_565 S
C459   C162    1.533   1_565 S
C460   O484    1.286   .     A
C460   O483    1.310   .     A
C461   C462    1.427   .     S
C462   O486    1.286   .     A
C462   O485    1.288   .     A
C463   O487    1.289   .     A
C463   O488    1.297   .     A
C463   C465    1.454   .     S
C464   H475    1.084   .     S
C466   H476    1.083   .     S
C466   C467    1.392   .     A
C467   H478    1.083   .     S
C467   C972    1.393   .     S
C468   H477    1.076   .     S
C468   C954    1.408   1_554 S
C468   C971    1.393   1_554 S
Cu469  O483    1.960   .     S
Cu469  O487    1.948   .     S
Cu469  N480    2.016   .     S
Cu469  O481    1.956   .     S
Cu469  O485    1.948   .     S
Cu469  Cu470   2.682   .     S
Cu470  O484    1.948   .     S
Cu470  O488    1.960   .     S
Cu470  O482    1.948   .     S
Cu470  O486    1.956   .     S
Cu470  N479    2.016   .     S
H471   C125    1.088   1_565 S
H473   N368    1.029   1_655 S
N479   H360    1.028   1_655 S
N479   N368    1.290   1_655 S
C490   H496    1.112   .     S
C490   H495    1.110   .     S
C490   C491    1.531   .     S
C491   H492    1.110   .     S
C491   H493    1.109   .     S
C491   H494    1.109   .     S
C498   H503    1.111   .     S
C498   H504    1.108   .     S
C499   H500    1.111   .     S
C499   H501    1.108   .     S
C499   C162    1.528   1_565 S
C499   H166    1.111   1_565 S
C505   O537    1.290   .     A
C505   O538    1.286   .     A
C505   C515    1.440   .     S
C506   C507    1.418   .     A
C506   C4      1.424   1_556 S
C506   C20     1.408   1_556 S
C507   C511    1.411   .     A
C507   C514    1.425   .     A
C508   C512    1.420   .     A
C508   C509    1.420   .     A
C509   C520    1.392   .     A
C510   C511    1.386   .     A
C510   H530    1.085   .     S
C510   C5      1.394   1_556 S
C511   I553    2.113   .     S
C512   C521    1.416   .     A
C512   C546    1.530   .     S
C513   I545    2.126   .     S
C513   C521    1.411   .     A
C513   C520    1.385   .     A
C514   C516    1.477   .     S
C514   C522    1.403   .     A
C515   C685    1.342   .     S
C515   C722    1.533   .     S
C516   O540    1.286   .     A
C516   O539    1.310   .     A
C517   C518    1.427   .     S
C517   C851    1.342   1_545 S
C517   H863    1.088   1_545 S
C518   O542    1.286   .     A
C518   O541    1.288   .     A
C519   O543    1.289   .     A
C519   O544    1.297   .     A
C519   C521    1.454   .     S
C520   H531    1.084   .     S
C522   H532    1.083   .     S
C522   C523    1.392   .     A
C523   H534    1.083   .     S
C523   C20     1.393   1_556 S
C524   H533    1.076   .     S
Cu525  O539    1.960   .     S
Cu525  O543    1.948   .     S
Cu525  N536    2.016   .     S
Cu525  O537    1.956   .     S
Cu525  O541    1.948   .     S
Cu525  Cu526   2.682   .     S
Cu526  O540    1.948   .     S
Cu526  O544    1.960   .     S
Cu526  O538    1.948   .     S
Cu526  O542    1.956   .     S
Cu526  N535    2.016   .     S
H527   C685    1.088   .     S
H528   N647    1.028   1_455 S
H529   N592    1.029   .     S
N535   H584    1.028   .     S
N535   N592    1.290   .     S
N536   N647    1.290   1_455 S
N536   H641    1.029   1_455 S
C546   H552    1.112   .     S
C546   H551    1.110   .     S
C546   C547    1.531   .     S
C547   H548    1.110   .     S
C547   H549    1.109   .     S
C547   H550    1.109   .     S
C554   H559    1.111   .     S
C554   H560    1.108   .     S
C554   C851    1.533   1_545 S
C554   C891    1.528   1_545 S
C555   H556    1.111   .     S
C555   H557    1.108   .     S
C555   C722    1.528   .     S
C555   H726    1.111   .     S
H558   C891    1.111   1_545 S
C561   O593    1.290   .     A
C561   O594    1.286   .     A
C561   C571    1.440   .     S
C562   C563    1.418   .     A
C562   C60     1.424   1_556 S
C562   C76     1.408   1_556 S
C563   C567    1.411   .     A
C563   C570    1.425   .     A
C564   C568    1.420   .     A
C564   C565    1.420   .     A
C565   C576    1.392   .     A
C566   C567    1.386   .     A
C566   H586    1.085   .     S
C566   C61     1.394   1_556 S
C567   I609    2.113   .     S
C568   C577    1.416   .     A
C568   C602    1.530   .     S
C569   I601    2.126   .     S
C569   C577    1.411   .     A
C569   C576    1.385   .     A
C570   C572    1.477   .     S
C570   C578    1.403   .     A
C571   C741    1.342   .     S
C571   C778    1.533   .     S
C572   O596    1.286   .     A
C572   O595    1.310   .     A
C573   C574    1.427   .     S
C573   C907    1.342   1_545 S
C573   H919    1.088   1_545 S
C574   O598    1.286   .     A
C574   O597    1.288   .     A
C575   O599    1.289   .     A
C575   O600    1.297   .     A
C575   C577    1.454   .     S
C576   H587    1.084   .     S
C578   H588    1.083   .     S
C578   C579    1.392   .     A
C579   H590    1.083   .     S
C579   C76     1.393   1_556 S
C580   H589    1.076   .     S
Cu581  O595    1.960   .     S
Cu581  O599    1.948   .     S
Cu581  N592    2.016   .     S
Cu581  O593    1.956   .     S
Cu581  O597    1.948   .     S
Cu581  Cu582   2.682   .     S
Cu582  O596    1.948   .     S
Cu582  O600    1.960   .     S
Cu582  O594    1.948   .     S
Cu582  O598    1.956   .     S
Cu582  N591    2.016   .     S
H583   C741    1.088   .     S
H585   N648    1.029   .     S
N591   H640    1.028   .     S
N591   N648    1.290   .     S
C602   H608    1.112   .     S
C602   H607    1.110   .     S
C602   C603    1.531   .     S
C603   H604    1.110   .     S
C603   H605    1.109   .     S
C603   H606    1.109   .     S
C610   H615    1.111   .     S
C610   H616    1.108   .     S
C610   C907    1.533   1_545 S
C610   C947    1.528   1_545 S
C611   H612    1.111   .     S
C611   H613    1.108   .     S
C611   C778    1.528   .     S
C611   H782    1.111   .     S
H614   C947    1.111   1_545 S
C617   O649    1.290   .     A
C617   O650    1.286   .     A
C617   C627    1.440   .     S
C618   C619    1.418   .     A
C618   C116    1.424   1_556 S
C618   C132    1.408   1_556 S
C619   C623    1.411   .     A
C619   C626    1.425   .     A
C620   C624    1.420   .     A
C620   C621    1.420   .     A
C621   C632    1.392   .     A
C622   C623    1.386   .     A
C622   H642    1.085   .     S
C622   C117    1.394   1_556 S
C623   I665    2.113   .     S
C624   C633    1.416   .     A
C624   C658    1.530   .     S
C625   I657    2.126   .     S
C625   C633    1.411   .     A
C625   C632    1.385   .     A
C626   C628    1.477   .     S
C626   C634    1.403   .     A
C627   C797    1.342   .     S
C627   C834    1.533   .     S
C628   O652    1.286   .     A
C628   O651    1.310   .     A
C629   C630    1.427   .     S
C629   C963    1.342   1_545 S
C629   H975    1.088   1_545 S
C630   O654    1.286   .     A
C630   O653    1.288   .     A
C631   O655    1.289   .     A
C631   O656    1.297   .     A
C631   C633    1.454   .     S
C632   H643    1.084   .     S
C634   H644    1.083   .     S
C634   C635    1.392   .     A
C635   H646    1.083   .     S
C635   C132    1.393   1_556 S
C636   H645    1.076   .     S
Cu637  O651    1.960   .     S
Cu637  O655    1.948   .     S
Cu637  N648    2.016   .     S
Cu637  O649    1.956   .     S
Cu637  O653    1.948   .     S
Cu637  Cu638   2.682   .     S
Cu638  O652    1.948   .     S
Cu638  O656    1.960   .     S
Cu638  O650    1.948   .     S
Cu638  O654    1.956   .     S
Cu638  N647    2.016   .     S
H639   C797    1.088   .     S
H641   N536    1.029   1_655 S
N647   H528    1.028   1_655 S
N647   N536    1.290   1_655 S
C658   H664    1.112   .     S
C658   H663    1.110   .     S
C658   C659    1.531   .     S
C659   H660    1.110   .     S
C659   H661    1.109   .     S
C659   H662    1.109   .     S
C666   H671    1.111   .     S
C666   H672    1.108   .     S
C666   C963    1.533   1_545 S
C666   C1003   1.528   1_545 S
C667   H668    1.111   .     S
C667   H669    1.108   .     S
C667   C834    1.528   .     S
C667   H838    1.111   .     S
H670   C1003   1.111   1_545 S
C673   O705    1.290   .     A
C673   O706    1.286   .     A
C673   C683    1.440   .     S
C674   C675    1.418   .     A
C674   C172    1.424   1_556 S
C674   C188    1.408   1_556 S
C675   C679    1.411   .     A
C675   C682    1.425   .     A
C676   C680    1.420   .     A
C676   C677    1.420   .     A
C677   C688    1.392   .     A
C678   C679    1.386   .     A
C678   H698    1.085   .     S
C678   C173    1.394   1_556 S
C679   I721    2.113   .     S
C680   C689    1.416   .     A
C680   C714    1.530   .     S
C681   I713    2.126   .     S
C681   C689    1.411   .     A
C681   C688    1.385   .     A
C682   C684    1.477   .     S
C682   C690    1.403   .     A
C683   C853    1.342   .     S
C683   C890    1.533   .     S
C684   O708    1.286   .     A
C684   O707    1.310   .     A
C685   C686    1.427   .     S
C686   O710    1.286   .     A
C686   O709    1.288   .     A
C687   O711    1.289   .     A
C687   O712    1.297   .     A
C687   C689    1.454   .     S
C688   H699    1.084   .     S
C690   H700    1.083   .     S
C690   C691    1.392   .     A
C691   H702    1.083   .     S
C691   C188    1.393   1_556 S
C692   H701    1.076   .     S
Cu693  O707    1.960   .     S
Cu693  O711    1.948   .     S
Cu693  N704    2.016   .     S
Cu693  O705    1.956   .     S
Cu693  O709    1.948   .     S
Cu693  Cu694   2.682   .     S
Cu694  O708    1.948   .     S
Cu694  O712    1.960   .     S
Cu694  O706    1.948   .     S
Cu694  O710    1.956   .     S
Cu694  N703    2.016   .     S
H695   C853    1.088   .     S
H696   N815    1.028   1_455 S
H697   N760    1.029   .     S
N703   H752    1.028   .     S
N703   N760    1.290   .     S
N704   N815    1.290   1_455 S
N704   H809    1.029   1_455 S
C714   H720    1.112   .     S
C714   H719    1.110   .     S
C714   C715    1.531   .     S
C715   H716    1.110   .     S
C715   H717    1.109   .     S
C715   H718    1.109   .     S
C722   H727    1.111   .     S
C722   H728    1.108   .     S
C723   H724    1.111   .     S
C723   H725    1.108   .     S
C723   C890    1.528   .     S
C723   H894    1.111   .     S
C729   O761    1.290   .     A
C729   O762    1.286   .     A
C729   C739    1.440   .     S
C730   C731    1.418   .     A
C730   C228    1.424   1_556 S
C730   C244    1.408   1_556 S
C731   C735    1.411   .     A
C731   C738    1.425   .     A
C732   C736    1.420   .     A
C732   C733    1.420   .     A
C733   C744    1.392   .     A
C734   C735    1.386   .     A
C734   H754    1.085   .     S
C734   C229    1.394   1_556 S
C735   I777    2.113   .     S
C736   C745    1.416   .     A
C736   C770    1.530   .     S
C737   I769    2.126   .     S
C737   C745    1.411   .     A
C737   C744    1.385   .     A
C738   C740    1.477   .     S
C738   C746    1.403   .     A
C739   C909    1.342   .     S
C739   C946    1.533   .     S
C740   O764    1.286   .     A
C740   O763    1.310   .     A
C741   C742    1.427   .     S
C742   O766    1.286   .     A
C742   O765    1.288   .     A
C743   O767    1.289   .     A
C743   O768    1.297   .     A
C743   C745    1.454   .     S
C744   H755    1.084   .     S
C746   H756    1.083   .     S
C746   C747    1.392   .     A
C747   H758    1.083   .     S
C747   C244    1.393   1_556 S
C748   H757    1.076   .     S
Cu749  O763    1.960   .     S
Cu749  O767    1.948   .     S
Cu749  N760    2.016   .     S
Cu749  O761    1.956   .     S
Cu749  O765    1.948   .     S
Cu749  Cu750   2.682   .     S
Cu750  O764    1.948   .     S
Cu750  O768    1.960   .     S
Cu750  O762    1.948   .     S
Cu750  O766    1.956   .     S
Cu750  N759    2.016   .     S
H751   C909    1.088   .     S
H753   N816    1.029   .     S
N759   H808    1.028   .     S
N759   N816    1.290   .     S
C770   H776    1.112   .     S
C770   H775    1.110   .     S
C770   C771    1.531   .     S
C771   H772    1.110   .     S
C771   H773    1.109   .     S
C771   H774    1.109   .     S
C778   H783    1.111   .     S
C778   H784    1.108   .     S
C779   H780    1.111   .     S
C779   H781    1.108   .     S
C779   C946    1.528   .     S
C779   H950    1.111   .     S
C785   O817    1.290   .     A
C785   O818    1.286   .     A
C785   C795    1.440   .     S
C786   C787    1.418   .     A
C786   C284    1.424   1_556 S
C786   C300    1.408   1_556 S
C787   C791    1.411   .     A
C787   C794    1.425   .     A
C788   C792    1.420   .     A
C788   C789    1.420   .     A
C789   C800    1.392   .     A
C790   C791    1.386   .     A
C790   H810    1.085   .     S
C790   C285    1.394   1_556 S
C791   I833    2.113   .     S
C792   C801    1.416   .     A
C792   C826    1.530   .     S
C793   I825    2.126   .     S
C793   C801    1.411   .     A
C793   C800    1.385   .     A
C794   C796    1.477   .     S
C794   C802    1.403   .     A
C795   C965    1.342   .     S
C795   C1002   1.533   .     S
C796   O820    1.286   .     A
C796   O819    1.310   .     A
C797   C798    1.427   .     S
C798   O822    1.286   .     A
C798   O821    1.288   .     A
C799   O823    1.289   .     A
C799   O824    1.297   .     A
C799   C801    1.454   .     S
C800   H811    1.084   .     S
C802   H812    1.083   .     S
C802   C803    1.392   .     A
C803   H814    1.083   .     S
C803   C300    1.393   1_556 S
C804   H813    1.076   .     S
Cu805  O819    1.960   .     S
Cu805  O823    1.948   .     S
Cu805  N816    2.016   .     S
Cu805  O817    1.956   .     S
Cu805  O821    1.948   .     S
Cu805  Cu806   2.682   .     S
Cu806  O820    1.948   .     S
Cu806  O824    1.960   .     S
Cu806  O818    1.948   .     S
Cu806  O822    1.956   .     S
Cu806  N815    2.016   .     S
H807   C965    1.088   .     S
H809   N704    1.029   1_655 S
N815   H696    1.028   1_655 S
N815   N704    1.290   1_655 S
C826   H832    1.112   .     S
C826   H831    1.110   .     S
C826   C827    1.531   .     S
C827   H828    1.110   .     S
C827   H829    1.109   .     S
C827   H830    1.109   .     S
C834   H839    1.111   .     S
C834   H840    1.108   .     S
C835   H836    1.111   .     S
C835   H837    1.108   .     S
C835   C1002   1.528   .     S
C835   H1006   1.111   .     S
C841   O873    1.290   .     A
C841   O874    1.286   .     A
C841   C851    1.440   .     S
C842   C843    1.418   .     A
C842   C340    1.424   1_556 S
C842   C356    1.408   1_556 S
C843   C847    1.411   .     A
C843   C850    1.425   .     A
C844   C848    1.420   .     A
C844   C845    1.420   .     A
C845   C856    1.392   .     A
C846   C847    1.386   .     A
C846   H866    1.085   .     S
C846   C341    1.394   1_556 S
C847   I889    2.113   .     S
C848   C857    1.416   .     A
C848   C882    1.530   .     S
C849   I881    2.126   .     S
C849   C857    1.411   .     A
C849   C856    1.385   .     A
C850   C852    1.477   .     S
C850   C858    1.403   .     A
C851   C517    1.342   1_565 S
C851   C554    1.533   1_565 S
C852   O876    1.286   .     A
C852   O875    1.310   .     A
C853   C854    1.427   .     S
C854   O878    1.286   .     A
C854   O877    1.288   .     A
C855   O879    1.289   .     A
C855   O880    1.297   .     A
C855   C857    1.454   .     S
C856   H867    1.084   .     S
C858   H868    1.083   .     S
C858   C859    1.392   .     A
C859   H870    1.083   .     S
C859   C356    1.393   1_556 S
C860   H869    1.076   .     S
Cu861  O875    1.960   .     S
Cu861  O879    1.948   .     S
Cu861  N872    2.016   .     S
Cu861  O873    1.956   .     S
Cu861  O877    1.948   .     S
Cu861  Cu862   2.682   .     S
Cu862  O876    1.948   .     S
Cu862  O880    1.960   .     S
Cu862  O874    1.948   .     S
Cu862  O878    1.956   .     S
Cu862  N871    2.016   .     S
H863   C517    1.088   1_565 S
H864   N983    1.028   1_455 S
H865   N928    1.029   .     S
N871   H920    1.028   .     S
N871   N928    1.290   .     S
N872   N983    1.290   1_455 S
N872   H977    1.029   1_455 S
C882   H888    1.112   .     S
C882   H887    1.110   .     S
C882   C883    1.531   .     S
C883   H884    1.110   .     S
C883   H885    1.109   .     S
C883   H886    1.109   .     S
C890   H895    1.111   .     S
C890   H896    1.108   .     S
C891   H892    1.111   .     S
C891   H893    1.108   .     S
C891   C554    1.528   1_565 S
C891   H558    1.111   1_565 S
C897   O929    1.290   .     A
C897   O930    1.286   .     A
C897   C907    1.440   .     S
C898   C899    1.418   .     A
C898   C396    1.424   1_556 S
C898   C412    1.408   1_556 S
C899   C903    1.411   .     A
C899   C906    1.425   .     A
C900   C904    1.420   .     A
C900   C901    1.420   .     A
C901   C912    1.392   .     A
C902   C903    1.386   .     A
C902   H922    1.085   .     S
C902   C397    1.394   1_556 S
C903   I945    2.113   .     S
C904   C913    1.416   .     A
C904   C938    1.530   .     S
C905   I937    2.126   .     S
C905   C913    1.411   .     A
C905   C912    1.385   .     A
C906   C908    1.477   .     S
C906   C914    1.403   .     A
C907   C573    1.342   1_565 S
C907   C610    1.533   1_565 S
C908   O932    1.286   .     A
C908   O931    1.310   .     A
C909   C910    1.427   .     S
C910   O934    1.286   .     A
C910   O933    1.288   .     A
C911   O935    1.289   .     A
C911   O936    1.297   .     A
C911   C913    1.454   .     S
C912   H923    1.084   .     S
C914   H924    1.083   .     S
C914   C915    1.392   .     A
C915   H926    1.083   .     S
C915   C412    1.393   1_556 S
C916   H925    1.076   .     S
Cu917  O931    1.960   .     S
Cu917  O935    1.948   .     S
Cu917  N928    2.016   .     S
Cu917  O929    1.956   .     S
Cu917  O933    1.948   .     S
Cu917  Cu918   2.682   .     S
Cu918  O932    1.948   .     S
Cu918  O936    1.960   .     S
Cu918  O930    1.948   .     S
Cu918  O934    1.956   .     S
Cu918  N927    2.016   .     S
H919   C573    1.088   1_565 S
H921   N984    1.029   .     S
N927   H976    1.028   .     S
N927   N984    1.290   .     S
C938   H944    1.112   .     S
C938   H943    1.110   .     S
C938   C939    1.531   .     S
C939   H940    1.110   .     S
C939   H941    1.109   .     S
C939   H942    1.109   .     S
C946   H951    1.111   .     S
C946   H952    1.108   .     S
C947   H948    1.111   .     S
C947   H949    1.108   .     S
C947   C610    1.528   1_565 S
C947   H614    1.111   1_565 S
C953   O985    1.290   .     A
C953   O986    1.286   .     A
C953   C963    1.440   .     S
C954   C955    1.418   .     A
C954   C452    1.424   1_556 S
C954   C468    1.408   1_556 S
C955   C959    1.411   .     A
C955   C962    1.425   .     A
C956   C960    1.420   .     A
C956   C957    1.420   .     A
C957   C968    1.392   .     A
C958   C959    1.386   .     A
C958   H978    1.085   .     S
C958   C453    1.394   1_556 S
C959   I1001   2.113   .     S
C960   C969    1.416   .     A
C960   C994    1.530   .     S
C961   I993    2.126   .     S
C961   C969    1.411   .     A
C961   C968    1.385   .     A
C962   C964    1.477   .     S
C962   C970    1.403   .     A
C963   C629    1.342   1_565 S
C963   C666    1.533   1_565 S
C964   O988    1.286   .     A
C964   O987    1.310   .     A
C965   C966    1.427   .     S
C966   O990    1.286   .     A
C966   O989    1.288   .     A
C967   O991    1.289   .     A
C967   O992    1.297   .     A
C967   C969    1.454   .     S
C968   H979    1.084   .     S
C970   H980    1.083   .     S
C970   C971    1.392   .     A
C971   H982    1.083   .     S
C971   C468    1.393   1_556 S
C972   H981    1.076   .     S
Cu973  O987    1.960   .     S
Cu973  O991    1.948   .     S
Cu973  N984    2.016   .     S
Cu973  O985    1.956   .     S
Cu973  O989    1.948   .     S
Cu973  Cu974   2.682   .     S
Cu974  O988    1.948   .     S
Cu974  O992    1.960   .     S
Cu974  O986    1.948   .     S
Cu974  O990    1.956   .     S
Cu974  N983    2.016   .     S
H975   C629    1.088   1_565 S
H977   N872    1.029   1_655 S
N983   H864    1.028   1_655 S
N983   N872    1.290   1_655 S
C994   H1000   1.112   .     S
C994   H999    1.110   .     S
C994   C995    1.531   .     S
C995   H996    1.110   .     S
C995   H997    1.109   .     S
C995   H998    1.109   .     S
C1002  H1007   1.111   .     S
C1002  H1008   1.108   .     S
C1003  H1004   1.111   .     S
C1003  H1005   1.108   .     S
C1003  C666    1.528   1_565 S
C1003  H670    1.111   1_565 S
