data_str_m3_o1_o5_pcu_sym.38
_audit_creation_date              2020-01-03
_audit_creation_method            'Materials Studio'
_symmetry_space_group_name_H-M    'P1'
_symmetry_Int_Tables_number       1
_symmetry_cell_setting            triclinic
loop_
_symmetry_equiv_pos_as_xyz
  x,y,z
_cell_length_a                    32.5015
_cell_length_b                    30.1672
_cell_length_c                    26.6512
_cell_angle_alpha                 90.7378
_cell_angle_beta                  99.1909
_cell_angle_gamma                 89.6115
loop_
_atom_site_label
_atom_site_type_symbol
_atom_site_fract_x
_atom_site_fract_y
_atom_site_fract_z
_atom_site_U_iso_or_equiv
_atom_site_adp_type
_atom_site_occupancy
C1     C     0.08705   0.16689   0.16830   0.00000  Uiso   1.00
C2     C     0.02083   0.20775   0.16507   0.00000  Uiso   1.00
C3     C     0.29127   0.16689   0.16882   0.00000  Uiso   1.00
C4     C     0.04322   0.16751   0.17140   0.00000  Uiso   1.00
C5     C     0.19342   0.02455   0.20330   0.00000  Uiso   1.00
C6     C     0.13946   0.30887   0.13010   0.00000  Uiso   1.00
C7     C     0.13884   0.02409   0.13098   0.00000  Uiso   1.00
C8     C     0.19184   0.30966   0.20520   0.00000  Uiso   1.00
C9     C     0.24662   0.16663   0.16680   0.00000  Uiso   1.00
C10    C     0.16712   0.16648   0.07318   0.00000  Uiso   1.00
C11    C     0.16657   0.16683   0.26022   0.00000  Uiso   1.00
C12    C     0.16698   0.16638   0.02191   0.00000  Uiso   1.00
C13    C     0.16675   0.16688   0.31150   0.00000  Uiso   1.00
C14    C     0.02348   0.12766   0.18009   0.00000  Uiso   1.00
C15    C     0.31211   0.20784   0.16905   0.00000  Uiso   1.00
C16    C     0.31349   0.12647   0.17200   0.00000  Uiso   1.00
H17    H     0.03022   0.07118   0.21533   0.00000  Uiso   1.00
H18    H     0.31036   0.26964   0.19069   0.00000  Uiso   1.00
H19    H     0.31055   0.06353   0.15426   0.00000  Uiso   1.00
H20    H     0.01981   0.26662   0.13551   0.00000  Uiso   1.00
H21    H     0.26112   0.11244   0.28328   0.00000  Uiso   1.00
H22    H     0.08120   0.21788   0.04482   0.00000  Uiso   1.00
H23    H     0.06913   0.11252   0.05533   0.00000  Uiso   1.00
H24    H     0.24692   0.21971   0.28719   0.00000  Uiso   1.00
N25    N     0.16667   0.28573   0.16667   0.00000  Uiso   1.00
N26    N     0.16667   0.04760   0.16667   0.00000  Uiso   1.00
O27    O     0.10559   0.20487   0.16666   0.00000  Uiso   1.00
O28    O     0.29106   0.24760   0.17187   0.00000  Uiso   1.00
O29    O     0.29272   0.08640   0.16721   0.00000  Uiso   1.00
O30    O     0.04034   0.24667   0.15560   0.00000  Uiso   1.00
O31    O     0.21564   0.04508   0.30183   0.00000  Uiso   1.00
O32    O     0.27198   0.03207   0.25078   0.00000  Uiso   1.00
O33    O     0.23978   0.10729   0.25282   0.00000  Uiso   1.00
O34    O     0.06388   0.29986   0.06549   0.00000  Uiso   1.00
O35    O     0.12786   0.28502   0.03161   0.00000  Uiso   1.00
O36    O     0.09491   0.22611   0.07959   0.00000  Uiso   1.00
O37    O     0.09895   0.03457   0.03413   0.00000  Uiso   1.00
O38    O     0.22774   0.12846   0.16667   0.00000  Uiso   1.00
O39    O     0.05752   0.04117   0.10350   0.00000  Uiso   1.00
O40    O     0.09571   0.10709   0.07839   0.00000  Uiso   1.00
O41    O     0.24904   0.30446   0.29906   0.00000  Uiso   1.00
O42    O     0.18101   0.27321   0.29326   0.00000  Uiso   1.00
O43    O     0.23906   0.23307   0.25319   0.00000  Uiso   1.00
O44    O     0.22774   0.20487   0.16667   0.00000  Uiso   1.00
O45    O     0.10559   0.12846   0.16666   0.00000  Uiso   1.00
O46    O     0.16667   0.20488   0.09511   0.00000  Uiso   1.00
O47    O     0.16666   0.12845   0.23822   0.00000  Uiso   1.00
O48    O     0.16666   0.20488   0.23822   0.00000  Uiso   1.00
O49    O     0.16667   0.12845   0.09511   0.00000  Uiso   1.00
O50    O     0.04682   0.09054   0.19649   0.00000  Uiso   1.00
S51    S     0.22998   0.05303   0.25177   0.00000  Uiso   1.00
S52    S     0.10655   0.27977   0.07719   0.00000  Uiso   1.00
S53    S     0.09828   0.05237   0.08691   0.00000  Uiso   1.00
S54    S     0.21567   0.28113   0.26340   0.00000  Uiso   1.00
Zn55   Zn    0.16667   0.21771   0.16667   0.00000  Uiso   1.00
Zn56   Zn    0.16667   0.11563   0.16667   0.00000  Uiso   1.00
C57    C     0.42038   0.16689   0.16830   0.00000  Uiso   1.00
C58    C     0.35417   0.20775   0.16507   0.00000  Uiso   1.00
C59    C     0.62460   0.16689   0.16882   0.00000  Uiso   1.00
C60    C     0.37656   0.16751   0.17140   0.00000  Uiso   1.00
C61    C     0.52676   0.02455   0.20330   0.00000  Uiso   1.00
C62    C     0.47279   0.30887   0.13010   0.00000  Uiso   1.00
C63    C     0.47218   0.02409   0.13098   0.00000  Uiso   1.00
C64    C     0.52517   0.30966   0.20520   0.00000  Uiso   1.00
C65    C     0.57995   0.16663   0.16680   0.00000  Uiso   1.00
C66    C     0.50046   0.16648   0.07318   0.00000  Uiso   1.00
C67    C     0.49990   0.16683   0.26022   0.00000  Uiso   1.00
C68    C     0.50032   0.16638   0.02191   0.00000  Uiso   1.00
C69    C     0.50009   0.16688   0.31150   0.00000  Uiso   1.00
C70    C     0.35681   0.12766   0.18009   0.00000  Uiso   1.00
C71    C     0.64544   0.20784   0.16905   0.00000  Uiso   1.00
C72    C     0.64682   0.12647   0.17200   0.00000  Uiso   1.00
H73    H     0.36355   0.07118   0.21533   0.00000  Uiso   1.00
H74    H     0.64369   0.26964   0.19069   0.00000  Uiso   1.00
H75    H     0.64389   0.06353   0.15426   0.00000  Uiso   1.00
H76    H     0.35315   0.26662   0.13551   0.00000  Uiso   1.00
H77    H     0.59445   0.11244   0.28328   0.00000  Uiso   1.00
H78    H     0.41454   0.21788   0.04482   0.00000  Uiso   1.00
H79    H     0.40246   0.11252   0.05533   0.00000  Uiso   1.00
H80    H     0.58025   0.21971   0.28719   0.00000  Uiso   1.00
N81    N     0.50000   0.28573   0.16667   0.00000  Uiso   1.00
N82    N     0.50000   0.04760   0.16667   0.00000  Uiso   1.00
O83    O     0.43892   0.20487   0.16666   0.00000  Uiso   1.00
O84    O     0.62439   0.24760   0.17187   0.00000  Uiso   1.00
O85    O     0.62606   0.08640   0.16721   0.00000  Uiso   1.00
O86    O     0.37367   0.24667   0.15560   0.00000  Uiso   1.00
O87    O     0.54897   0.04508   0.30183   0.00000  Uiso   1.00
O88    O     0.60532   0.03207   0.25078   0.00000  Uiso   1.00
O89    O     0.57311   0.10729   0.25282   0.00000  Uiso   1.00
O90    O     0.39721   0.29986   0.06549   0.00000  Uiso   1.00
O91    O     0.46119   0.28502   0.03161   0.00000  Uiso   1.00
O92    O     0.42824   0.22611   0.07959   0.00000  Uiso   1.00
O93    O     0.43228   0.03457   0.03413   0.00000  Uiso   1.00
O94    O     0.56108   0.12846   0.16667   0.00000  Uiso   1.00
O95    O     0.39086   0.04117   0.10350   0.00000  Uiso   1.00
O96    O     0.42905   0.10709   0.07839   0.00000  Uiso   1.00
O97    O     0.58238   0.30446   0.29906   0.00000  Uiso   1.00
O98    O     0.51434   0.27321   0.29326   0.00000  Uiso   1.00
O99    O     0.57239   0.23307   0.25319   0.00000  Uiso   1.00
O100   O     0.56108   0.20487   0.16667   0.00000  Uiso   1.00
O101   O     0.43892   0.12846   0.16666   0.00000  Uiso   1.00
O102   O     0.50000   0.20488   0.09511   0.00000  Uiso   1.00
O103   O     0.50000   0.12845   0.23822   0.00000  Uiso   1.00
O104   O     0.50000   0.20488   0.23822   0.00000  Uiso   1.00
O105   O     0.50000   0.12845   0.09511   0.00000  Uiso   1.00
O106   O     0.38015   0.09054   0.19649   0.00000  Uiso   1.00
S107   S     0.56331   0.05303   0.25177   0.00000  Uiso   1.00
S108   S     0.43989   0.27977   0.07719   0.00000  Uiso   1.00
S109   S     0.43161   0.05237   0.08691   0.00000  Uiso   1.00
S110   S     0.54900   0.28113   0.26340   0.00000  Uiso   1.00
Zn111  Zn    0.50000   0.21771   0.16667   0.00000  Uiso   1.00
Zn112  Zn    0.50000   0.11563   0.16667   0.00000  Uiso   1.00
C113   C     0.75371   0.16689   0.16830   0.00000  Uiso   1.00
C114   C     0.68750   0.20775   0.16507   0.00000  Uiso   1.00
C115   C     0.95793   0.16689   0.16882   0.00000  Uiso   1.00
C116   C     0.70989   0.16751   0.17140   0.00000  Uiso   1.00
C117   C     0.86009   0.02455   0.20330   0.00000  Uiso   1.00
C118   C     0.80613   0.30887   0.13010   0.00000  Uiso   1.00
C119   C     0.80551   0.02409   0.13098   0.00000  Uiso   1.00
C120   C     0.85851   0.30966   0.20520   0.00000  Uiso   1.00
C121   C     0.91329   0.16663   0.16680   0.00000  Uiso   1.00
C122   C     0.83379   0.16648   0.07318   0.00000  Uiso   1.00
C123   C     0.83323   0.16683   0.26022   0.00000  Uiso   1.00
C124   C     0.83365   0.16638   0.02191   0.00000  Uiso   1.00
C125   C     0.83342   0.16688   0.31150   0.00000  Uiso   1.00
C126   C     0.69014   0.12766   0.18009   0.00000  Uiso   1.00
C127   C     0.97877   0.20784   0.16905   0.00000  Uiso   1.00
C128   C     0.98016   0.12647   0.17200   0.00000  Uiso   1.00
H129   H     0.69688   0.07118   0.21533   0.00000  Uiso   1.00
H130   H     0.97703   0.26964   0.19069   0.00000  Uiso   1.00
H131   H     0.97722   0.06353   0.15426   0.00000  Uiso   1.00
H132   H     0.68648   0.26662   0.13551   0.00000  Uiso   1.00
H133   H     0.92778   0.11244   0.28328   0.00000  Uiso   1.00
H134   H     0.74787   0.21788   0.04482   0.00000  Uiso   1.00
H135   H     0.73579   0.11252   0.05533   0.00000  Uiso   1.00
H136   H     0.91358   0.21971   0.28719   0.00000  Uiso   1.00
N137   N     0.83333   0.28573   0.16667   0.00000  Uiso   1.00
N138   N     0.83333   0.04760   0.16667   0.00000  Uiso   1.00
O139   O     0.77226   0.20487   0.16666   0.00000  Uiso   1.00
O140   O     0.95773   0.24760   0.17187   0.00000  Uiso   1.00
O141   O     0.95939   0.08640   0.16721   0.00000  Uiso   1.00
O142   O     0.70701   0.24667   0.15560   0.00000  Uiso   1.00
O143   O     0.88230   0.04508   0.30183   0.00000  Uiso   1.00
O144   O     0.93865   0.03207   0.25078   0.00000  Uiso   1.00
O145   O     0.90645   0.10729   0.25282   0.00000  Uiso   1.00
O146   O     0.73054   0.29986   0.06549   0.00000  Uiso   1.00
O147   O     0.79453   0.28502   0.03161   0.00000  Uiso   1.00
O148   O     0.76158   0.22611   0.07959   0.00000  Uiso   1.00
O149   O     0.76561   0.03457   0.03413   0.00000  Uiso   1.00
O150   O     0.89441   0.12846   0.16667   0.00000  Uiso   1.00
O151   O     0.72419   0.04117   0.10350   0.00000  Uiso   1.00
O152   O     0.76238   0.10709   0.07839   0.00000  Uiso   1.00
O153   O     0.91571   0.30446   0.29906   0.00000  Uiso   1.00
O154   O     0.84768   0.27321   0.29326   0.00000  Uiso   1.00
O155   O     0.90572   0.23307   0.25319   0.00000  Uiso   1.00
O156   O     0.89441   0.20487   0.16667   0.00000  Uiso   1.00
O157   O     0.77226   0.12846   0.16666   0.00000  Uiso   1.00
O158   O     0.83334   0.20488   0.09511   0.00000  Uiso   1.00
O159   O     0.83333   0.12845   0.23822   0.00000  Uiso   1.00
O160   O     0.83333   0.20488   0.23822   0.00000  Uiso   1.00
O161   O     0.83334   0.12845   0.09511   0.00000  Uiso   1.00
O162   O     0.71349   0.09054   0.19649   0.00000  Uiso   1.00
S163   S     0.89665   0.05303   0.25177   0.00000  Uiso   1.00
S164   S     0.77322   0.27977   0.07719   0.00000  Uiso   1.00
S165   S     0.76494   0.05237   0.08691   0.00000  Uiso   1.00
S166   S     0.88234   0.28113   0.26340   0.00000  Uiso   1.00
Zn167  Zn    0.83333   0.21771   0.16667   0.00000  Uiso   1.00
Zn168  Zn    0.83333   0.11563   0.16667   0.00000  Uiso   1.00
C169   C     0.08705   0.50023   0.16830   0.00000  Uiso   1.00
C170   C     0.02083   0.54108   0.16507   0.00000  Uiso   1.00
C171   C     0.29127   0.50022   0.16882   0.00000  Uiso   1.00
C172   C     0.04322   0.50085   0.17140   0.00000  Uiso   1.00
C173   C     0.19342   0.35788   0.20330   0.00000  Uiso   1.00
C174   C     0.13946   0.64221   0.13010   0.00000  Uiso   1.00
C175   C     0.13884   0.35742   0.13098   0.00000  Uiso   1.00
C176   C     0.19184   0.64299   0.20520   0.00000  Uiso   1.00
C177   C     0.24662   0.49996   0.16680   0.00000  Uiso   1.00
C178   C     0.16712   0.49982   0.07318   0.00000  Uiso   1.00
C179   C     0.16657   0.50017   0.26022   0.00000  Uiso   1.00
C180   C     0.16698   0.49971   0.02191   0.00000  Uiso   1.00
C181   C     0.16675   0.50021   0.31150   0.00000  Uiso   1.00
C182   C     0.02348   0.46099   0.18009   0.00000  Uiso   1.00
C183   C     0.31211   0.54117   0.16905   0.00000  Uiso   1.00
C184   C     0.31349   0.45981   0.17200   0.00000  Uiso   1.00
H185   H     0.03022   0.40452   0.21533   0.00000  Uiso   1.00
H186   H     0.31036   0.60297   0.19069   0.00000  Uiso   1.00
H187   H     0.31055   0.39687   0.15426   0.00000  Uiso   1.00
H188   H     0.01981   0.59995   0.13551   0.00000  Uiso   1.00
H189   H     0.26112   0.44577   0.28328   0.00000  Uiso   1.00
H190   H     0.08120   0.55122   0.04482   0.00000  Uiso   1.00
H191   H     0.06913   0.44586   0.05533   0.00000  Uiso   1.00
H192   H     0.24692   0.55304   0.28719   0.00000  Uiso   1.00
N193   N     0.16667   0.61907   0.16667   0.00000  Uiso   1.00
N194   N     0.16667   0.38093   0.16667   0.00000  Uiso   1.00
O195   O     0.10559   0.53821   0.16666   0.00000  Uiso   1.00
O196   O     0.29106   0.58093   0.17187   0.00000  Uiso   1.00
O197   O     0.29272   0.41973   0.16721   0.00000  Uiso   1.00
O198   O     0.04034   0.58001   0.15560   0.00000  Uiso   1.00
O199   O     0.21564   0.37841   0.30183   0.00000  Uiso   1.00
O200   O     0.27198   0.36541   0.25078   0.00000  Uiso   1.00
O201   O     0.23978   0.44063   0.25282   0.00000  Uiso   1.00
O202   O     0.06388   0.63320   0.06549   0.00000  Uiso   1.00
O203   O     0.12786   0.61836   0.03161   0.00000  Uiso   1.00
O204   O     0.09491   0.55944   0.07959   0.00000  Uiso   1.00
O205   O     0.09895   0.36790   0.03413   0.00000  Uiso   1.00
O206   O     0.22774   0.46179   0.16667   0.00000  Uiso   1.00
O207   O     0.05752   0.37450   0.10350   0.00000  Uiso   1.00
O208   O     0.09571   0.44042   0.07839   0.00000  Uiso   1.00
O209   O     0.24904   0.63780   0.29906   0.00000  Uiso   1.00
O210   O     0.18101   0.60654   0.29326   0.00000  Uiso   1.00
O211   O     0.23906   0.56640   0.25319   0.00000  Uiso   1.00
O212   O     0.22774   0.53821   0.16667   0.00000  Uiso   1.00
O213   O     0.10559   0.46179   0.16666   0.00000  Uiso   1.00
O214   O     0.16667   0.53821   0.09511   0.00000  Uiso   1.00
O215   O     0.16666   0.46179   0.23822   0.00000  Uiso   1.00
O216   O     0.16666   0.53821   0.23822   0.00000  Uiso   1.00
O217   O     0.16667   0.46179   0.09511   0.00000  Uiso   1.00
O218   O     0.04682   0.42388   0.19649   0.00000  Uiso   1.00
S219   S     0.22998   0.38636   0.25177   0.00000  Uiso   1.00
S220   S     0.10655   0.61310   0.07719   0.00000  Uiso   1.00
S221   S     0.09828   0.38570   0.08691   0.00000  Uiso   1.00
S222   S     0.21567   0.61446   0.26340   0.00000  Uiso   1.00
Zn223  Zn    0.16667   0.55104   0.16667   0.00000  Uiso   1.00
Zn224  Zn    0.16667   0.44896   0.16667   0.00000  Uiso   1.00
C225   C     0.42038   0.50023   0.16830   0.00000  Uiso   1.00
C226   C     0.35417   0.54108   0.16507   0.00000  Uiso   1.00
C227   C     0.62460   0.50022   0.16882   0.00000  Uiso   1.00
C228   C     0.37656   0.50085   0.17140   0.00000  Uiso   1.00
C229   C     0.52676   0.35788   0.20330   0.00000  Uiso   1.00
C230   C     0.47279   0.64221   0.13010   0.00000  Uiso   1.00
C231   C     0.47218   0.35742   0.13098   0.00000  Uiso   1.00
C232   C     0.52517   0.64299   0.20520   0.00000  Uiso   1.00
C233   C     0.57995   0.49996   0.16680   0.00000  Uiso   1.00
C234   C     0.50046   0.49982   0.07318   0.00000  Uiso   1.00
C235   C     0.49990   0.50017   0.26022   0.00000  Uiso   1.00
C236   C     0.50032   0.49971   0.02191   0.00000  Uiso   1.00
C237   C     0.50009   0.50021   0.31150   0.00000  Uiso   1.00
C238   C     0.35681   0.46099   0.18009   0.00000  Uiso   1.00
C239   C     0.64544   0.54117   0.16905   0.00000  Uiso   1.00
C240   C     0.64682   0.45981   0.17200   0.00000  Uiso   1.00
H241   H     0.36355   0.40452   0.21533   0.00000  Uiso   1.00
H242   H     0.64369   0.60297   0.19069   0.00000  Uiso   1.00
H243   H     0.64389   0.39687   0.15426   0.00000  Uiso   1.00
H244   H     0.35315   0.59995   0.13551   0.00000  Uiso   1.00
H245   H     0.59445   0.44577   0.28328   0.00000  Uiso   1.00
H246   H     0.41454   0.55122   0.04482   0.00000  Uiso   1.00
H247   H     0.40246   0.44586   0.05533   0.00000  Uiso   1.00
H248   H     0.58025   0.55304   0.28719   0.00000  Uiso   1.00
N249   N     0.50000   0.61907   0.16667   0.00000  Uiso   1.00
N250   N     0.50000   0.38093   0.16667   0.00000  Uiso   1.00
O251   O     0.43892   0.53821   0.16666   0.00000  Uiso   1.00
O252   O     0.62439   0.58093   0.17187   0.00000  Uiso   1.00
O253   O     0.62606   0.41973   0.16721   0.00000  Uiso   1.00
O254   O     0.37367   0.58001   0.15560   0.00000  Uiso   1.00
O255   O     0.54897   0.37841   0.30183   0.00000  Uiso   1.00
O256   O     0.60532   0.36541   0.25078   0.00000  Uiso   1.00
O257   O     0.57311   0.44063   0.25282   0.00000  Uiso   1.00
O258   O     0.39721   0.63320   0.06549   0.00000  Uiso   1.00
O259   O     0.46119   0.61836   0.03161   0.00000  Uiso   1.00
O260   O     0.42824   0.55944   0.07959   0.00000  Uiso   1.00
O261   O     0.43228   0.36790   0.03413   0.00000  Uiso   1.00
O262   O     0.56108   0.46179   0.16667   0.00000  Uiso   1.00
O263   O     0.39086   0.37450   0.10350   0.00000  Uiso   1.00
O264   O     0.42905   0.44042   0.07839   0.00000  Uiso   1.00
O265   O     0.58238   0.63780   0.29906   0.00000  Uiso   1.00
O266   O     0.51434   0.60654   0.29326   0.00000  Uiso   1.00
O267   O     0.57239   0.56640   0.25319   0.00000  Uiso   1.00
O268   O     0.56108   0.53821   0.16667   0.00000  Uiso   1.00
O269   O     0.43892   0.46179   0.16666   0.00000  Uiso   1.00
O270   O     0.50000   0.53821   0.09511   0.00000  Uiso   1.00
O271   O     0.50000   0.46179   0.23822   0.00000  Uiso   1.00
O272   O     0.50000   0.53821   0.23822   0.00000  Uiso   1.00
O273   O     0.50000   0.46179   0.09511   0.00000  Uiso   1.00
O274   O     0.38015   0.42388   0.19649   0.00000  Uiso   1.00
S275   S     0.56331   0.38636   0.25177   0.00000  Uiso   1.00
S276   S     0.43989   0.61310   0.07719   0.00000  Uiso   1.00
S277   S     0.43161   0.38570   0.08691   0.00000  Uiso   1.00
S278   S     0.54900   0.61446   0.26340   0.00000  Uiso   1.00
Zn279  Zn    0.50000   0.55104   0.16667   0.00000  Uiso   1.00
Zn280  Zn    0.50000   0.44896   0.16667   0.00000  Uiso   1.00
C281   C     0.75371   0.50023   0.16830   0.00000  Uiso   1.00
C282   C     0.68750   0.54108   0.16507   0.00000  Uiso   1.00
C283   C     0.95793   0.50022   0.16882   0.00000  Uiso   1.00
C284   C     0.70989   0.50085   0.17140   0.00000  Uiso   1.00
C285   C     0.86009   0.35788   0.20330   0.00000  Uiso   1.00
C286   C     0.80613   0.64221   0.13010   0.00000  Uiso   1.00
C287   C     0.80551   0.35742   0.13098   0.00000  Uiso   1.00
C288   C     0.85851   0.64299   0.20520   0.00000  Uiso   1.00
C289   C     0.91329   0.49996   0.16680   0.00000  Uiso   1.00
C290   C     0.83379   0.49982   0.07318   0.00000  Uiso   1.00
C291   C     0.83323   0.50017   0.26022   0.00000  Uiso   1.00
C292   C     0.83365   0.49971   0.02191   0.00000  Uiso   1.00
C293   C     0.83342   0.50021   0.31150   0.00000  Uiso   1.00
C294   C     0.69014   0.46099   0.18009   0.00000  Uiso   1.00
C295   C     0.97877   0.54117   0.16905   0.00000  Uiso   1.00
C296   C     0.98016   0.45981   0.17200   0.00000  Uiso   1.00
H297   H     0.69688   0.40452   0.21533   0.00000  Uiso   1.00
H298   H     0.97703   0.60297   0.19069   0.00000  Uiso   1.00
H299   H     0.97722   0.39687   0.15426   0.00000  Uiso   1.00
H300   H     0.68648   0.59995   0.13551   0.00000  Uiso   1.00
H301   H     0.92778   0.44577   0.28328   0.00000  Uiso   1.00
H302   H     0.74787   0.55122   0.04482   0.00000  Uiso   1.00
H303   H     0.73579   0.44586   0.05533   0.00000  Uiso   1.00
H304   H     0.91358   0.55304   0.28719   0.00000  Uiso   1.00
N305   N     0.83333   0.61907   0.16667   0.00000  Uiso   1.00
N306   N     0.83333   0.38093   0.16667   0.00000  Uiso   1.00
O307   O     0.77226   0.53821   0.16666   0.00000  Uiso   1.00
O308   O     0.95773   0.58093   0.17187   0.00000  Uiso   1.00
O309   O     0.95939   0.41973   0.16721   0.00000  Uiso   1.00
O310   O     0.70701   0.58001   0.15560   0.00000  Uiso   1.00
O311   O     0.88230   0.37841   0.30183   0.00000  Uiso   1.00
O312   O     0.93865   0.36541   0.25078   0.00000  Uiso   1.00
O313   O     0.90645   0.44063   0.25282   0.00000  Uiso   1.00
O314   O     0.73054   0.63320   0.06549   0.00000  Uiso   1.00
O315   O     0.79453   0.61836   0.03161   0.00000  Uiso   1.00
O316   O     0.76158   0.55944   0.07959   0.00000  Uiso   1.00
O317   O     0.76561   0.36790   0.03413   0.00000  Uiso   1.00
O318   O     0.89441   0.46179   0.16667   0.00000  Uiso   1.00
O319   O     0.72419   0.37450   0.10350   0.00000  Uiso   1.00
O320   O     0.76238   0.44042   0.07839   0.00000  Uiso   1.00
O321   O     0.91571   0.63780   0.29906   0.00000  Uiso   1.00
O322   O     0.84768   0.60654   0.29326   0.00000  Uiso   1.00
O323   O     0.90572   0.56640   0.25319   0.00000  Uiso   1.00
O324   O     0.89441   0.53821   0.16667   0.00000  Uiso   1.00
O325   O     0.77226   0.46179   0.16666   0.00000  Uiso   1.00
O326   O     0.83334   0.53821   0.09511   0.00000  Uiso   1.00
O327   O     0.83333   0.46179   0.23822   0.00000  Uiso   1.00
O328   O     0.83333   0.53821   0.23822   0.00000  Uiso   1.00
O329   O     0.83334   0.46179   0.09511   0.00000  Uiso   1.00
O330   O     0.71349   0.42388   0.19649   0.00000  Uiso   1.00
S331   S     0.89665   0.38636   0.25177   0.00000  Uiso   1.00
S332   S     0.77322   0.61310   0.07719   0.00000  Uiso   1.00
S333   S     0.76494   0.38570   0.08691   0.00000  Uiso   1.00
S334   S     0.88234   0.61446   0.26340   0.00000  Uiso   1.00
Zn335  Zn    0.83333   0.55104   0.16667   0.00000  Uiso   1.00
Zn336  Zn    0.83333   0.44896   0.16667   0.00000  Uiso   1.00
C337   C     0.08705   0.83356   0.16830   0.00000  Uiso   1.00
C338   C     0.02083   0.87441   0.16507   0.00000  Uiso   1.00
C339   C     0.29127   0.83356   0.16882   0.00000  Uiso   1.00
C340   C     0.04322   0.83418   0.17140   0.00000  Uiso   1.00
C341   C     0.19342   0.69122   0.20330   0.00000  Uiso   1.00
C342   C     0.13946   0.97554   0.13010   0.00000  Uiso   1.00
C343   C     0.13884   0.69076   0.13098   0.00000  Uiso   1.00
C344   C     0.19184   0.97632   0.20520   0.00000  Uiso   1.00
C345   C     0.24662   0.83329   0.16680   0.00000  Uiso   1.00
C346   C     0.16712   0.83315   0.07318   0.00000  Uiso   1.00
C347   C     0.16657   0.83350   0.26022   0.00000  Uiso   1.00
C348   C     0.16698   0.83305   0.02191   0.00000  Uiso   1.00
C349   C     0.16675   0.83354   0.31150   0.00000  Uiso   1.00
C350   C     0.02348   0.79433   0.18009   0.00000  Uiso   1.00
C351   C     0.31211   0.87451   0.16905   0.00000  Uiso   1.00
C352   C     0.31349   0.79314   0.17200   0.00000  Uiso   1.00
H353   H     0.03022   0.73785   0.21533   0.00000  Uiso   1.00
H354   H     0.31036   0.93630   0.19069   0.00000  Uiso   1.00
H355   H     0.31055   0.73020   0.15426   0.00000  Uiso   1.00
H356   H     0.01981   0.93328   0.13551   0.00000  Uiso   1.00
H357   H     0.26112   0.77911   0.28328   0.00000  Uiso   1.00
H358   H     0.08120   0.88455   0.04482   0.00000  Uiso   1.00
H359   H     0.06913   0.77919   0.05533   0.00000  Uiso   1.00
H360   H     0.24692   0.88638   0.28719   0.00000  Uiso   1.00
N361   N     0.16667   0.95240   0.16667   0.00000  Uiso   1.00
N362   N     0.16667   0.71427   0.16667   0.00000  Uiso   1.00
O363   O     0.10559   0.87154   0.16666   0.00000  Uiso   1.00
O364   O     0.29106   0.91427   0.17187   0.00000  Uiso   1.00
O365   O     0.29272   0.75307   0.16721   0.00000  Uiso   1.00
O366   O     0.04034   0.91334   0.15560   0.00000  Uiso   1.00
O367   O     0.21564   0.71174   0.30183   0.00000  Uiso   1.00
O368   O     0.27198   0.69874   0.25078   0.00000  Uiso   1.00
O369   O     0.23978   0.77396   0.25282   0.00000  Uiso   1.00
O370   O     0.06388   0.96653   0.06549   0.00000  Uiso   1.00
O371   O     0.12786   0.95169   0.03161   0.00000  Uiso   1.00
O372   O     0.09491   0.89277   0.07959   0.00000  Uiso   1.00
O373   O     0.09895   0.70123   0.03413   0.00000  Uiso   1.00
O374   O     0.22774   0.79513   0.16667   0.00000  Uiso   1.00
O375   O     0.05752   0.70784   0.10350   0.00000  Uiso   1.00
O376   O     0.09571   0.77376   0.07839   0.00000  Uiso   1.00
O377   O     0.24904   0.97113   0.29906   0.00000  Uiso   1.00
O378   O     0.18101   0.93988   0.29326   0.00000  Uiso   1.00
O379   O     0.23906   0.89973   0.25319   0.00000  Uiso   1.00
O380   O     0.22774   0.87154   0.16667   0.00000  Uiso   1.00
O381   O     0.10559   0.79513   0.16666   0.00000  Uiso   1.00
O382   O     0.16667   0.87155   0.09511   0.00000  Uiso   1.00
O383   O     0.16666   0.79512   0.23822   0.00000  Uiso   1.00
O384   O     0.16666   0.87155   0.23822   0.00000  Uiso   1.00
O385   O     0.16667   0.79512   0.09511   0.00000  Uiso   1.00
O386   O     0.04682   0.75721   0.19649   0.00000  Uiso   1.00
S387   S     0.22998   0.71970   0.25177   0.00000  Uiso   1.00
S388   S     0.10655   0.94644   0.07719   0.00000  Uiso   1.00
S389   S     0.09828   0.71903   0.08691   0.00000  Uiso   1.00
S390   S     0.21567   0.94779   0.26340   0.00000  Uiso   1.00
Zn391  Zn    0.16667   0.88437   0.16667   0.00000  Uiso   1.00
Zn392  Zn    0.16667   0.78229   0.16667   0.00000  Uiso   1.00
C393   C     0.42038   0.83356   0.16830   0.00000  Uiso   1.00
C394   C     0.35417   0.87441   0.16507   0.00000  Uiso   1.00
C395   C     0.62460   0.83356   0.16882   0.00000  Uiso   1.00
C396   C     0.37656   0.83418   0.17140   0.00000  Uiso   1.00
C397   C     0.52676   0.69122   0.20330   0.00000  Uiso   1.00
C398   C     0.47279   0.97554   0.13010   0.00000  Uiso   1.00
C399   C     0.47218   0.69076   0.13098   0.00000  Uiso   1.00
C400   C     0.52517   0.97632   0.20520   0.00000  Uiso   1.00
C401   C     0.57995   0.83329   0.16680   0.00000  Uiso   1.00
C402   C     0.50046   0.83315   0.07318   0.00000  Uiso   1.00
C403   C     0.49990   0.83350   0.26022   0.00000  Uiso   1.00
C404   C     0.50032   0.83305   0.02191   0.00000  Uiso   1.00
C405   C     0.50009   0.83354   0.31150   0.00000  Uiso   1.00
C406   C     0.35681   0.79433   0.18009   0.00000  Uiso   1.00
C407   C     0.64544   0.87451   0.16905   0.00000  Uiso   1.00
C408   C     0.64682   0.79314   0.17200   0.00000  Uiso   1.00
H409   H     0.36355   0.73785   0.21533   0.00000  Uiso   1.00
H410   H     0.64369   0.93630   0.19069   0.00000  Uiso   1.00
H411   H     0.64389   0.73020   0.15426   0.00000  Uiso   1.00
H412   H     0.35315   0.93328   0.13551   0.00000  Uiso   1.00
H413   H     0.59445   0.77911   0.28328   0.00000  Uiso   1.00
H414   H     0.41454   0.88455   0.04482   0.00000  Uiso   1.00
H415   H     0.40246   0.77919   0.05533   0.00000  Uiso   1.00
H416   H     0.58025   0.88638   0.28719   0.00000  Uiso   1.00
N417   N     0.50000   0.95240   0.16667   0.00000  Uiso   1.00
N418   N     0.50000   0.71427   0.16667   0.00000  Uiso   1.00
O419   O     0.43892   0.87154   0.16666   0.00000  Uiso   1.00
O420   O     0.62439   0.91427   0.17187   0.00000  Uiso   1.00
O421   O     0.62606   0.75307   0.16721   0.00000  Uiso   1.00
O422   O     0.37367   0.91334   0.15560   0.00000  Uiso   1.00
O423   O     0.54897   0.71174   0.30183   0.00000  Uiso   1.00
O424   O     0.60532   0.69874   0.25078   0.00000  Uiso   1.00
O425   O     0.57311   0.77396   0.25282   0.00000  Uiso   1.00
O426   O     0.39721   0.96653   0.06549   0.00000  Uiso   1.00
O427   O     0.46119   0.95169   0.03161   0.00000  Uiso   1.00
O428   O     0.42824   0.89277   0.07959   0.00000  Uiso   1.00
O429   O     0.43228   0.70123   0.03413   0.00000  Uiso   1.00
O430   O     0.56108   0.79513   0.16667   0.00000  Uiso   1.00
O431   O     0.39086   0.70784   0.10350   0.00000  Uiso   1.00
O432   O     0.42905   0.77376   0.07839   0.00000  Uiso   1.00
O433   O     0.58238   0.97113   0.29906   0.00000  Uiso   1.00
O434   O     0.51434   0.93988   0.29326   0.00000  Uiso   1.00
O435   O     0.57239   0.89973   0.25319   0.00000  Uiso   1.00
O436   O     0.56108   0.87154   0.16667   0.00000  Uiso   1.00
O437   O     0.43892   0.79513   0.16666   0.00000  Uiso   1.00
O438   O     0.50000   0.87155   0.09511   0.00000  Uiso   1.00
O439   O     0.50000   0.79512   0.23822   0.00000  Uiso   1.00
O440   O     0.50000   0.87155   0.23822   0.00000  Uiso   1.00
O441   O     0.50000   0.79512   0.09511   0.00000  Uiso   1.00
O442   O     0.38015   0.75721   0.19649   0.00000  Uiso   1.00
S443   S     0.56331   0.71970   0.25177   0.00000  Uiso   1.00
S444   S     0.43989   0.94644   0.07719   0.00000  Uiso   1.00
S445   S     0.43161   0.71903   0.08691   0.00000  Uiso   1.00
S446   S     0.54900   0.94779   0.26340   0.00000  Uiso   1.00
Zn447  Zn    0.50000   0.88437   0.16667   0.00000  Uiso   1.00
Zn448  Zn    0.50000   0.78229   0.16667   0.00000  Uiso   1.00
C449   C     0.75371   0.83356   0.16830   0.00000  Uiso   1.00
C450   C     0.68750   0.87441   0.16507   0.00000  Uiso   1.00
C451   C     0.95793   0.83356   0.16882   0.00000  Uiso   1.00
C452   C     0.70989   0.83418   0.17140   0.00000  Uiso   1.00
C453   C     0.86009   0.69122   0.20330   0.00000  Uiso   1.00
C454   C     0.80613   0.97554   0.13010   0.00000  Uiso   1.00
C455   C     0.80551   0.69076   0.13098   0.00000  Uiso   1.00
C456   C     0.85851   0.97632   0.20520   0.00000  Uiso   1.00
C457   C     0.91329   0.83329   0.16680   0.00000  Uiso   1.00
C458   C     0.83379   0.83315   0.07318   0.00000  Uiso   1.00
C459   C     0.83323   0.83350   0.26022   0.00000  Uiso   1.00
C460   C     0.83365   0.83305   0.02191   0.00000  Uiso   1.00
C461   C     0.83342   0.83354   0.31150   0.00000  Uiso   1.00
C462   C     0.69014   0.79433   0.18009   0.00000  Uiso   1.00
C463   C     0.97877   0.87451   0.16905   0.00000  Uiso   1.00
C464   C     0.98016   0.79314   0.17200   0.00000  Uiso   1.00
H465   H     0.69688   0.73785   0.21533   0.00000  Uiso   1.00
H466   H     0.97703   0.93630   0.19069   0.00000  Uiso   1.00
H467   H     0.97722   0.73020   0.15426   0.00000  Uiso   1.00
H468   H     0.68648   0.93328   0.13551   0.00000  Uiso   1.00
H469   H     0.92778   0.77911   0.28328   0.00000  Uiso   1.00
H470   H     0.74787   0.88455   0.04482   0.00000  Uiso   1.00
H471   H     0.73579   0.77919   0.05533   0.00000  Uiso   1.00
H472   H     0.91358   0.88638   0.28719   0.00000  Uiso   1.00
N473   N     0.83333   0.95240   0.16667   0.00000  Uiso   1.00
N474   N     0.83333   0.71427   0.16667   0.00000  Uiso   1.00
O475   O     0.77226   0.87154   0.16666   0.00000  Uiso   1.00
O476   O     0.95773   0.91427   0.17187   0.00000  Uiso   1.00
O477   O     0.95939   0.75307   0.16721   0.00000  Uiso   1.00
O478   O     0.70701   0.91334   0.15560   0.00000  Uiso   1.00
O479   O     0.88230   0.71174   0.30183   0.00000  Uiso   1.00
O480   O     0.93865   0.69874   0.25078   0.00000  Uiso   1.00
O481   O     0.90645   0.77396   0.25282   0.00000  Uiso   1.00
O482   O     0.73054   0.96653   0.06549   0.00000  Uiso   1.00
O483   O     0.79453   0.95169   0.03161   0.00000  Uiso   1.00
O484   O     0.76158   0.89277   0.07959   0.00000  Uiso   1.00
O485   O     0.76561   0.70123   0.03413   0.00000  Uiso   1.00
O486   O     0.89441   0.79513   0.16667   0.00000  Uiso   1.00
O487   O     0.72419   0.70784   0.10350   0.00000  Uiso   1.00
O488   O     0.76238   0.77376   0.07839   0.00000  Uiso   1.00
O489   O     0.91571   0.97113   0.29906   0.00000  Uiso   1.00
O490   O     0.84768   0.93988   0.29326   0.00000  Uiso   1.00
O491   O     0.90572   0.89973   0.25319   0.00000  Uiso   1.00
O492   O     0.89441   0.87154   0.16667   0.00000  Uiso   1.00
O493   O     0.77226   0.79513   0.16666   0.00000  Uiso   1.00
O494   O     0.83334   0.87155   0.09511   0.00000  Uiso   1.00
O495   O     0.83333   0.79512   0.23822   0.00000  Uiso   1.00
O496   O     0.83333   0.87155   0.23822   0.00000  Uiso   1.00
O497   O     0.83334   0.79512   0.09511   0.00000  Uiso   1.00
O498   O     0.71349   0.75721   0.19649   0.00000  Uiso   1.00
S499   S     0.89665   0.71970   0.25177   0.00000  Uiso   1.00
S500   S     0.77322   0.94644   0.07719   0.00000  Uiso   1.00
S501   S     0.76494   0.71903   0.08691   0.00000  Uiso   1.00
S502   S     0.88234   0.94779   0.26340   0.00000  Uiso   1.00
Zn503  Zn    0.83333   0.88437   0.16667   0.00000  Uiso   1.00
Zn504  Zn    0.83333   0.78229   0.16667   0.00000  Uiso   1.00
C505   C     0.08705   0.16689   0.50163   0.00000  Uiso   1.00
C506   C     0.02083   0.20775   0.49841   0.00000  Uiso   1.00
C507   C     0.29127   0.16689   0.50216   0.00000  Uiso   1.00
C508   C     0.04322   0.16751   0.50473   0.00000  Uiso   1.00
C509   C     0.19342   0.02455   0.53664   0.00000  Uiso   1.00
C510   C     0.13946   0.30887   0.46343   0.00000  Uiso   1.00
C511   C     0.13884   0.02409   0.46432   0.00000  Uiso   1.00
C512   C     0.19184   0.30966   0.53853   0.00000  Uiso   1.00
C513   C     0.24662   0.16663   0.50013   0.00000  Uiso   1.00
C514   C     0.16712   0.16648   0.40651   0.00000  Uiso   1.00
C515   C     0.16657   0.16683   0.59355   0.00000  Uiso   1.00
C516   C     0.16698   0.16638   0.35524   0.00000  Uiso   1.00
C517   C     0.16675   0.16688   0.64483   0.00000  Uiso   1.00
C518   C     0.02348   0.12766   0.51342   0.00000  Uiso   1.00
C519   C     0.31211   0.20784   0.50238   0.00000  Uiso   1.00
C520   C     0.31349   0.12647   0.50533   0.00000  Uiso   1.00
H521   H     0.03022   0.07118   0.54867   0.00000  Uiso   1.00
H522   H     0.31036   0.26964   0.52402   0.00000  Uiso   1.00
H523   H     0.31055   0.06353   0.48760   0.00000  Uiso   1.00
H524   H     0.01981   0.26662   0.46884   0.00000  Uiso   1.00
H525   H     0.26112   0.11244   0.61661   0.00000  Uiso   1.00
H526   H     0.08120   0.21788   0.37816   0.00000  Uiso   1.00
H527   H     0.06913   0.11252   0.38867   0.00000  Uiso   1.00
H528   H     0.24692   0.21971   0.62052   0.00000  Uiso   1.00
N529   N     0.16667   0.28573   0.50000   0.00000  Uiso   1.00
N530   N     0.16667   0.04760   0.50000   0.00000  Uiso   1.00
O531   O     0.10559   0.20487   0.50000   0.00000  Uiso   1.00
O532   O     0.29106   0.24760   0.50520   0.00000  Uiso   1.00
O533   O     0.29272   0.08640   0.50054   0.00000  Uiso   1.00
O534   O     0.04034   0.24667   0.48893   0.00000  Uiso   1.00
O535   O     0.21564   0.04508   0.63517   0.00000  Uiso   1.00
O536   O     0.27198   0.03207   0.58411   0.00000  Uiso   1.00
O537   O     0.23978   0.10729   0.58616   0.00000  Uiso   1.00
O538   O     0.06388   0.29986   0.39882   0.00000  Uiso   1.00
O539   O     0.12786   0.28502   0.36495   0.00000  Uiso   1.00
O540   O     0.09491   0.22611   0.41293   0.00000  Uiso   1.00
O541   O     0.09895   0.03457   0.36746   0.00000  Uiso   1.00
O542   O     0.22774   0.12846   0.50000   0.00000  Uiso   1.00
O543   O     0.05752   0.04117   0.43683   0.00000  Uiso   1.00
O544   O     0.09571   0.10709   0.41172   0.00000  Uiso   1.00
O545   O     0.24904   0.30446   0.63239   0.00000  Uiso   1.00
O546   O     0.18101   0.27321   0.62659   0.00000  Uiso   1.00
O547   O     0.23906   0.23307   0.58653   0.00000  Uiso   1.00
O548   O     0.22774   0.20487   0.50000   0.00000  Uiso   1.00
O549   O     0.10559   0.12846   0.50000   0.00000  Uiso   1.00
O550   O     0.16667   0.20488   0.42845   0.00000  Uiso   1.00
O551   O     0.16666   0.12845   0.57155   0.00000  Uiso   1.00
O552   O     0.16666   0.20488   0.57155   0.00000  Uiso   1.00
O553   O     0.16667   0.12845   0.42845   0.00000  Uiso   1.00
O554   O     0.04682   0.09054   0.52983   0.00000  Uiso   1.00
S555   S     0.22998   0.05303   0.58510   0.00000  Uiso   1.00
S556   S     0.10655   0.27977   0.41052   0.00000  Uiso   1.00
S557   S     0.09828   0.05237   0.42024   0.00000  Uiso   1.00
S558   S     0.21567   0.28113   0.59674   0.00000  Uiso   1.00
Zn559  Zn    0.16667   0.21771   0.50000   0.00000  Uiso   1.00
Zn560  Zn    0.16667   0.11563   0.50000   0.00000  Uiso   1.00
C561   C     0.42038   0.16689   0.50163   0.00000  Uiso   1.00
C562   C     0.35417   0.20775   0.49841   0.00000  Uiso   1.00
C563   C     0.62460   0.16689   0.50216   0.00000  Uiso   1.00
C564   C     0.37656   0.16751   0.50473   0.00000  Uiso   1.00
C565   C     0.52676   0.02455   0.53664   0.00000  Uiso   1.00
C566   C     0.47279   0.30887   0.46343   0.00000  Uiso   1.00
C567   C     0.47218   0.02409   0.46432   0.00000  Uiso   1.00
C568   C     0.52517   0.30966   0.53853   0.00000  Uiso   1.00
C569   C     0.57995   0.16663   0.50013   0.00000  Uiso   1.00
C570   C     0.50046   0.16648   0.40651   0.00000  Uiso   1.00
C571   C     0.49990   0.16683   0.59355   0.00000  Uiso   1.00
C572   C     0.50032   0.16638   0.35524   0.00000  Uiso   1.00
C573   C     0.50009   0.16688   0.64483   0.00000  Uiso   1.00
C574   C     0.35681   0.12766   0.51342   0.00000  Uiso   1.00
C575   C     0.64544   0.20784   0.50238   0.00000  Uiso   1.00
C576   C     0.64682   0.12647   0.50533   0.00000  Uiso   1.00
H577   H     0.36355   0.07118   0.54867   0.00000  Uiso   1.00
H578   H     0.64369   0.26964   0.52402   0.00000  Uiso   1.00
H579   H     0.64389   0.06353   0.48760   0.00000  Uiso   1.00
H580   H     0.35315   0.26662   0.46884   0.00000  Uiso   1.00
H581   H     0.59445   0.11244   0.61661   0.00000  Uiso   1.00
H582   H     0.41454   0.21788   0.37816   0.00000  Uiso   1.00
H583   H     0.40246   0.11252   0.38867   0.00000  Uiso   1.00
H584   H     0.58025   0.21971   0.62052   0.00000  Uiso   1.00
N585   N     0.50000   0.28573   0.50000   0.00000  Uiso   1.00
N586   N     0.50000   0.04760   0.50000   0.00000  Uiso   1.00
O587   O     0.43892   0.20487   0.50000   0.00000  Uiso   1.00
O588   O     0.62439   0.24760   0.50520   0.00000  Uiso   1.00
O589   O     0.62606   0.08640   0.50054   0.00000  Uiso   1.00
O590   O     0.37367   0.24667   0.48893   0.00000  Uiso   1.00
O591   O     0.54897   0.04508   0.63517   0.00000  Uiso   1.00
O592   O     0.60532   0.03207   0.58411   0.00000  Uiso   1.00
O593   O     0.57311   0.10729   0.58616   0.00000  Uiso   1.00
O594   O     0.39721   0.29986   0.39882   0.00000  Uiso   1.00
O595   O     0.46119   0.28502   0.36495   0.00000  Uiso   1.00
O596   O     0.42824   0.22611   0.41293   0.00000  Uiso   1.00
O597   O     0.43228   0.03457   0.36746   0.00000  Uiso   1.00
O598   O     0.56108   0.12846   0.50000   0.00000  Uiso   1.00
O599   O     0.39086   0.04117   0.43683   0.00000  Uiso   1.00
O600   O     0.42905   0.10709   0.41172   0.00000  Uiso   1.00
O601   O     0.58238   0.30446   0.63239   0.00000  Uiso   1.00
O602   O     0.51434   0.27321   0.62659   0.00000  Uiso   1.00
O603   O     0.57239   0.23307   0.58653   0.00000  Uiso   1.00
O604   O     0.56108   0.20487   0.50000   0.00000  Uiso   1.00
O605   O     0.43892   0.12846   0.50000   0.00000  Uiso   1.00
O606   O     0.50000   0.20488   0.42845   0.00000  Uiso   1.00
O607   O     0.50000   0.12845   0.57155   0.00000  Uiso   1.00
O608   O     0.50000   0.20488   0.57155   0.00000  Uiso   1.00
O609   O     0.50000   0.12845   0.42845   0.00000  Uiso   1.00
O610   O     0.38015   0.09054   0.52983   0.00000  Uiso   1.00
S611   S     0.56331   0.05303   0.58510   0.00000  Uiso   1.00
S612   S     0.43989   0.27977   0.41052   0.00000  Uiso   1.00
S613   S     0.43161   0.05237   0.42024   0.00000  Uiso   1.00
S614   S     0.54900   0.28113   0.59674   0.00000  Uiso   1.00
Zn615  Zn    0.50000   0.21771   0.50000   0.00000  Uiso   1.00
Zn616  Zn    0.50000   0.11563   0.50000   0.00000  Uiso   1.00
C617   C     0.75371   0.16689   0.50163   0.00000  Uiso   1.00
C618   C     0.68750   0.20775   0.49841   0.00000  Uiso   1.00
C619   C     0.95793   0.16689   0.50216   0.00000  Uiso   1.00
C620   C     0.70989   0.16751   0.50473   0.00000  Uiso   1.00
C621   C     0.86009   0.02455   0.53664   0.00000  Uiso   1.00
C622   C     0.80613   0.30887   0.46343   0.00000  Uiso   1.00
C623   C     0.80551   0.02409   0.46432   0.00000  Uiso   1.00
C624   C     0.85851   0.30966   0.53853   0.00000  Uiso   1.00
C625   C     0.91329   0.16663   0.50013   0.00000  Uiso   1.00
C626   C     0.83379   0.16648   0.40651   0.00000  Uiso   1.00
C627   C     0.83323   0.16683   0.59355   0.00000  Uiso   1.00
C628   C     0.83365   0.16638   0.35524   0.00000  Uiso   1.00
C629   C     0.83342   0.16688   0.64483   0.00000  Uiso   1.00
C630   C     0.69014   0.12766   0.51342   0.00000  Uiso   1.00
C631   C     0.97877   0.20784   0.50238   0.00000  Uiso   1.00
C632   C     0.98016   0.12647   0.50533   0.00000  Uiso   1.00
H633   H     0.69688   0.07118   0.54867   0.00000  Uiso   1.00
H634   H     0.97703   0.26964   0.52402   0.00000  Uiso   1.00
H635   H     0.97722   0.06353   0.48760   0.00000  Uiso   1.00
H636   H     0.68648   0.26662   0.46884   0.00000  Uiso   1.00
H637   H     0.92778   0.11244   0.61661   0.00000  Uiso   1.00
H638   H     0.74787   0.21788   0.37816   0.00000  Uiso   1.00
H639   H     0.73579   0.11252   0.38867   0.00000  Uiso   1.00
H640   H     0.91358   0.21971   0.62052   0.00000  Uiso   1.00
N641   N     0.83333   0.28573   0.50000   0.00000  Uiso   1.00
N642   N     0.83333   0.04760   0.50000   0.00000  Uiso   1.00
O643   O     0.77226   0.20487   0.50000   0.00000  Uiso   1.00
O644   O     0.95773   0.24760   0.50520   0.00000  Uiso   1.00
O645   O     0.95939   0.08640   0.50054   0.00000  Uiso   1.00
O646   O     0.70701   0.24667   0.48893   0.00000  Uiso   1.00
O647   O     0.88230   0.04508   0.63517   0.00000  Uiso   1.00
O648   O     0.93865   0.03207   0.58411   0.00000  Uiso   1.00
O649   O     0.90645   0.10729   0.58616   0.00000  Uiso   1.00
O650   O     0.73054   0.29986   0.39882   0.00000  Uiso   1.00
O651   O     0.79453   0.28502   0.36495   0.00000  Uiso   1.00
O652   O     0.76158   0.22611   0.41293   0.00000  Uiso   1.00
O653   O     0.76561   0.03457   0.36746   0.00000  Uiso   1.00
O654   O     0.89441   0.12846   0.50000   0.00000  Uiso   1.00
O655   O     0.72419   0.04117   0.43683   0.00000  Uiso   1.00
O656   O     0.76238   0.10709   0.41172   0.00000  Uiso   1.00
O657   O     0.91571   0.30446   0.63239   0.00000  Uiso   1.00
O658   O     0.84768   0.27321   0.62659   0.00000  Uiso   1.00
O659   O     0.90572   0.23307   0.58653   0.00000  Uiso   1.00
O660   O     0.89441   0.20487   0.50000   0.00000  Uiso   1.00
O661   O     0.77226   0.12846   0.50000   0.00000  Uiso   1.00
O662   O     0.83334   0.20488   0.42845   0.00000  Uiso   1.00
O663   O     0.83333   0.12845   0.57155   0.00000  Uiso   1.00
O664   O     0.83333   0.20488   0.57155   0.00000  Uiso   1.00
O665   O     0.83334   0.12845   0.42845   0.00000  Uiso   1.00
O666   O     0.71349   0.09054   0.52983   0.00000  Uiso   1.00
S667   S     0.89665   0.05303   0.58510   0.00000  Uiso   1.00
S668   S     0.77322   0.27977   0.41052   0.00000  Uiso   1.00
S669   S     0.76494   0.05237   0.42024   0.00000  Uiso   1.00
S670   S     0.88234   0.28113   0.59674   0.00000  Uiso   1.00
Zn671  Zn    0.83333   0.21771   0.50000   0.00000  Uiso   1.00
Zn672  Zn    0.83333   0.11563   0.50000   0.00000  Uiso   1.00
C673   C     0.08705   0.50023   0.50163   0.00000  Uiso   1.00
C674   C     0.02083   0.54108   0.49841   0.00000  Uiso   1.00
C675   C     0.29127   0.50022   0.50216   0.00000  Uiso   1.00
C676   C     0.04322   0.50085   0.50473   0.00000  Uiso   1.00
C677   C     0.19342   0.35788   0.53664   0.00000  Uiso   1.00
C678   C     0.13946   0.64221   0.46343   0.00000  Uiso   1.00
C679   C     0.13884   0.35742   0.46432   0.00000  Uiso   1.00
C680   C     0.19184   0.64299   0.53853   0.00000  Uiso   1.00
C681   C     0.24662   0.49996   0.50013   0.00000  Uiso   1.00
C682   C     0.16712   0.49982   0.40651   0.00000  Uiso   1.00
C683   C     0.16657   0.50017   0.59355   0.00000  Uiso   1.00
C684   C     0.16698   0.49971   0.35524   0.00000  Uiso   1.00
C685   C     0.16675   0.50021   0.64483   0.00000  Uiso   1.00
C686   C     0.02348   0.46099   0.51342   0.00000  Uiso   1.00
C687   C     0.31211   0.54117   0.50238   0.00000  Uiso   1.00
C688   C     0.31349   0.45981   0.50533   0.00000  Uiso   1.00
H689   H     0.03022   0.40452   0.54867   0.00000  Uiso   1.00
H690   H     0.31036   0.60297   0.52402   0.00000  Uiso   1.00
H691   H     0.31055   0.39687   0.48760   0.00000  Uiso   1.00
H692   H     0.01981   0.59995   0.46884   0.00000  Uiso   1.00
H693   H     0.26112   0.44577   0.61661   0.00000  Uiso   1.00
H694   H     0.08120   0.55122   0.37816   0.00000  Uiso   1.00
H695   H     0.06913   0.44586   0.38867   0.00000  Uiso   1.00
H696   H     0.24692   0.55304   0.62052   0.00000  Uiso   1.00
N697   N     0.16667   0.61907   0.50000   0.00000  Uiso   1.00
N698   N     0.16667   0.38093   0.50000   0.00000  Uiso   1.00
O699   O     0.10559   0.53821   0.50000   0.00000  Uiso   1.00
O700   O     0.29106   0.58093   0.50520   0.00000  Uiso   1.00
O701   O     0.29272   0.41973   0.50054   0.00000  Uiso   1.00
O702   O     0.04034   0.58001   0.48893   0.00000  Uiso   1.00
O703   O     0.21564   0.37841   0.63517   0.00000  Uiso   1.00
O704   O     0.27198   0.36541   0.58411   0.00000  Uiso   1.00
O705   O     0.23978   0.44063   0.58616   0.00000  Uiso   1.00
O706   O     0.06388   0.63320   0.39882   0.00000  Uiso   1.00
O707   O     0.12786   0.61836   0.36495   0.00000  Uiso   1.00
O708   O     0.09491   0.55944   0.41293   0.00000  Uiso   1.00
O709   O     0.09895   0.36790   0.36746   0.00000  Uiso   1.00
O710   O     0.22774   0.46179   0.50000   0.00000  Uiso   1.00
O711   O     0.05752   0.37450   0.43683   0.00000  Uiso   1.00
O712   O     0.09571   0.44042   0.41172   0.00000  Uiso   1.00
O713   O     0.24904   0.63780   0.63239   0.00000  Uiso   1.00
O714   O     0.18101   0.60654   0.62659   0.00000  Uiso   1.00
O715   O     0.23906   0.56640   0.58653   0.00000  Uiso   1.00
O716   O     0.22774   0.53821   0.50000   0.00000  Uiso   1.00
O717   O     0.10559   0.46179   0.50000   0.00000  Uiso   1.00
O718   O     0.16667   0.53821   0.42845   0.00000  Uiso   1.00
O719   O     0.16666   0.46179   0.57155   0.00000  Uiso   1.00
O720   O     0.16666   0.53821   0.57155   0.00000  Uiso   1.00
O721   O     0.16667   0.46179   0.42845   0.00000  Uiso   1.00
O722   O     0.04682   0.42388   0.52983   0.00000  Uiso   1.00
S723   S     0.22998   0.38636   0.58510   0.00000  Uiso   1.00
S724   S     0.10655   0.61310   0.41052   0.00000  Uiso   1.00
S725   S     0.09828   0.38570   0.42024   0.00000  Uiso   1.00
S726   S     0.21567   0.61446   0.59674   0.00000  Uiso   1.00
Zn727  Zn    0.16667   0.55104   0.50000   0.00000  Uiso   1.00
Zn728  Zn    0.16667   0.44896   0.50000   0.00000  Uiso   1.00
C729   C     0.42038   0.50023   0.50163   0.00000  Uiso   1.00
C730   C     0.35417   0.54108   0.49841   0.00000  Uiso   1.00
C731   C     0.62460   0.50022   0.50216   0.00000  Uiso   1.00
C732   C     0.37656   0.50085   0.50473   0.00000  Uiso   1.00
C733   C     0.52676   0.35788   0.53664   0.00000  Uiso   1.00
C734   C     0.47279   0.64221   0.46343   0.00000  Uiso   1.00
C735   C     0.47218   0.35742   0.46432   0.00000  Uiso   1.00
C736   C     0.52517   0.64299   0.53853   0.00000  Uiso   1.00
C737   C     0.57995   0.49996   0.50013   0.00000  Uiso   1.00
C738   C     0.50046   0.49982   0.40651   0.00000  Uiso   1.00
C739   C     0.49990   0.50017   0.59355   0.00000  Uiso   1.00
C740   C     0.50032   0.49971   0.35524   0.00000  Uiso   1.00
C741   C     0.50009   0.50021   0.64483   0.00000  Uiso   1.00
C742   C     0.35681   0.46099   0.51342   0.00000  Uiso   1.00
C743   C     0.64544   0.54117   0.50238   0.00000  Uiso   1.00
C744   C     0.64682   0.45981   0.50533   0.00000  Uiso   1.00
H745   H     0.36355   0.40452   0.54867   0.00000  Uiso   1.00
H746   H     0.64369   0.60297   0.52402   0.00000  Uiso   1.00
H747   H     0.64389   0.39687   0.48760   0.00000  Uiso   1.00
H748   H     0.35315   0.59995   0.46884   0.00000  Uiso   1.00
H749   H     0.59445   0.44577   0.61661   0.00000  Uiso   1.00
H750   H     0.41454   0.55122   0.37816   0.00000  Uiso   1.00
H751   H     0.40246   0.44586   0.38867   0.00000  Uiso   1.00
H752   H     0.58025   0.55304   0.62052   0.00000  Uiso   1.00
N753   N     0.50000   0.61907   0.50000   0.00000  Uiso   1.00
N754   N     0.50000   0.38093   0.50000   0.00000  Uiso   1.00
O755   O     0.43892   0.53821   0.50000   0.00000  Uiso   1.00
O756   O     0.62439   0.58093   0.50520   0.00000  Uiso   1.00
O757   O     0.62606   0.41973   0.50054   0.00000  Uiso   1.00
O758   O     0.37367   0.58001   0.48893   0.00000  Uiso   1.00
O759   O     0.54897   0.37841   0.63517   0.00000  Uiso   1.00
O760   O     0.60532   0.36541   0.58411   0.00000  Uiso   1.00
O761   O     0.57311   0.44063   0.58616   0.00000  Uiso   1.00
O762   O     0.39721   0.63320   0.39882   0.00000  Uiso   1.00
O763   O     0.46119   0.61836   0.36495   0.00000  Uiso   1.00
O764   O     0.42824   0.55944   0.41293   0.00000  Uiso   1.00
O765   O     0.43228   0.36790   0.36746   0.00000  Uiso   1.00
O766   O     0.56108   0.46179   0.50000   0.00000  Uiso   1.00
O767   O     0.39086   0.37450   0.43683   0.00000  Uiso   1.00
O768   O     0.42905   0.44042   0.41172   0.00000  Uiso   1.00
O769   O     0.58238   0.63780   0.63239   0.00000  Uiso   1.00
O770   O     0.51434   0.60654   0.62659   0.00000  Uiso   1.00
O771   O     0.57239   0.56640   0.58653   0.00000  Uiso   1.00
O772   O     0.56108   0.53821   0.50000   0.00000  Uiso   1.00
O773   O     0.43892   0.46179   0.50000   0.00000  Uiso   1.00
O774   O     0.50000   0.53821   0.42845   0.00000  Uiso   1.00
O775   O     0.50000   0.46179   0.57155   0.00000  Uiso   1.00
O776   O     0.50000   0.53821   0.57155   0.00000  Uiso   1.00
O777   O     0.50000   0.46179   0.42845   0.00000  Uiso   1.00
O778   O     0.38015   0.42388   0.52983   0.00000  Uiso   1.00
S779   S     0.56331   0.38636   0.58510   0.00000  Uiso   1.00
S780   S     0.43989   0.61310   0.41052   0.00000  Uiso   1.00
S781   S     0.43161   0.38570   0.42024   0.00000  Uiso   1.00
S782   S     0.54900   0.61446   0.59674   0.00000  Uiso   1.00
Zn783  Zn    0.50000   0.55104   0.50000   0.00000  Uiso   1.00
Zn784  Zn    0.50000   0.44896   0.50000   0.00000  Uiso   1.00
C785   C     0.75371   0.50023   0.50163   0.00000  Uiso   1.00
C786   C     0.68750   0.54108   0.49841   0.00000  Uiso   1.00
C787   C     0.95793   0.50022   0.50216   0.00000  Uiso   1.00
C788   C     0.70989   0.50085   0.50473   0.00000  Uiso   1.00
C789   C     0.86009   0.35788   0.53664   0.00000  Uiso   1.00
C790   C     0.80613   0.64221   0.46343   0.00000  Uiso   1.00
C791   C     0.80551   0.35742   0.46432   0.00000  Uiso   1.00
C792   C     0.85851   0.64299   0.53853   0.00000  Uiso   1.00
C793   C     0.91329   0.49996   0.50013   0.00000  Uiso   1.00
C794   C     0.83379   0.49982   0.40651   0.00000  Uiso   1.00
C795   C     0.83323   0.50017   0.59355   0.00000  Uiso   1.00
C796   C     0.83365   0.49971   0.35524   0.00000  Uiso   1.00
C797   C     0.83342   0.50021   0.64483   0.00000  Uiso   1.00
C798   C     0.69014   0.46099   0.51342   0.00000  Uiso   1.00
C799   C     0.97877   0.54117   0.50238   0.00000  Uiso   1.00
C800   C     0.98016   0.45981   0.50533   0.00000  Uiso   1.00
H801   H     0.69688   0.40452   0.54867   0.00000  Uiso   1.00
H802   H     0.97703   0.60297   0.52402   0.00000  Uiso   1.00
H803   H     0.97722   0.39687   0.48760   0.00000  Uiso   1.00
H804   H     0.68648   0.59995   0.46884   0.00000  Uiso   1.00
H805   H     0.92778   0.44577   0.61661   0.00000  Uiso   1.00
H806   H     0.74787   0.55122   0.37816   0.00000  Uiso   1.00
H807   H     0.73579   0.44586   0.38867   0.00000  Uiso   1.00
H808   H     0.91358   0.55304   0.62052   0.00000  Uiso   1.00
N809   N     0.83333   0.61907   0.50000   0.00000  Uiso   1.00
N810   N     0.83333   0.38093   0.50000   0.00000  Uiso   1.00
O811   O     0.77226   0.53821   0.50000   0.00000  Uiso   1.00
O812   O     0.95773   0.58093   0.50520   0.00000  Uiso   1.00
O813   O     0.95939   0.41973   0.50054   0.00000  Uiso   1.00
O814   O     0.70701   0.58001   0.48893   0.00000  Uiso   1.00
O815   O     0.88230   0.37841   0.63517   0.00000  Uiso   1.00
O816   O     0.93865   0.36541   0.58411   0.00000  Uiso   1.00
O817   O     0.90645   0.44063   0.58616   0.00000  Uiso   1.00
O818   O     0.73054   0.63320   0.39882   0.00000  Uiso   1.00
O819   O     0.79453   0.61836   0.36495   0.00000  Uiso   1.00
O820   O     0.76158   0.55944   0.41293   0.00000  Uiso   1.00
O821   O     0.76561   0.36790   0.36746   0.00000  Uiso   1.00
O822   O     0.89441   0.46179   0.50000   0.00000  Uiso   1.00
O823   O     0.72419   0.37450   0.43683   0.00000  Uiso   1.00
O824   O     0.76238   0.44042   0.41172   0.00000  Uiso   1.00
O825   O     0.91571   0.63780   0.63239   0.00000  Uiso   1.00
O826   O     0.84768   0.60654   0.62659   0.00000  Uiso   1.00
O827   O     0.90572   0.56640   0.58653   0.00000  Uiso   1.00
O828   O     0.89441   0.53821   0.50000   0.00000  Uiso   1.00
O829   O     0.77226   0.46179   0.50000   0.00000  Uiso   1.00
O830   O     0.83334   0.53821   0.42845   0.00000  Uiso   1.00
O831   O     0.83333   0.46179   0.57155   0.00000  Uiso   1.00
O832   O     0.83333   0.53821   0.57155   0.00000  Uiso   1.00
O833   O     0.83334   0.46179   0.42845   0.00000  Uiso   1.00
O834   O     0.71349   0.42388   0.52983   0.00000  Uiso   1.00
S835   S     0.89665   0.38636   0.58510   0.00000  Uiso   1.00
S836   S     0.77322   0.61310   0.41052   0.00000  Uiso   1.00
S837   S     0.76494   0.38570   0.42024   0.00000  Uiso   1.00
S838   S     0.88234   0.61446   0.59674   0.00000  Uiso   1.00
Zn839  Zn    0.83333   0.55104   0.50000   0.00000  Uiso   1.00
Zn840  Zn    0.83333   0.44896   0.50000   0.00000  Uiso   1.00
C841   C     0.08705   0.83356   0.50163   0.00000  Uiso   1.00
C842   C     0.02083   0.87441   0.49841   0.00000  Uiso   1.00
C843   C     0.29127   0.83356   0.50216   0.00000  Uiso   1.00
C844   C     0.04322   0.83418   0.50473   0.00000  Uiso   1.00
C845   C     0.19342   0.69122   0.53664   0.00000  Uiso   1.00
C846   C     0.13946   0.97554   0.46343   0.00000  Uiso   1.00
C847   C     0.13884   0.69076   0.46432   0.00000  Uiso   1.00
C848   C     0.19184   0.97632   0.53853   0.00000  Uiso   1.00
C849   C     0.24662   0.83329   0.50013   0.00000  Uiso   1.00
C850   C     0.16712   0.83315   0.40651   0.00000  Uiso   1.00
C851   C     0.16657   0.83350   0.59355   0.00000  Uiso   1.00
C852   C     0.16698   0.83305   0.35524   0.00000  Uiso   1.00
C853   C     0.16675   0.83354   0.64483   0.00000  Uiso   1.00
C854   C     0.02348   0.79433   0.51342   0.00000  Uiso   1.00
C855   C     0.31211   0.87451   0.50238   0.00000  Uiso   1.00
C856   C     0.31349   0.79314   0.50533   0.00000  Uiso   1.00
H857   H     0.03022   0.73785   0.54867   0.00000  Uiso   1.00
H858   H     0.31036   0.93630   0.52402   0.00000  Uiso   1.00
H859   H     0.31055   0.73020   0.48760   0.00000  Uiso   1.00
H860   H     0.01981   0.93328   0.46884   0.00000  Uiso   1.00
H861   H     0.26112   0.77911   0.61661   0.00000  Uiso   1.00
H862   H     0.08120   0.88455   0.37816   0.00000  Uiso   1.00
H863   H     0.06913   0.77919   0.38867   0.00000  Uiso   1.00
H864   H     0.24692   0.88638   0.62052   0.00000  Uiso   1.00
N865   N     0.16667   0.95240   0.50000   0.00000  Uiso   1.00
N866   N     0.16667   0.71427   0.50000   0.00000  Uiso   1.00
O867   O     0.10559   0.87154   0.50000   0.00000  Uiso   1.00
O868   O     0.29106   0.91427   0.50520   0.00000  Uiso   1.00
O869   O     0.29272   0.75307   0.50054   0.00000  Uiso   1.00
O870   O     0.04034   0.91334   0.48893   0.00000  Uiso   1.00
O871   O     0.21564   0.71174   0.63517   0.00000  Uiso   1.00
O872   O     0.27198   0.69874   0.58411   0.00000  Uiso   1.00
O873   O     0.23978   0.77396   0.58616   0.00000  Uiso   1.00
O874   O     0.06388   0.96653   0.39882   0.00000  Uiso   1.00
O875   O     0.12786   0.95169   0.36495   0.00000  Uiso   1.00
O876   O     0.09491   0.89277   0.41293   0.00000  Uiso   1.00
O877   O     0.09895   0.70123   0.36746   0.00000  Uiso   1.00
O878   O     0.22774   0.79513   0.50000   0.00000  Uiso   1.00
O879   O     0.05752   0.70784   0.43683   0.00000  Uiso   1.00
O880   O     0.09571   0.77376   0.41172   0.00000  Uiso   1.00
O881   O     0.24904   0.97113   0.63239   0.00000  Uiso   1.00
O882   O     0.18101   0.93988   0.62659   0.00000  Uiso   1.00
O883   O     0.23906   0.89973   0.58653   0.00000  Uiso   1.00
O884   O     0.22774   0.87154   0.50000   0.00000  Uiso   1.00
O885   O     0.10559   0.79513   0.50000   0.00000  Uiso   1.00
O886   O     0.16667   0.87155   0.42845   0.00000  Uiso   1.00
O887   O     0.16666   0.79512   0.57155   0.00000  Uiso   1.00
O888   O     0.16666   0.87155   0.57155   0.00000  Uiso   1.00
O889   O     0.16667   0.79512   0.42845   0.00000  Uiso   1.00
O890   O     0.04682   0.75721   0.52983   0.00000  Uiso   1.00
S891   S     0.22998   0.71970   0.58510   0.00000  Uiso   1.00
S892   S     0.10655   0.94644   0.41052   0.00000  Uiso   1.00
S893   S     0.09828   0.71903   0.42024   0.00000  Uiso   1.00
S894   S     0.21567   0.94779   0.59674   0.00000  Uiso   1.00
Zn895  Zn    0.16667   0.88437   0.50000   0.00000  Uiso   1.00
Zn896  Zn    0.16667   0.78229   0.50000   0.00000  Uiso   1.00
C897   C     0.42038   0.83356   0.50163   0.00000  Uiso   1.00
C898   C     0.35417   0.87441   0.49841   0.00000  Uiso   1.00
C899   C     0.62460   0.83356   0.50216   0.00000  Uiso   1.00
C900   C     0.37656   0.83418   0.50473   0.00000  Uiso   1.00
C901   C     0.52676   0.69122   0.53664   0.00000  Uiso   1.00
C902   C     0.47279   0.97554   0.46343   0.00000  Uiso   1.00
C903   C     0.47218   0.69076   0.46432   0.00000  Uiso   1.00
C904   C     0.52517   0.97632   0.53853   0.00000  Uiso   1.00
C905   C     0.57995   0.83329   0.50013   0.00000  Uiso   1.00
C906   C     0.50046   0.83315   0.40651   0.00000  Uiso   1.00
C907   C     0.49990   0.83350   0.59355   0.00000  Uiso   1.00
C908   C     0.50032   0.83305   0.35524   0.00000  Uiso   1.00
C909   C     0.50009   0.83354   0.64483   0.00000  Uiso   1.00
C910   C     0.35681   0.79433   0.51342   0.00000  Uiso   1.00
C911   C     0.64544   0.87451   0.50238   0.00000  Uiso   1.00
C912   C     0.64682   0.79314   0.50533   0.00000  Uiso   1.00
H913   H     0.36355   0.73785   0.54867   0.00000  Uiso   1.00
H914   H     0.64369   0.93630   0.52402   0.00000  Uiso   1.00
H915   H     0.64389   0.73020   0.48760   0.00000  Uiso   1.00
H916   H     0.35315   0.93328   0.46884   0.00000  Uiso   1.00
H917   H     0.59445   0.77911   0.61661   0.00000  Uiso   1.00
H918   H     0.41454   0.88455   0.37816   0.00000  Uiso   1.00
H919   H     0.40246   0.77919   0.38867   0.00000  Uiso   1.00
H920   H     0.58025   0.88638   0.62052   0.00000  Uiso   1.00
N921   N     0.50000   0.95240   0.50000   0.00000  Uiso   1.00
N922   N     0.50000   0.71427   0.50000   0.00000  Uiso   1.00
O923   O     0.43892   0.87154   0.50000   0.00000  Uiso   1.00
O924   O     0.62439   0.91427   0.50520   0.00000  Uiso   1.00
O925   O     0.62606   0.75307   0.50054   0.00000  Uiso   1.00
O926   O     0.37367   0.91334   0.48893   0.00000  Uiso   1.00
O927   O     0.54897   0.71174   0.63517   0.00000  Uiso   1.00
O928   O     0.60532   0.69874   0.58411   0.00000  Uiso   1.00
O929   O     0.57311   0.77396   0.58616   0.00000  Uiso   1.00
O930   O     0.39721   0.96653   0.39882   0.00000  Uiso   1.00
O931   O     0.46119   0.95169   0.36495   0.00000  Uiso   1.00
O932   O     0.42824   0.89277   0.41293   0.00000  Uiso   1.00
O933   O     0.43228   0.70123   0.36746   0.00000  Uiso   1.00
O934   O     0.56108   0.79513   0.50000   0.00000  Uiso   1.00
O935   O     0.39086   0.70784   0.43683   0.00000  Uiso   1.00
O936   O     0.42905   0.77376   0.41172   0.00000  Uiso   1.00
O937   O     0.58238   0.97113   0.63239   0.00000  Uiso   1.00
O938   O     0.51434   0.93988   0.62659   0.00000  Uiso   1.00
O939   O     0.57239   0.89973   0.58653   0.00000  Uiso   1.00
O940   O     0.56108   0.87154   0.50000   0.00000  Uiso   1.00
O941   O     0.43892   0.79513   0.50000   0.00000  Uiso   1.00
O942   O     0.50000   0.87155   0.42845   0.00000  Uiso   1.00
O943   O     0.50000   0.79512   0.57155   0.00000  Uiso   1.00
O944   O     0.50000   0.87155   0.57155   0.00000  Uiso   1.00
O945   O     0.50000   0.79512   0.42845   0.00000  Uiso   1.00
O946   O     0.38015   0.75721   0.52983   0.00000  Uiso   1.00
S947   S     0.56331   0.71970   0.58510   0.00000  Uiso   1.00
S948   S     0.43989   0.94644   0.41052   0.00000  Uiso   1.00
S949   S     0.43161   0.71903   0.42024   0.00000  Uiso   1.00
S950   S     0.54900   0.94779   0.59674   0.00000  Uiso   1.00
Zn951  Zn    0.50000   0.88437   0.50000   0.00000  Uiso   1.00
Zn952  Zn    0.50000   0.78229   0.50000   0.00000  Uiso   1.00
C953   C     0.75371   0.83356   0.50163   0.00000  Uiso   1.00
C954   C     0.68750   0.87441   0.49841   0.00000  Uiso   1.00
C955   C     0.95793   0.83356   0.50216   0.00000  Uiso   1.00
C956   C     0.70989   0.83418   0.50473   0.00000  Uiso   1.00
C957   C     0.86009   0.69122   0.53664   0.00000  Uiso   1.00
C958   C     0.80613   0.97554   0.46343   0.00000  Uiso   1.00
C959   C     0.80551   0.69076   0.46432   0.00000  Uiso   1.00
C960   C     0.85851   0.97632   0.53853   0.00000  Uiso   1.00
C961   C     0.91329   0.83329   0.50013   0.00000  Uiso   1.00
C962   C     0.83379   0.83315   0.40651   0.00000  Uiso   1.00
C963   C     0.83323   0.83350   0.59355   0.00000  Uiso   1.00
C964   C     0.83365   0.83305   0.35524   0.00000  Uiso   1.00
C965   C     0.83342   0.83354   0.64483   0.00000  Uiso   1.00
C966   C     0.69014   0.79433   0.51342   0.00000  Uiso   1.00
C967   C     0.97877   0.87451   0.50238   0.00000  Uiso   1.00
C968   C     0.98016   0.79314   0.50533   0.00000  Uiso   1.00
H969   H     0.69688   0.73785   0.54867   0.00000  Uiso   1.00
H970   H     0.97703   0.93630   0.52402   0.00000  Uiso   1.00
H971   H     0.97722   0.73020   0.48760   0.00000  Uiso   1.00
H972   H     0.68648   0.93328   0.46884   0.00000  Uiso   1.00
H973   H     0.92778   0.77911   0.61661   0.00000  Uiso   1.00
H974   H     0.74787   0.88455   0.37816   0.00000  Uiso   1.00
H975   H     0.73579   0.77919   0.38867   0.00000  Uiso   1.00
H976   H     0.91358   0.88638   0.62052   0.00000  Uiso   1.00
N977   N     0.83333   0.95240   0.50000   0.00000  Uiso   1.00
N978   N     0.83333   0.71427   0.50000   0.00000  Uiso   1.00
O979   O     0.77226   0.87154   0.50000   0.00000  Uiso   1.00
O980   O     0.95773   0.91427   0.50520   0.00000  Uiso   1.00
O981   O     0.95939   0.75307   0.50054   0.00000  Uiso   1.00
O982   O     0.70701   0.91334   0.48893   0.00000  Uiso   1.00
O983   O     0.88230   0.71174   0.63517   0.00000  Uiso   1.00
O984   O     0.93865   0.69874   0.58411   0.00000  Uiso   1.00
O985   O     0.90645   0.77396   0.58616   0.00000  Uiso   1.00
O986   O     0.73054   0.96653   0.39882   0.00000  Uiso   1.00
O987   O     0.79453   0.95169   0.36495   0.00000  Uiso   1.00
O988   O     0.76158   0.89277   0.41293   0.00000  Uiso   1.00
O989   O     0.76561   0.70123   0.36746   0.00000  Uiso   1.00
O990   O     0.89441   0.79513   0.50000   0.00000  Uiso   1.00
O991   O     0.72419   0.70784   0.43683   0.00000  Uiso   1.00
O992   O     0.76238   0.77376   0.41172   0.00000  Uiso   1.00
O993   O     0.91571   0.97113   0.63239   0.00000  Uiso   1.00
O994   O     0.84768   0.93988   0.62659   0.00000  Uiso   1.00
O995   O     0.90572   0.89973   0.58653   0.00000  Uiso   1.00
O996   O     0.89441   0.87154   0.50000   0.00000  Uiso   1.00
O997   O     0.77226   0.79513   0.50000   0.00000  Uiso   1.00
O998   O     0.83334   0.87155   0.42845   0.00000  Uiso   1.00
O999   O     0.83333   0.79512   0.57155   0.00000  Uiso   1.00
O1000  O     0.83333   0.87155   0.57155   0.00000  Uiso   1.00
O1001  O     0.83334   0.79512   0.42845   0.00000  Uiso   1.00
O1002  O     0.71349   0.75721   0.52983   0.00000  Uiso   1.00
S1003  S     0.89665   0.71970   0.58510   0.00000  Uiso   1.00
S1004  S     0.77322   0.94644   0.41052   0.00000  Uiso   1.00
S1005  S     0.76494   0.71903   0.42024   0.00000  Uiso   1.00
S1006  S     0.88234   0.94779   0.59674   0.00000  Uiso   1.00
Zn1007 Zn    0.83333   0.88437   0.50000   0.00000  Uiso   1.00
Zn1008 Zn    0.83333   0.78229   0.50000   0.00000  Uiso   1.00
C1009  C     0.08705   0.16689   0.83496   0.00000  Uiso   1.00
C1010  C     0.02083   0.20775   0.83174   0.00000  Uiso   1.00
C1011  C     0.29127   0.16689   0.83549   0.00000  Uiso   1.00
C1012  C     0.04322   0.16751   0.83807   0.00000  Uiso   1.00
C1013  C     0.19342   0.02455   0.86997   0.00000  Uiso   1.00
C1014  C     0.13946   0.30887   0.79676   0.00000  Uiso   1.00
C1015  C     0.13884   0.02409   0.79765   0.00000  Uiso   1.00
C1016  C     0.19184   0.30966   0.87186   0.00000  Uiso   1.00
C1017  C     0.24662   0.16663   0.83347   0.00000  Uiso   1.00
C1018  C     0.16712   0.16648   0.73984   0.00000  Uiso   1.00
C1019  C     0.16657   0.16683   0.92689   0.00000  Uiso   1.00
C1020  C     0.16698   0.16638   0.68857   0.00000  Uiso   1.00
C1021  C     0.16675   0.16688   0.97816   0.00000  Uiso   1.00
C1022  C     0.02348   0.12766   0.84675   0.00000  Uiso   1.00
C1023  C     0.31211   0.20784   0.83572   0.00000  Uiso   1.00
C1024  C     0.31349   0.12647   0.83867   0.00000  Uiso   1.00
H1025  H     0.03022   0.07118   0.88200   0.00000  Uiso   1.00
H1026  H     0.31036   0.26964   0.85736   0.00000  Uiso   1.00
H1027  H     0.31055   0.06353   0.82093   0.00000  Uiso   1.00
H1028  H     0.01981   0.26662   0.80218   0.00000  Uiso   1.00
H1029  H     0.26112   0.11244   0.94994   0.00000  Uiso   1.00
H1030  H     0.08120   0.21788   0.71149   0.00000  Uiso   1.00
H1031  H     0.06913   0.11252   0.72200   0.00000  Uiso   1.00
H1032  H     0.24692   0.21971   0.95386   0.00000  Uiso   1.00
N1033  N     0.16667   0.28573   0.83333   0.00000  Uiso   1.00
N1034  N     0.16667   0.04760   0.83333   0.00000  Uiso   1.00
O1035  O     0.10559   0.20487   0.83333   0.00000  Uiso   1.00
O1036  O     0.29106   0.24760   0.83854   0.00000  Uiso   1.00
O1037  O     0.29272   0.08640   0.83388   0.00000  Uiso   1.00
O1038  O     0.04034   0.24667   0.82226   0.00000  Uiso   1.00
O1039  O     0.21564   0.04508   0.96850   0.00000  Uiso   1.00
O1040  O     0.27198   0.03207   0.91744   0.00000  Uiso   1.00
O1041  O     0.23978   0.10729   0.91949   0.00000  Uiso   1.00
O1042  O     0.06388   0.29986   0.73216   0.00000  Uiso   1.00
O1043  O     0.12786   0.28502   0.69828   0.00000  Uiso   1.00
O1044  O     0.09491   0.22611   0.74626   0.00000  Uiso   1.00
O1045  O     0.09895   0.03457   0.70080   0.00000  Uiso   1.00
O1046  O     0.22774   0.12846   0.83334   0.00000  Uiso   1.00
O1047  O     0.05752   0.04117   0.77017   0.00000  Uiso   1.00
O1048  O     0.09571   0.10709   0.74505   0.00000  Uiso   1.00
O1049  O     0.24904   0.30446   0.96572   0.00000  Uiso   1.00
O1050  O     0.18101   0.27321   0.95992   0.00000  Uiso   1.00
O1051  O     0.23906   0.23307   0.91986   0.00000  Uiso   1.00
O1052  O     0.22774   0.20487   0.83334   0.00000  Uiso   1.00
O1053  O     0.10559   0.12846   0.83333   0.00000  Uiso   1.00
O1054  O     0.16667   0.20488   0.76178   0.00000  Uiso   1.00
O1055  O     0.16666   0.12845   0.90489   0.00000  Uiso   1.00
O1056  O     0.16666   0.20488   0.90489   0.00000  Uiso   1.00
O1057  O     0.16667   0.12845   0.76178   0.00000  Uiso   1.00
O1058  O     0.04682   0.09054   0.86316   0.00000  Uiso   1.00
S1059  S     0.22998   0.05303   0.91843   0.00000  Uiso   1.00
S1060  S     0.10655   0.27977   0.74386   0.00000  Uiso   1.00
S1061  S     0.09828   0.05237   0.75357   0.00000  Uiso   1.00
S1062  S     0.21567   0.28113   0.93007   0.00000  Uiso   1.00
Zn1063 Zn    0.16667   0.21771   0.83333   0.00000  Uiso   1.00
Zn1064 Zn    0.16667   0.11563   0.83333   0.00000  Uiso   1.00
C1065  C     0.42038   0.16689   0.83496   0.00000  Uiso   1.00
C1066  C     0.35417   0.20775   0.83174   0.00000  Uiso   1.00
C1067  C     0.62460   0.16689   0.83549   0.00000  Uiso   1.00
C1068  C     0.37656   0.16751   0.83807   0.00000  Uiso   1.00
C1069  C     0.52676   0.02455   0.86997   0.00000  Uiso   1.00
C1070  C     0.47279   0.30887   0.79676   0.00000  Uiso   1.00
C1071  C     0.47218   0.02409   0.79765   0.00000  Uiso   1.00
C1072  C     0.52517   0.30966   0.87186   0.00000  Uiso   1.00
C1073  C     0.57995   0.16663   0.83347   0.00000  Uiso   1.00
C1074  C     0.50046   0.16648   0.73984   0.00000  Uiso   1.00
C1075  C     0.49990   0.16683   0.92689   0.00000  Uiso   1.00
C1076  C     0.50032   0.16638   0.68857   0.00000  Uiso   1.00
C1077  C     0.50009   0.16688   0.97816   0.00000  Uiso   1.00
C1078  C     0.35681   0.12766   0.84675   0.00000  Uiso   1.00
C1079  C     0.64544   0.20784   0.83572   0.00000  Uiso   1.00
C1080  C     0.64682   0.12647   0.83867   0.00000  Uiso   1.00
H1081  H     0.36355   0.07118   0.88200   0.00000  Uiso   1.00
H1082  H     0.64369   0.26964   0.85736   0.00000  Uiso   1.00
H1083  H     0.64389   0.06353   0.82093   0.00000  Uiso   1.00
H1084  H     0.35315   0.26662   0.80218   0.00000  Uiso   1.00
H1085  H     0.59445   0.11244   0.94994   0.00000  Uiso   1.00
H1086  H     0.41454   0.21788   0.71149   0.00000  Uiso   1.00
H1087  H     0.40246   0.11252   0.72200   0.00000  Uiso   1.00
H1088  H     0.58025   0.21971   0.95386   0.00000  Uiso   1.00
N1089  N     0.50000   0.28573   0.83333   0.00000  Uiso   1.00
N1090  N     0.50000   0.04760   0.83333   0.00000  Uiso   1.00
O1091  O     0.43892   0.20487   0.83333   0.00000  Uiso   1.00
O1092  O     0.62439   0.24760   0.83854   0.00000  Uiso   1.00
O1093  O     0.62606   0.08640   0.83388   0.00000  Uiso   1.00
O1094  O     0.37367   0.24667   0.82226   0.00000  Uiso   1.00
O1095  O     0.54897   0.04508   0.96850   0.00000  Uiso   1.00
O1096  O     0.60532   0.03207   0.91744   0.00000  Uiso   1.00
O1097  O     0.57311   0.10729   0.91949   0.00000  Uiso   1.00
O1098  O     0.39721   0.29986   0.73216   0.00000  Uiso   1.00
O1099  O     0.46119   0.28502   0.69828   0.00000  Uiso   1.00
O1100  O     0.42824   0.22611   0.74626   0.00000  Uiso   1.00
O1101  O     0.43228   0.03457   0.70080   0.00000  Uiso   1.00
O1102  O     0.56108   0.12846   0.83334   0.00000  Uiso   1.00
O1103  O     0.39086   0.04117   0.77017   0.00000  Uiso   1.00
O1104  O     0.42905   0.10709   0.74505   0.00000  Uiso   1.00
O1105  O     0.58238   0.30446   0.96572   0.00000  Uiso   1.00
O1106  O     0.51434   0.27321   0.95992   0.00000  Uiso   1.00
O1107  O     0.57239   0.23307   0.91986   0.00000  Uiso   1.00
O1108  O     0.56108   0.20487   0.83334   0.00000  Uiso   1.00
O1109  O     0.43892   0.12846   0.83333   0.00000  Uiso   1.00
O1110  O     0.50000   0.20488   0.76178   0.00000  Uiso   1.00
O1111  O     0.50000   0.12845   0.90489   0.00000  Uiso   1.00
O1112  O     0.50000   0.20488   0.90489   0.00000  Uiso   1.00
O1113  O     0.50000   0.12845   0.76178   0.00000  Uiso   1.00
O1114  O     0.38015   0.09054   0.86316   0.00000  Uiso   1.00
S1115  S     0.56331   0.05303   0.91843   0.00000  Uiso   1.00
S1116  S     0.43989   0.27977   0.74386   0.00000  Uiso   1.00
S1117  S     0.43161   0.05237   0.75357   0.00000  Uiso   1.00
S1118  S     0.54900   0.28113   0.93007   0.00000  Uiso   1.00
Zn1119 Zn    0.50000   0.21771   0.83333   0.00000  Uiso   1.00
Zn1120 Zn    0.50000   0.11563   0.83333   0.00000  Uiso   1.00
C1121  C     0.75371   0.16689   0.83496   0.00000  Uiso   1.00
C1122  C     0.68750   0.20775   0.83174   0.00000  Uiso   1.00
C1123  C     0.95793   0.16689   0.83549   0.00000  Uiso   1.00
C1124  C     0.70989   0.16751   0.83807   0.00000  Uiso   1.00
C1125  C     0.86009   0.02455   0.86997   0.00000  Uiso   1.00
C1126  C     0.80613   0.30887   0.79676   0.00000  Uiso   1.00
C1127  C     0.80551   0.02409   0.79765   0.00000  Uiso   1.00
C1128  C     0.85851   0.30966   0.87186   0.00000  Uiso   1.00
C1129  C     0.91329   0.16663   0.83347   0.00000  Uiso   1.00
C1130  C     0.83379   0.16648   0.73984   0.00000  Uiso   1.00
C1131  C     0.83323   0.16683   0.92689   0.00000  Uiso   1.00
C1132  C     0.83365   0.16638   0.68857   0.00000  Uiso   1.00
C1133  C     0.83342   0.16688   0.97816   0.00000  Uiso   1.00
C1134  C     0.69014   0.12766   0.84675   0.00000  Uiso   1.00
C1135  C     0.97877   0.20784   0.83572   0.00000  Uiso   1.00
C1136  C     0.98016   0.12647   0.83867   0.00000  Uiso   1.00
H1137  H     0.69688   0.07118   0.88200   0.00000  Uiso   1.00
H1138  H     0.97703   0.26964   0.85736   0.00000  Uiso   1.00
H1139  H     0.97722   0.06353   0.82093   0.00000  Uiso   1.00
H1140  H     0.68648   0.26662   0.80218   0.00000  Uiso   1.00
H1141  H     0.92778   0.11244   0.94994   0.00000  Uiso   1.00
H1142  H     0.74787   0.21788   0.71149   0.00000  Uiso   1.00
H1143  H     0.73579   0.11252   0.72200   0.00000  Uiso   1.00
H1144  H     0.91358   0.21971   0.95386   0.00000  Uiso   1.00
N1145  N     0.83333   0.28573   0.83333   0.00000  Uiso   1.00
N1146  N     0.83333   0.04760   0.83333   0.00000  Uiso   1.00
O1147  O     0.77226   0.20487   0.83333   0.00000  Uiso   1.00
O1148  O     0.95773   0.24760   0.83854   0.00000  Uiso   1.00
O1149  O     0.95939   0.08640   0.83388   0.00000  Uiso   1.00
O1150  O     0.70701   0.24667   0.82226   0.00000  Uiso   1.00
O1151  O     0.88230   0.04508   0.96850   0.00000  Uiso   1.00
O1152  O     0.93865   0.03207   0.91744   0.00000  Uiso   1.00
O1153  O     0.90645   0.10729   0.91949   0.00000  Uiso   1.00
O1154  O     0.73054   0.29986   0.73216   0.00000  Uiso   1.00
O1155  O     0.79453   0.28502   0.69828   0.00000  Uiso   1.00
O1156  O     0.76158   0.22611   0.74626   0.00000  Uiso   1.00
O1157  O     0.76561   0.03457   0.70080   0.00000  Uiso   1.00
O1158  O     0.89441   0.12846   0.83334   0.00000  Uiso   1.00
O1159  O     0.72419   0.04117   0.77017   0.00000  Uiso   1.00
O1160  O     0.76238   0.10709   0.74505   0.00000  Uiso   1.00
O1161  O     0.91571   0.30446   0.96572   0.00000  Uiso   1.00
O1162  O     0.84768   0.27321   0.95992   0.00000  Uiso   1.00
O1163  O     0.90572   0.23307   0.91986   0.00000  Uiso   1.00
O1164  O     0.89441   0.20487   0.83334   0.00000  Uiso   1.00
O1165  O     0.77226   0.12846   0.83333   0.00000  Uiso   1.00
O1166  O     0.83334   0.20488   0.76178   0.00000  Uiso   1.00
O1167  O     0.83333   0.12845   0.90489   0.00000  Uiso   1.00
O1168  O     0.83333   0.20488   0.90489   0.00000  Uiso   1.00
O1169  O     0.83334   0.12845   0.76178   0.00000  Uiso   1.00
O1170  O     0.71349   0.09054   0.86316   0.00000  Uiso   1.00
S1171  S     0.89665   0.05303   0.91843   0.00000  Uiso   1.00
S1172  S     0.77322   0.27977   0.74386   0.00000  Uiso   1.00
S1173  S     0.76494   0.05237   0.75357   0.00000  Uiso   1.00
S1174  S     0.88234   0.28113   0.93007   0.00000  Uiso   1.00
Zn1175 Zn    0.83333   0.21771   0.83333   0.00000  Uiso   1.00
Zn1176 Zn    0.83333   0.11563   0.83333   0.00000  Uiso   1.00
C1177  C     0.08705   0.50023   0.83496   0.00000  Uiso   1.00
C1178  C     0.02083   0.54108   0.83174   0.00000  Uiso   1.00
C1179  C     0.29127   0.50022   0.83549   0.00000  Uiso   1.00
C1180  C     0.04322   0.50085   0.83807   0.00000  Uiso   1.00
C1181  C     0.19342   0.35788   0.86997   0.00000  Uiso   1.00
C1182  C     0.13946   0.64221   0.79676   0.00000  Uiso   1.00
C1183  C     0.13884   0.35742   0.79765   0.00000  Uiso   1.00
C1184  C     0.19184   0.64299   0.87186   0.00000  Uiso   1.00
C1185  C     0.24662   0.49996   0.83347   0.00000  Uiso   1.00
C1186  C     0.16712   0.49982   0.73984   0.00000  Uiso   1.00
C1187  C     0.16657   0.50017   0.92689   0.00000  Uiso   1.00
C1188  C     0.16698   0.49971   0.68857   0.00000  Uiso   1.00
C1189  C     0.16675   0.50021   0.97816   0.00000  Uiso   1.00
C1190  C     0.02348   0.46099   0.84675   0.00000  Uiso   1.00
C1191  C     0.31211   0.54117   0.83572   0.00000  Uiso   1.00
C1192  C     0.31349   0.45981   0.83867   0.00000  Uiso   1.00
H1193  H     0.03022   0.40452   0.88200   0.00000  Uiso   1.00
H1194  H     0.31036   0.60297   0.85736   0.00000  Uiso   1.00
H1195  H     0.31055   0.39687   0.82093   0.00000  Uiso   1.00
H1196  H     0.01981   0.59995   0.80218   0.00000  Uiso   1.00
H1197  H     0.26112   0.44577   0.94994   0.00000  Uiso   1.00
H1198  H     0.08120   0.55122   0.71149   0.00000  Uiso   1.00
H1199  H     0.06913   0.44586   0.72200   0.00000  Uiso   1.00
H1200  H     0.24692   0.55304   0.95386   0.00000  Uiso   1.00
N1201  N     0.16667   0.61907   0.83333   0.00000  Uiso   1.00
N1202  N     0.16667   0.38093   0.83333   0.00000  Uiso   1.00
O1203  O     0.10559   0.53821   0.83333   0.00000  Uiso   1.00
O1204  O     0.29106   0.58093   0.83854   0.00000  Uiso   1.00
O1205  O     0.29272   0.41973   0.83388   0.00000  Uiso   1.00
O1206  O     0.04034   0.58001   0.82226   0.00000  Uiso   1.00
O1207  O     0.21564   0.37841   0.96850   0.00000  Uiso   1.00
O1208  O     0.27198   0.36541   0.91744   0.00000  Uiso   1.00
O1209  O     0.23978   0.44063   0.91949   0.00000  Uiso   1.00
O1210  O     0.06388   0.63320   0.73216   0.00000  Uiso   1.00
O1211  O     0.12786   0.61836   0.69828   0.00000  Uiso   1.00
O1212  O     0.09491   0.55944   0.74626   0.00000  Uiso   1.00
O1213  O     0.09895   0.36790   0.70080   0.00000  Uiso   1.00
O1214  O     0.22774   0.46179   0.83334   0.00000  Uiso   1.00
O1215  O     0.05752   0.37450   0.77017   0.00000  Uiso   1.00
O1216  O     0.09571   0.44042   0.74505   0.00000  Uiso   1.00
O1217  O     0.24904   0.63780   0.96572   0.00000  Uiso   1.00
O1218  O     0.18101   0.60654   0.95992   0.00000  Uiso   1.00
O1219  O     0.23906   0.56640   0.91986   0.00000  Uiso   1.00
O1220  O     0.22774   0.53821   0.83334   0.00000  Uiso   1.00
O1221  O     0.10559   0.46179   0.83333   0.00000  Uiso   1.00
O1222  O     0.16667   0.53821   0.76178   0.00000  Uiso   1.00
O1223  O     0.16666   0.46179   0.90489   0.00000  Uiso   1.00
O1224  O     0.16666   0.53821   0.90489   0.00000  Uiso   1.00
O1225  O     0.16667   0.46179   0.76178   0.00000  Uiso   1.00
O1226  O     0.04682   0.42388   0.86316   0.00000  Uiso   1.00
S1227  S     0.22998   0.38636   0.91843   0.00000  Uiso   1.00
S1228  S     0.10655   0.61310   0.74386   0.00000  Uiso   1.00
S1229  S     0.09828   0.38570   0.75357   0.00000  Uiso   1.00
S1230  S     0.21567   0.61446   0.93007   0.00000  Uiso   1.00
Zn1231 Zn    0.16667   0.55104   0.83333   0.00000  Uiso   1.00
Zn1232 Zn    0.16667   0.44896   0.83333   0.00000  Uiso   1.00
C1233  C     0.42038   0.50023   0.83496   0.00000  Uiso   1.00
C1234  C     0.35417   0.54108   0.83174   0.00000  Uiso   1.00
C1235  C     0.62460   0.50022   0.83549   0.00000  Uiso   1.00
C1236  C     0.37656   0.50085   0.83807   0.00000  Uiso   1.00
C1237  C     0.52676   0.35788   0.86997   0.00000  Uiso   1.00
C1238  C     0.47279   0.64221   0.79676   0.00000  Uiso   1.00
C1239  C     0.47218   0.35742   0.79765   0.00000  Uiso   1.00
C1240  C     0.52517   0.64299   0.87186   0.00000  Uiso   1.00
C1241  C     0.57995   0.49996   0.83347   0.00000  Uiso   1.00
C1242  C     0.50046   0.49982   0.73984   0.00000  Uiso   1.00
C1243  C     0.49990   0.50017   0.92689   0.00000  Uiso   1.00
C1244  C     0.50032   0.49971   0.68857   0.00000  Uiso   1.00
C1245  C     0.50009   0.50021   0.97816   0.00000  Uiso   1.00
C1246  C     0.35681   0.46099   0.84675   0.00000  Uiso   1.00
C1247  C     0.64544   0.54117   0.83572   0.00000  Uiso   1.00
C1248  C     0.64682   0.45981   0.83867   0.00000  Uiso   1.00
H1249  H     0.36355   0.40452   0.88200   0.00000  Uiso   1.00
H1250  H     0.64369   0.60297   0.85736   0.00000  Uiso   1.00
H1251  H     0.64389   0.39687   0.82093   0.00000  Uiso   1.00
H1252  H     0.35315   0.59995   0.80218   0.00000  Uiso   1.00
H1253  H     0.59445   0.44577   0.94994   0.00000  Uiso   1.00
H1254  H     0.41454   0.55122   0.71149   0.00000  Uiso   1.00
H1255  H     0.40246   0.44586   0.72200   0.00000  Uiso   1.00
H1256  H     0.58025   0.55304   0.95386   0.00000  Uiso   1.00
N1257  N     0.50000   0.61907   0.83333   0.00000  Uiso   1.00
N1258  N     0.50000   0.38093   0.83333   0.00000  Uiso   1.00
O1259  O     0.43892   0.53821   0.83333   0.00000  Uiso   1.00
O1260  O     0.62439   0.58093   0.83854   0.00000  Uiso   1.00
O1261  O     0.62606   0.41973   0.83388   0.00000  Uiso   1.00
O1262  O     0.37367   0.58001   0.82226   0.00000  Uiso   1.00
O1263  O     0.54897   0.37841   0.96850   0.00000  Uiso   1.00
O1264  O     0.60532   0.36541   0.91744   0.00000  Uiso   1.00
O1265  O     0.57311   0.44063   0.91949   0.00000  Uiso   1.00
O1266  O     0.39721   0.63320   0.73216   0.00000  Uiso   1.00
O1267  O     0.46119   0.61836   0.69828   0.00000  Uiso   1.00
O1268  O     0.42824   0.55944   0.74626   0.00000  Uiso   1.00
O1269  O     0.43228   0.36790   0.70080   0.00000  Uiso   1.00
O1270  O     0.56108   0.46179   0.83334   0.00000  Uiso   1.00
O1271  O     0.39086   0.37450   0.77017   0.00000  Uiso   1.00
O1272  O     0.42905   0.44042   0.74505   0.00000  Uiso   1.00
O1273  O     0.58238   0.63780   0.96572   0.00000  Uiso   1.00
O1274  O     0.51434   0.60654   0.95992   0.00000  Uiso   1.00
O1275  O     0.57239   0.56640   0.91986   0.00000  Uiso   1.00
O1276  O     0.56108   0.53821   0.83334   0.00000  Uiso   1.00
O1277  O     0.43892   0.46179   0.83333   0.00000  Uiso   1.00
O1278  O     0.50000   0.53821   0.76178   0.00000  Uiso   1.00
O1279  O     0.50000   0.46179   0.90489   0.00000  Uiso   1.00
O1280  O     0.50000   0.53821   0.90489   0.00000  Uiso   1.00
O1281  O     0.50000   0.46179   0.76178   0.00000  Uiso   1.00
O1282  O     0.38015   0.42388   0.86316   0.00000  Uiso   1.00
S1283  S     0.56331   0.38636   0.91843   0.00000  Uiso   1.00
S1284  S     0.43989   0.61310   0.74386   0.00000  Uiso   1.00
S1285  S     0.43161   0.38570   0.75357   0.00000  Uiso   1.00
S1286  S     0.54900   0.61446   0.93007   0.00000  Uiso   1.00
Zn1287 Zn    0.50000   0.55104   0.83333   0.00000  Uiso   1.00
Zn1288 Zn    0.50000   0.44896   0.83333   0.00000  Uiso   1.00
C1289  C     0.75371   0.50023   0.83496   0.00000  Uiso   1.00
C1290  C     0.68750   0.54108   0.83174   0.00000  Uiso   1.00
C1291  C     0.95793   0.50022   0.83549   0.00000  Uiso   1.00
C1292  C     0.70989   0.50085   0.83807   0.00000  Uiso   1.00
C1293  C     0.86009   0.35788   0.86997   0.00000  Uiso   1.00
C1294  C     0.80613   0.64221   0.79676   0.00000  Uiso   1.00
C1295  C     0.80551   0.35742   0.79765   0.00000  Uiso   1.00
C1296  C     0.85851   0.64299   0.87186   0.00000  Uiso   1.00
C1297  C     0.91329   0.49996   0.83347   0.00000  Uiso   1.00
C1298  C     0.83379   0.49982   0.73984   0.00000  Uiso   1.00
C1299  C     0.83323   0.50017   0.92689   0.00000  Uiso   1.00
C1300  C     0.83365   0.49971   0.68857   0.00000  Uiso   1.00
C1301  C     0.83342   0.50021   0.97816   0.00000  Uiso   1.00
C1302  C     0.69014   0.46099   0.84675   0.00000  Uiso   1.00
C1303  C     0.97877   0.54117   0.83572   0.00000  Uiso   1.00
C1304  C     0.98016   0.45981   0.83867   0.00000  Uiso   1.00
H1305  H     0.69688   0.40452   0.88200   0.00000  Uiso   1.00
H1306  H     0.97703   0.60297   0.85736   0.00000  Uiso   1.00
H1307  H     0.97722   0.39687   0.82093   0.00000  Uiso   1.00
H1308  H     0.68648   0.59995   0.80218   0.00000  Uiso   1.00
H1309  H     0.92778   0.44577   0.94994   0.00000  Uiso   1.00
H1310  H     0.74787   0.55122   0.71149   0.00000  Uiso   1.00
H1311  H     0.73579   0.44586   0.72200   0.00000  Uiso   1.00
H1312  H     0.91358   0.55304   0.95386   0.00000  Uiso   1.00
N1313  N     0.83333   0.61907   0.83333   0.00000  Uiso   1.00
N1314  N     0.83333   0.38093   0.83333   0.00000  Uiso   1.00
O1315  O     0.77226   0.53821   0.83333   0.00000  Uiso   1.00
O1316  O     0.95773   0.58093   0.83854   0.00000  Uiso   1.00
O1317  O     0.95939   0.41973   0.83388   0.00000  Uiso   1.00
O1318  O     0.70701   0.58001   0.82226   0.00000  Uiso   1.00
O1319  O     0.88230   0.37841   0.96850   0.00000  Uiso   1.00
O1320  O     0.93865   0.36541   0.91744   0.00000  Uiso   1.00
O1321  O     0.90645   0.44063   0.91949   0.00000  Uiso   1.00
O1322  O     0.73054   0.63320   0.73216   0.00000  Uiso   1.00
O1323  O     0.79453   0.61836   0.69828   0.00000  Uiso   1.00
O1324  O     0.76158   0.55944   0.74626   0.00000  Uiso   1.00
O1325  O     0.76561   0.36790   0.70080   0.00000  Uiso   1.00
O1326  O     0.89441   0.46179   0.83334   0.00000  Uiso   1.00
O1327  O     0.72419   0.37450   0.77017   0.00000  Uiso   1.00
O1328  O     0.76238   0.44042   0.74505   0.00000  Uiso   1.00
O1329  O     0.91571   0.63780   0.96572   0.00000  Uiso   1.00
O1330  O     0.84768   0.60654   0.95992   0.00000  Uiso   1.00
O1331  O     0.90572   0.56640   0.91986   0.00000  Uiso   1.00
O1332  O     0.89441   0.53821   0.83334   0.00000  Uiso   1.00
O1333  O     0.77226   0.46179   0.83333   0.00000  Uiso   1.00
O1334  O     0.83334   0.53821   0.76178   0.00000  Uiso   1.00
O1335  O     0.83333   0.46179   0.90489   0.00000  Uiso   1.00
O1336  O     0.83333   0.53821   0.90489   0.00000  Uiso   1.00
O1337  O     0.83334   0.46179   0.76178   0.00000  Uiso   1.00
O1338  O     0.71349   0.42388   0.86316   0.00000  Uiso   1.00
S1339  S     0.89665   0.38636   0.91843   0.00000  Uiso   1.00
S1340  S     0.77322   0.61310   0.74386   0.00000  Uiso   1.00
S1341  S     0.76494   0.38570   0.75357   0.00000  Uiso   1.00
S1342  S     0.88234   0.61446   0.93007   0.00000  Uiso   1.00
Zn1343 Zn    0.83333   0.55104   0.83333   0.00000  Uiso   1.00
Zn1344 Zn    0.83333   0.44896   0.83333   0.00000  Uiso   1.00
C1345  C     0.08705   0.83356   0.83496   0.00000  Uiso   1.00
C1346  C     0.02083   0.87441   0.83174   0.00000  Uiso   1.00
C1347  C     0.29127   0.83356   0.83549   0.00000  Uiso   1.00
C1348  C     0.04322   0.83418   0.83807   0.00000  Uiso   1.00
C1349  C     0.19342   0.69122   0.86997   0.00000  Uiso   1.00
C1350  C     0.13946   0.97554   0.79676   0.00000  Uiso   1.00
C1351  C     0.13884   0.69076   0.79765   0.00000  Uiso   1.00
C1352  C     0.19184   0.97632   0.87186   0.00000  Uiso   1.00
C1353  C     0.24662   0.83329   0.83347   0.00000  Uiso   1.00
C1354  C     0.16712   0.83315   0.73984   0.00000  Uiso   1.00
C1355  C     0.16657   0.83350   0.92689   0.00000  Uiso   1.00
C1356  C     0.16698   0.83305   0.68857   0.00000  Uiso   1.00
C1357  C     0.16675   0.83354   0.97816   0.00000  Uiso   1.00
C1358  C     0.02348   0.79433   0.84675   0.00000  Uiso   1.00
C1359  C     0.31211   0.87451   0.83572   0.00000  Uiso   1.00
C1360  C     0.31349   0.79314   0.83867   0.00000  Uiso   1.00
H1361  H     0.03022   0.73785   0.88200   0.00000  Uiso   1.00
H1362  H     0.31036   0.93630   0.85736   0.00000  Uiso   1.00
H1363  H     0.31055   0.73020   0.82093   0.00000  Uiso   1.00
H1364  H     0.01981   0.93328   0.80218   0.00000  Uiso   1.00
H1365  H     0.26112   0.77911   0.94994   0.00000  Uiso   1.00
H1366  H     0.08120   0.88455   0.71149   0.00000  Uiso   1.00
H1367  H     0.06913   0.77919   0.72200   0.00000  Uiso   1.00
H1368  H     0.24692   0.88638   0.95386   0.00000  Uiso   1.00
N1369  N     0.16667   0.95240   0.83333   0.00000  Uiso   1.00
N1370  N     0.16667   0.71427   0.83333   0.00000  Uiso   1.00
O1371  O     0.10559   0.87154   0.83333   0.00000  Uiso   1.00
O1372  O     0.29106   0.91427   0.83854   0.00000  Uiso   1.00
O1373  O     0.29272   0.75307   0.83388   0.00000  Uiso   1.00
O1374  O     0.04034   0.91334   0.82226   0.00000  Uiso   1.00
O1375  O     0.21564   0.71174   0.96850   0.00000  Uiso   1.00
O1376  O     0.27198   0.69874   0.91744   0.00000  Uiso   1.00
O1377  O     0.23978   0.77396   0.91949   0.00000  Uiso   1.00
O1378  O     0.06388   0.96653   0.73216   0.00000  Uiso   1.00
O1379  O     0.12786   0.95169   0.69828   0.00000  Uiso   1.00
O1380  O     0.09491   0.89277   0.74626   0.00000  Uiso   1.00
O1381  O     0.09895   0.70123   0.70080   0.00000  Uiso   1.00
O1382  O     0.22774   0.79513   0.83334   0.00000  Uiso   1.00
O1383  O     0.05752   0.70784   0.77017   0.00000  Uiso   1.00
O1384  O     0.09571   0.77376   0.74505   0.00000  Uiso   1.00
O1385  O     0.24904   0.97113   0.96572   0.00000  Uiso   1.00
O1386  O     0.18101   0.93988   0.95992   0.00000  Uiso   1.00
O1387  O     0.23906   0.89973   0.91986   0.00000  Uiso   1.00
O1388  O     0.22774   0.87154   0.83334   0.00000  Uiso   1.00
O1389  O     0.10559   0.79513   0.83333   0.00000  Uiso   1.00
O1390  O     0.16667   0.87155   0.76178   0.00000  Uiso   1.00
O1391  O     0.16666   0.79512   0.90489   0.00000  Uiso   1.00
O1392  O     0.16666   0.87155   0.90489   0.00000  Uiso   1.00
O1393  O     0.16667   0.79512   0.76178   0.00000  Uiso   1.00
O1394  O     0.04682   0.75721   0.86316   0.00000  Uiso   1.00
S1395  S     0.22998   0.71970   0.91843   0.00000  Uiso   1.00
S1396  S     0.10655   0.94644   0.74386   0.00000  Uiso   1.00
S1397  S     0.09828   0.71903   0.75357   0.00000  Uiso   1.00
S1398  S     0.21567   0.94779   0.93007   0.00000  Uiso   1.00
Zn1399 Zn    0.16667   0.88437   0.83333   0.00000  Uiso   1.00
Zn1400 Zn    0.16667   0.78229   0.83333   0.00000  Uiso   1.00
C1401  C     0.42038   0.83356   0.83496   0.00000  Uiso   1.00
C1402  C     0.35417   0.87441   0.83174   0.00000  Uiso   1.00
C1403  C     0.62460   0.83356   0.83549   0.00000  Uiso   1.00
C1404  C     0.37656   0.83418   0.83807   0.00000  Uiso   1.00
C1405  C     0.52676   0.69122   0.86997   0.00000  Uiso   1.00
C1406  C     0.47279   0.97554   0.79676   0.00000  Uiso   1.00
C1407  C     0.47218   0.69076   0.79765   0.00000  Uiso   1.00
C1408  C     0.52517   0.97632   0.87186   0.00000  Uiso   1.00
C1409  C     0.57995   0.83329   0.83347   0.00000  Uiso   1.00
C1410  C     0.50046   0.83315   0.73984   0.00000  Uiso   1.00
C1411  C     0.49990   0.83350   0.92689   0.00000  Uiso   1.00
C1412  C     0.50032   0.83305   0.68857   0.00000  Uiso   1.00
C1413  C     0.50009   0.83354   0.97816   0.00000  Uiso   1.00
C1414  C     0.35681   0.79433   0.84675   0.00000  Uiso   1.00
C1415  C     0.64544   0.87451   0.83572   0.00000  Uiso   1.00
C1416  C     0.64682   0.79314   0.83867   0.00000  Uiso   1.00
H1417  H     0.36355   0.73785   0.88200   0.00000  Uiso   1.00
H1418  H     0.64369   0.93630   0.85736   0.00000  Uiso   1.00
H1419  H     0.64389   0.73020   0.82093   0.00000  Uiso   1.00
H1420  H     0.35315   0.93328   0.80218   0.00000  Uiso   1.00
H1421  H     0.59445   0.77911   0.94994   0.00000  Uiso   1.00
H1422  H     0.41454   0.88455   0.71149   0.00000  Uiso   1.00
H1423  H     0.40246   0.77919   0.72200   0.00000  Uiso   1.00
H1424  H     0.58025   0.88638   0.95386   0.00000  Uiso   1.00
N1425  N     0.50000   0.95240   0.83333   0.00000  Uiso   1.00
N1426  N     0.50000   0.71427   0.83333   0.00000  Uiso   1.00
O1427  O     0.43892   0.87154   0.83333   0.00000  Uiso   1.00
O1428  O     0.62439   0.91427   0.83854   0.00000  Uiso   1.00
O1429  O     0.62606   0.75307   0.83388   0.00000  Uiso   1.00
O1430  O     0.37367   0.91334   0.82226   0.00000  Uiso   1.00
O1431  O     0.54897   0.71174   0.96850   0.00000  Uiso   1.00
O1432  O     0.60532   0.69874   0.91744   0.00000  Uiso   1.00
O1433  O     0.57311   0.77396   0.91949   0.00000  Uiso   1.00
O1434  O     0.39721   0.96653   0.73216   0.00000  Uiso   1.00
O1435  O     0.46119   0.95169   0.69828   0.00000  Uiso   1.00
O1436  O     0.42824   0.89277   0.74626   0.00000  Uiso   1.00
O1437  O     0.43228   0.70123   0.70080   0.00000  Uiso   1.00
O1438  O     0.56108   0.79513   0.83334   0.00000  Uiso   1.00
O1439  O     0.39086   0.70784   0.77017   0.00000  Uiso   1.00
O1440  O     0.42905   0.77376   0.74505   0.00000  Uiso   1.00
O1441  O     0.58238   0.97113   0.96572   0.00000  Uiso   1.00
O1442  O     0.51434   0.93988   0.95992   0.00000  Uiso   1.00
O1443  O     0.57239   0.89973   0.91986   0.00000  Uiso   1.00
O1444  O     0.56108   0.87154   0.83334   0.00000  Uiso   1.00
O1445  O     0.43892   0.79513   0.83333   0.00000  Uiso   1.00
O1446  O     0.50000   0.87155   0.76178   0.00000  Uiso   1.00
O1447  O     0.50000   0.79512   0.90489   0.00000  Uiso   1.00
O1448  O     0.50000   0.87155   0.90489   0.00000  Uiso   1.00
O1449  O     0.50000   0.79512   0.76178   0.00000  Uiso   1.00
O1450  O     0.38015   0.75721   0.86316   0.00000  Uiso   1.00
S1451  S     0.56331   0.71970   0.91843   0.00000  Uiso   1.00
S1452  S     0.43989   0.94644   0.74386   0.00000  Uiso   1.00
S1453  S     0.43161   0.71903   0.75357   0.00000  Uiso   1.00
S1454  S     0.54900   0.94779   0.93007   0.00000  Uiso   1.00
Zn1455 Zn    0.50000   0.88437   0.83333   0.00000  Uiso   1.00
Zn1456 Zn    0.50000   0.78229   0.83333   0.00000  Uiso   1.00
C1457  C     0.75371   0.83356   0.83496   0.00000  Uiso   1.00
C1458  C     0.68750   0.87441   0.83174   0.00000  Uiso   1.00
C1459  C     0.95793   0.83356   0.83549   0.00000  Uiso   1.00
C1460  C     0.70989   0.83418   0.83807   0.00000  Uiso   1.00
C1461  C     0.86009   0.69122   0.86997   0.00000  Uiso   1.00
C1462  C     0.80613   0.97554   0.79676   0.00000  Uiso   1.00
C1463  C     0.80551   0.69076   0.79765   0.00000  Uiso   1.00
C1464  C     0.85851   0.97632   0.87186   0.00000  Uiso   1.00
C1465  C     0.91329   0.83329   0.83347   0.00000  Uiso   1.00
C1466  C     0.83379   0.83315   0.73984   0.00000  Uiso   1.00
C1467  C     0.83323   0.83350   0.92689   0.00000  Uiso   1.00
C1468  C     0.83365   0.83305   0.68857   0.00000  Uiso   1.00
C1469  C     0.83342   0.83354   0.97816   0.00000  Uiso   1.00
C1470  C     0.69014   0.79433   0.84675   0.00000  Uiso   1.00
C1471  C     0.97877   0.87451   0.83572   0.00000  Uiso   1.00
C1472  C     0.98016   0.79314   0.83867   0.00000  Uiso   1.00
H1473  H     0.69688   0.73785   0.88200   0.00000  Uiso   1.00
H1474  H     0.97703   0.93630   0.85736   0.00000  Uiso   1.00
H1475  H     0.97722   0.73020   0.82093   0.00000  Uiso   1.00
H1476  H     0.68648   0.93328   0.80218   0.00000  Uiso   1.00
H1477  H     0.92778   0.77911   0.94994   0.00000  Uiso   1.00
H1478  H     0.74787   0.88455   0.71149   0.00000  Uiso   1.00
H1479  H     0.73579   0.77919   0.72200   0.00000  Uiso   1.00
H1480  H     0.91358   0.88638   0.95386   0.00000  Uiso   1.00
N1481  N     0.83333   0.95240   0.83333   0.00000  Uiso   1.00
N1482  N     0.83333   0.71427   0.83333   0.00000  Uiso   1.00
O1483  O     0.77226   0.87154   0.83333   0.00000  Uiso   1.00
O1484  O     0.95773   0.91427   0.83854   0.00000  Uiso   1.00
O1485  O     0.95939   0.75307   0.83388   0.00000  Uiso   1.00
O1486  O     0.70701   0.91334   0.82226   0.00000  Uiso   1.00
O1487  O     0.88230   0.71174   0.96850   0.00000  Uiso   1.00
O1488  O     0.93865   0.69874   0.91744   0.00000  Uiso   1.00
O1489  O     0.90645   0.77396   0.91949   0.00000  Uiso   1.00
O1490  O     0.73054   0.96653   0.73216   0.00000  Uiso   1.00
O1491  O     0.79453   0.95169   0.69828   0.00000  Uiso   1.00
O1492  O     0.76158   0.89277   0.74626   0.00000  Uiso   1.00
O1493  O     0.76561   0.70123   0.70080   0.00000  Uiso   1.00
O1494  O     0.89441   0.79513   0.83334   0.00000  Uiso   1.00
O1495  O     0.72419   0.70784   0.77017   0.00000  Uiso   1.00
O1496  O     0.76238   0.77376   0.74505   0.00000  Uiso   1.00
O1497  O     0.91571   0.97113   0.96572   0.00000  Uiso   1.00
O1498  O     0.84768   0.93988   0.95992   0.00000  Uiso   1.00
O1499  O     0.90572   0.89973   0.91986   0.00000  Uiso   1.00
O1500  O     0.89441   0.87154   0.83334   0.00000  Uiso   1.00
O1501  O     0.77226   0.79513   0.83333   0.00000  Uiso   1.00
O1502  O     0.83334   0.87155   0.76178   0.00000  Uiso   1.00
O1503  O     0.83333   0.79512   0.90489   0.00000  Uiso   1.00
O1504  O     0.83333   0.87155   0.90489   0.00000  Uiso   1.00
O1505  O     0.83334   0.79512   0.76178   0.00000  Uiso   1.00
O1506  O     0.71349   0.75721   0.86316   0.00000  Uiso   1.00
S1507  S     0.89665   0.71970   0.91843   0.00000  Uiso   1.00
S1508  S     0.77322   0.94644   0.74386   0.00000  Uiso   1.00
S1509  S     0.76494   0.71903   0.75357   0.00000  Uiso   1.00
S1510  S     0.88234   0.94779   0.93007   0.00000  Uiso   1.00
Zn1511 Zn    0.83333   0.88437   0.83333   0.00000  Uiso   1.00
Zn1512 Zn    0.83333   0.78229   0.83333   0.00000  Uiso   1.00
loop_
_geom_bond_atom_site_label_1
_geom_bond_atom_site_label_2
_geom_bond_distance
_geom_bond_site_symmetry_2
_ccdc_geom_bond_type
C1     C4      1.440   .     S
C1     O45     1.306   .     A
C1     O27     1.303   .     A
C2     C4      1.409   .     A
C2     O30     1.383   .     S
C2     C127    1.388   1_455 S
C3     C9      1.444   .     S
C3     C15     1.412   .     A
C3     C16     1.410   .     A
C4     C14     1.406   .     A
C5     N26     1.390   .     A
C5     S51     1.820   .     S
C5     C344    1.458   1_545 S
C6     N25     1.397   .     A
C6     S52     1.844   .     S
C6     C175    1.465   .     S
C7     N26     1.393   .     A
C7     S53     1.833   .     S
C7     C342    1.465   1_545 S
C8     N25     1.402   .     A
C8     S54     1.841   .     S
C8     C173    1.458   .     S
C9     O38     1.308   .     A
C9     O44     1.303   .     A
C10    O46     1.292   .     A
C10    C12     1.366   .     S
C10    O49     1.296   .     A
C11    C13     1.366   .     S
C11    O48     1.296   .     A
C11    O47     1.291   .     A
C12    C1021   1.165   1_554 S
C13    C516    1.165   .     S
C14    O50     1.384   .     S
C14    C128    1.391   1_455 S
C15    O28     1.384   .     S
C15    C58     1.388   .     S
C16    O29     1.383   .     S
C16    C70     1.391   .     S
H17    O50     0.991   .     S
H18    O28     0.992   .     S
H19    O29     0.991   .     S
H20    O30     0.991   .     S
H21    O33     0.991   .     S
H22    O36     0.991   .     S
H23    O40     0.991   .     S
H24    O43     0.991   .     S
N25    Zn55    2.052   .     S
N26    Zn56    2.052   .     S
O27    Zn55    2.025   .     S
O31    S51     1.505   .     D
O32    S51     1.504   .     D
O33    S51     1.669   .     S
O34    S52     1.498   .     D
O35    S52     1.502   .     D
O36    S52     1.669   .     S
O37    S53     1.502   .     D
O38    Zn56    2.025   .     S
O39    S53     1.504   .     D
O40    S53     1.669   .     S
O41    S54     1.496   .     D
O42    S54     1.501   .     D
O43    S54     1.672   .     S
O44    Zn55    2.020   .     S
O45    Zn56    2.020   .     S
O46    Zn55    1.941   .     S
O47    Zn56    1.941   .     S
O48    Zn55    1.951   .     S
O49    Zn56    1.951   .     S
C57    C60     1.440   .     S
C57    O101    1.306   .     A
C57    O83     1.303   .     A
C58    C60     1.409   .     A
C58    O86     1.383   .     S
C59    C65     1.444   .     S
C59    C71     1.412   .     A
C59    C72     1.410   .     A
C60    C70     1.406   .     A
C61    N82     1.390   .     A
C61    S107    1.820   .     S
C61    C400    1.458   1_545 S
C62    N81     1.397   .     A
C62    S108    1.844   .     S
C62    C231    1.465   .     S
C63    N82     1.393   .     A
C63    S109    1.833   .     S
C63    C398    1.465   1_545 S
C64    N81     1.402   .     A
C64    S110    1.841   .     S
C64    C229    1.458   .     S
C65    O94     1.308   .     A
C65    O100    1.303   .     A
C66    O102    1.292   .     A
C66    C68     1.366   .     S
C66    O105    1.296   .     A
C67    C69     1.366   .     S
C67    O104    1.296   .     A
C67    O103    1.291   .     A
C68    C1077   1.165   1_554 S
C69    C572    1.165   .     S
C70    O106    1.384   .     S
C71    O84     1.384   .     S
C71    C114    1.388   .     S
C72    O85     1.383   .     S
C72    C126    1.391   .     S
H73    O106    0.991   .     S
H74    O84     0.992   .     S
H75    O85     0.991   .     S
H76    O86     0.991   .     S
H77    O89     0.991   .     S
H78    O92     0.991   .     S
H79    O96     0.991   .     S
H80    O99     0.991   .     S
N81    Zn111   2.052   .     S
N82    Zn112   2.052   .     S
O83    Zn111   2.025   .     S
O87    S107    1.505   .     D
O88    S107    1.504   .     D
O89    S107    1.669   .     S
O90    S108    1.498   .     D
O91    S108    1.502   .     D
O92    S108    1.669   .     S
O93    S109    1.502   .     D
O94    Zn112   2.025   .     S
O95    S109    1.504   .     D
O96    S109    1.669   .     S
O97    S110    1.496   .     D
O98    S110    1.501   .     D
O99    S110    1.672   .     S
O100   Zn111   2.020   .     S
O101   Zn112   2.020   .     S
O102   Zn111   1.941   .     S
O103   Zn112   1.941   .     S
O104   Zn111   1.951   .     S
O105   Zn112   1.951   .     S
C113   C116    1.440   .     S
C113   O157    1.306   .     A
C113   O139    1.303   .     A
C114   C116    1.409   .     A
C114   O142    1.383   .     S
C115   C121    1.444   .     S
C115   C127    1.412   .     A
C115   C128    1.410   .     A
C116   C126    1.406   .     A
C117   N138    1.390   .     A
C117   S163    1.820   .     S
C117   C456    1.458   1_545 S
C118   N137    1.397   .     A
C118   S164    1.844   .     S
C118   C287    1.465   .     S
C119   N138    1.393   .     A
C119   S165    1.833   .     S
C119   C454    1.465   1_545 S
C120   N137    1.402   .     A
C120   S166    1.841   .     S
C120   C285    1.458   .     S
C121   O150    1.308   .     A
C121   O156    1.303   .     A
C122   O158    1.292   .     A
C122   C124    1.366   .     S
C122   O161    1.296   .     A
C123   C125    1.366   .     S
C123   O160    1.296   .     A
C123   O159    1.291   .     A
C124   C1133   1.165   1_554 S
C125   C628    1.165   .     S
C126   O162    1.384   .     S
C127   O140    1.384   .     S
C127   C2      1.388   1_655 S
C128   O141    1.383   .     S
C128   C14     1.391   1_655 S
H129   O162    0.991   .     S
H130   O140    0.992   .     S
H131   O141    0.991   .     S
H132   O142    0.991   .     S
H133   O145    0.991   .     S
H134   O148    0.991   .     S
H135   O152    0.991   .     S
H136   O155    0.991   .     S
N137   Zn167   2.052   .     S
N138   Zn168   2.052   .     S
O139   Zn167   2.025   .     S
O143   S163    1.505   .     D
O144   S163    1.504   .     D
O145   S163    1.669   .     S
O146   S164    1.498   .     D
O147   S164    1.502   .     D
O148   S164    1.669   .     S
O149   S165    1.502   .     D
O150   Zn168   2.025   .     S
O151   S165    1.504   .     D
O152   S165    1.669   .     S
O153   S166    1.496   .     D
O154   S166    1.501   .     D
O155   S166    1.672   .     S
O156   Zn167   2.020   .     S
O157   Zn168   2.020   .     S
O158   Zn167   1.941   .     S
O159   Zn168   1.941   .     S
O160   Zn167   1.951   .     S
O161   Zn168   1.951   .     S
C169   C172    1.440   .     S
C169   O213    1.306   .     A
C169   O195    1.303   .     A
C170   C172    1.409   .     A
C170   O198    1.383   .     S
C170   C295    1.388   1_455 S
C171   C177    1.444   .     S
C171   C183    1.412   .     A
C171   C184    1.410   .     A
C172   C182    1.406   .     A
C173   N194    1.390   .     A
C173   S219    1.820   .     S
C174   N193    1.397   .     A
C174   S220    1.844   .     S
C174   C343    1.465   .     S
C175   N194    1.393   .     A
C175   S221    1.833   .     S
C176   N193    1.402   .     A
C176   S222    1.841   .     S
C176   C341    1.458   .     S
C177   O206    1.308   .     A
C177   O212    1.303   .     A
C178   O214    1.292   .     A
C178   C180    1.366   .     S
C178   O217    1.296   .     A
C179   C181    1.366   .     S
C179   O216    1.296   .     A
C179   O215    1.291   .     A
C180   C1189   1.165   1_554 S
C181   C684    1.165   .     S
C182   O218    1.384   .     S
C182   C296    1.391   1_455 S
C183   O196    1.384   .     S
C183   C226    1.388   .     S
C184   O197    1.383   .     S
C184   C238    1.391   .     S
H185   O218    0.991   .     S
H186   O196    0.992   .     S
H187   O197    0.991   .     S
H188   O198    0.991   .     S
H189   O201    0.991   .     S
H190   O204    0.991   .     S
H191   O208    0.991   .     S
H192   O211    0.991   .     S
N193   Zn223   2.052   .     S
N194   Zn224   2.052   .     S
O195   Zn223   2.025   .     S
O199   S219    1.505   .     D
O200   S219    1.504   .     D
O201   S219    1.669   .     S
O202   S220    1.498   .     D
O203   S220    1.502   .     D
O204   S220    1.669   .     S
O205   S221    1.502   .     D
O206   Zn224   2.025   .     S
O207   S221    1.504   .     D
O208   S221    1.669   .     S
O209   S222    1.496   .     D
O210   S222    1.501   .     D
O211   S222    1.672   .     S
O212   Zn223   2.020   .     S
O213   Zn224   2.020   .     S
O214   Zn223   1.941   .     S
O215   Zn224   1.941   .     S
O216   Zn223   1.951   .     S
O217   Zn224   1.951   .     S
C225   C228    1.440   .     S
C225   O269    1.306   .     A
C225   O251    1.303   .     A
C226   C228    1.409   .     A
C226   O254    1.383   .     S
C227   C233    1.444   .     S
C227   C239    1.412   .     A
C227   C240    1.410   .     A
C228   C238    1.406   .     A
C229   N250    1.390   .     A
C229   S275    1.820   .     S
C230   N249    1.397   .     A
C230   S276    1.844   .     S
C230   C399    1.465   .     S
C231   N250    1.393   .     A
C231   S277    1.833   .     S
C232   N249    1.402   .     A
C232   S278    1.841   .     S
C232   C397    1.458   .     S
C233   O262    1.308   .     A
C233   O268    1.303   .     A
C234   O270    1.292   .     A
C234   C236    1.366   .     S
C234   O273    1.296   .     A
C235   C237    1.366   .     S
C235   O272    1.296   .     A
C235   O271    1.291   .     A
C236   C1245   1.165   1_554 S
C237   C740    1.165   .     S
C238   O274    1.384   .     S
C239   O252    1.384   .     S
C239   C282    1.388   .     S
C240   O253    1.383   .     S
C240   C294    1.391   .     S
H241   O274    0.991   .     S
H242   O252    0.992   .     S
H243   O253    0.991   .     S
H244   O254    0.991   .     S
H245   O257    0.991   .     S
H246   O260    0.991   .     S
H247   O264    0.991   .     S
H248   O267    0.991   .     S
N249   Zn279   2.052   .     S
N250   Zn280   2.052   .     S
O251   Zn279   2.025   .     S
O255   S275    1.505   .     D
O256   S275    1.504   .     D
O257   S275    1.669   .     S
O258   S276    1.498   .     D
O259   S276    1.502   .     D
O260   S276    1.669   .     S
O261   S277    1.502   .     D
O262   Zn280   2.025   .     S
O263   S277    1.504   .     D
O264   S277    1.669   .     S
O265   S278    1.496   .     D
O266   S278    1.501   .     D
O267   S278    1.672   .     S
O268   Zn279   2.020   .     S
O269   Zn280   2.020   .     S
O270   Zn279   1.941   .     S
O271   Zn280   1.941   .     S
O272   Zn279   1.951   .     S
O273   Zn280   1.951   .     S
C281   C284    1.440   .     S
C281   O325    1.306   .     A
C281   O307    1.303   .     A
C282   C284    1.409   .     A
C282   O310    1.383   .     S
C283   C289    1.444   .     S
C283   C295    1.412   .     A
C283   C296    1.410   .     A
C284   C294    1.406   .     A
C285   N306    1.390   .     A
C285   S331    1.820   .     S
C286   N305    1.397   .     A
C286   S332    1.844   .     S
C286   C455    1.465   .     S
C287   N306    1.393   .     A
C287   S333    1.833   .     S
C288   N305    1.402   .     A
C288   S334    1.841   .     S
C288   C453    1.458   .     S
C289   O318    1.308   .     A
C289   O324    1.303   .     A
C290   O326    1.292   .     A
C290   C292    1.366   .     S
C290   O329    1.296   .     A
C291   C293    1.366   .     S
C291   O328    1.296   .     A
C291   O327    1.291   .     A
C292   C1301   1.165   1_554 S
C293   C796    1.165   .     S
C294   O330    1.384   .     S
C295   O308    1.384   .     S
C295   C170    1.388   1_655 S
C296   O309    1.383   .     S
C296   C182    1.391   1_655 S
H297   O330    0.991   .     S
H298   O308    0.992   .     S
H299   O309    0.991   .     S
H300   O310    0.991   .     S
H301   O313    0.991   .     S
H302   O316    0.991   .     S
H303   O320    0.991   .     S
H304   O323    0.991   .     S
N305   Zn335   2.052   .     S
N306   Zn336   2.052   .     S
O307   Zn335   2.025   .     S
O311   S331    1.505   .     D
O312   S331    1.504   .     D
O313   S331    1.669   .     S
O314   S332    1.498   .     D
O315   S332    1.502   .     D
O316   S332    1.669   .     S
O317   S333    1.502   .     D
O318   Zn336   2.025   .     S
O319   S333    1.504   .     D
O320   S333    1.669   .     S
O321   S334    1.496   .     D
O322   S334    1.501   .     D
O323   S334    1.672   .     S
O324   Zn335   2.020   .     S
O325   Zn336   2.020   .     S
O326   Zn335   1.941   .     S
O327   Zn336   1.941   .     S
O328   Zn335   1.951   .     S
O329   Zn336   1.951   .     S
C337   C340    1.440   .     S
C337   O381    1.306   .     A
C337   O363    1.303   .     A
C338   C340    1.409   .     A
C338   O366    1.383   .     S
C338   C463    1.388   1_455 S
C339   C345    1.444   .     S
C339   C351    1.412   .     A
C339   C352    1.410   .     A
C340   C350    1.406   .     A
C341   N362    1.390   .     A
C341   S387    1.820   .     S
C342   N361    1.397   .     A
C342   S388    1.844   .     S
C342   C7      1.465   1_565 S
C343   N362    1.393   .     A
C343   S389    1.833   .     S
C344   N361    1.402   .     A
C344   S390    1.841   .     S
C344   C5      1.458   1_565 S
C345   O374    1.308   .     A
C345   O380    1.303   .     A
C346   O382    1.292   .     A
C346   C348    1.366   .     S
C346   O385    1.296   .     A
C347   C349    1.366   .     S
C347   O384    1.296   .     A
C347   O383    1.291   .     A
C348   C1357   1.165   1_554 S
C349   C852    1.165   .     S
C350   O386    1.384   .     S
C350   C464    1.391   1_455 S
C351   O364    1.384   .     S
C351   C394    1.388   .     S
C352   O365    1.383   .     S
C352   C406    1.391   .     S
H353   O386    0.991   .     S
H354   O364    0.992   .     S
H355   O365    0.991   .     S
H356   O366    0.991   .     S
H357   O369    0.991   .     S
H358   O372    0.991   .     S
H359   O376    0.991   .     S
H360   O379    0.991   .     S
N361   Zn391   2.052   .     S
N362   Zn392   2.052   .     S
O363   Zn391   2.025   .     S
O367   S387    1.505   .     D
O368   S387    1.504   .     D
O369   S387    1.669   .     S
O370   S388    1.498   .     D
O371   S388    1.502   .     D
O372   S388    1.669   .     S
O373   S389    1.502   .     D
O374   Zn392   2.025   .     S
O375   S389    1.504   .     D
O376   S389    1.669   .     S
O377   S390    1.496   .     D
O378   S390    1.501   .     D
O379   S390    1.672   .     S
O380   Zn391   2.020   .     S
O381   Zn392   2.020   .     S
O382   Zn391   1.941   .     S
O383   Zn392   1.941   .     S
O384   Zn391   1.951   .     S
O385   Zn392   1.951   .     S
C393   C396    1.440   .     S
C393   O437    1.306   .     A
C393   O419    1.303   .     A
C394   C396    1.409   .     A
C394   O422    1.383   .     S
C395   C401    1.444   .     S
C395   C407    1.412   .     A
C395   C408    1.410   .     A
C396   C406    1.406   .     A
C397   N418    1.390   .     A
C397   S443    1.820   .     S
C398   N417    1.397   .     A
C398   S444    1.844   .     S
C398   C63     1.465   1_565 S
C399   N418    1.393   .     A
C399   S445    1.833   .     S
C400   N417    1.402   .     A
C400   S446    1.841   .     S
C400   C61     1.458   1_565 S
C401   O430    1.308   .     A
C401   O436    1.303   .     A
C402   O438    1.292   .     A
C402   C404    1.366   .     S
C402   O441    1.296   .     A
C403   C405    1.366   .     S
C403   O440    1.296   .     A
C403   O439    1.291   .     A
C404   C1413   1.165   1_554 S
C405   C908    1.165   .     S
C406   O442    1.384   .     S
C407   O420    1.384   .     S
C407   C450    1.388   .     S
C408   O421    1.383   .     S
C408   C462    1.391   .     S
H409   O442    0.991   .     S
H410   O420    0.992   .     S
H411   O421    0.991   .     S
H412   O422    0.991   .     S
H413   O425    0.991   .     S
H414   O428    0.991   .     S
H415   O432    0.991   .     S
H416   O435    0.991   .     S
N417   Zn447   2.052   .     S
N418   Zn448   2.052   .     S
O419   Zn447   2.025   .     S
O423   S443    1.505   .     D
O424   S443    1.504   .     D
O425   S443    1.669   .     S
O426   S444    1.498   .     D
O427   S444    1.502   .     D
O428   S444    1.669   .     S
O429   S445    1.502   .     D
O430   Zn448   2.025   .     S
O431   S445    1.504   .     D
O432   S445    1.669   .     S
O433   S446    1.496   .     D
O434   S446    1.501   .     D
O435   S446    1.672   .     S
O436   Zn447   2.020   .     S
O437   Zn448   2.020   .     S
O438   Zn447   1.941   .     S
O439   Zn448   1.941   .     S
O440   Zn447   1.951   .     S
O441   Zn448   1.951   .     S
C449   C452    1.440   .     S
C449   O493    1.306   .     A
C449   O475    1.303   .     A
C450   C452    1.409   .     A
C450   O478    1.383   .     S
C451   C457    1.444   .     S
C451   C463    1.412   .     A
C451   C464    1.410   .     A
C452   C462    1.406   .     A
C453   N474    1.390   .     A
C453   S499    1.820   .     S
C454   N473    1.397   .     A
C454   S500    1.844   .     S
C454   C119    1.465   1_565 S
C455   N474    1.393   .     A
C455   S501    1.833   .     S
C456   N473    1.402   .     A
C456   S502    1.841   .     S
C456   C117    1.458   1_565 S
C457   O486    1.308   .     A
C457   O492    1.303   .     A
C458   O494    1.292   .     A
C458   C460    1.366   .     S
C458   O497    1.296   .     A
C459   C461    1.366   .     S
C459   O496    1.296   .     A
C459   O495    1.291   .     A
C460   C1469   1.165   1_554 S
C461   C964    1.165   .     S
C462   O498    1.384   .     S
C463   O476    1.384   .     S
C463   C338    1.388   1_655 S
C464   O477    1.383   .     S
C464   C350    1.391   1_655 S
H465   O498    0.991   .     S
H466   O476    0.992   .     S
H467   O477    0.991   .     S
H468   O478    0.991   .     S
H469   O481    0.991   .     S
H470   O484    0.991   .     S
H471   O488    0.991   .     S
H472   O491    0.991   .     S
N473   Zn503   2.052   .     S
N474   Zn504   2.052   .     S
O475   Zn503   2.025   .     S
O479   S499    1.505   .     D
O480   S499    1.504   .     D
O481   S499    1.669   .     S
O482   S500    1.498   .     D
O483   S500    1.502   .     D
O484   S500    1.669   .     S
O485   S501    1.502   .     D
O486   Zn504   2.025   .     S
O487   S501    1.504   .     D
O488   S501    1.669   .     S
O489   S502    1.496   .     D
O490   S502    1.501   .     D
O491   S502    1.672   .     S
O492   Zn503   2.020   .     S
O493   Zn504   2.020   .     S
O494   Zn503   1.941   .     S
O495   Zn504   1.941   .     S
O496   Zn503   1.951   .     S
O497   Zn504   1.951   .     S
C505   C508    1.440   .     S
C505   O549    1.306   .     A
C505   O531    1.303   .     A
C506   C508    1.409   .     A
C506   O534    1.383   .     S
C506   C631    1.388   1_455 S
C507   C513    1.444   .     S
C507   C519    1.412   .     A
C507   C520    1.410   .     A
C508   C518    1.406   .     A
C509   N530    1.390   .     A
C509   S555    1.820   .     S
C509   C848    1.458   1_545 S
C510   N529    1.397   .     A
C510   S556    1.844   .     S
C510   C679    1.465   .     S
C511   N530    1.393   .     A
C511   S557    1.833   .     S
C511   C846    1.465   1_545 S
C512   N529    1.402   .     A
C512   S558    1.841   .     S
C512   C677    1.458   .     S
C513   O542    1.308   .     A
C513   O548    1.303   .     A
C514   O550    1.292   .     A
C514   C516    1.366   .     S
C514   O553    1.296   .     A
C515   C517    1.366   .     S
C515   O552    1.296   .     A
C515   O551    1.291   .     A
C517   C1020   1.165   .     S
C518   O554    1.384   .     S
C518   C632    1.391   1_455 S
C519   O532    1.384   .     S
C519   C562    1.388   .     S
C520   O533    1.383   .     S
C520   C574    1.391   .     S
H521   O554    0.991   .     S
H522   O532    0.992   .     S
H523   O533    0.991   .     S
H524   O534    0.991   .     S
H525   O537    0.991   .     S
H526   O540    0.991   .     S
H527   O544    0.991   .     S
H528   O547    0.991   .     S
N529   Zn559   2.052   .     S
N530   Zn560   2.052   .     S
O531   Zn559   2.025   .     S
O535   S555    1.505   .     D
O536   S555    1.504   .     D
O537   S555    1.669   .     S
O538   S556    1.498   .     D
O539   S556    1.502   .     D
O540   S556    1.669   .     S
O541   S557    1.502   .     D
O542   Zn560   2.025   .     S
O543   S557    1.504   .     D
O544   S557    1.669   .     S
O545   S558    1.496   .     D
O546   S558    1.501   .     D
O547   S558    1.672   .     S
O548   Zn559   2.020   .     S
O549   Zn560   2.020   .     S
O550   Zn559   1.941   .     S
O551   Zn560   1.941   .     S
O552   Zn559   1.951   .     S
O553   Zn560   1.951   .     S
C561   C564    1.440   .     S
C561   O605    1.306   .     A
C561   O587    1.303   .     A
C562   C564    1.409   .     A
C562   O590    1.383   .     S
C563   C569    1.444   .     S
C563   C575    1.412   .     A
C563   C576    1.410   .     A
C564   C574    1.406   .     A
C565   N586    1.390   .     A
C565   S611    1.820   .     S
C565   C904    1.458   1_545 S
C566   N585    1.397   .     A
C566   S612    1.844   .     S
C566   C735    1.465   .     S
C567   N586    1.393   .     A
C567   S613    1.833   .     S
C567   C902    1.465   1_545 S
C568   N585    1.402   .     A
C568   S614    1.841   .     S
C568   C733    1.458   .     S
C569   O598    1.308   .     A
C569   O604    1.303   .     A
C570   O606    1.292   .     A
C570   C572    1.366   .     S
C570   O609    1.296   .     A
C571   C573    1.366   .     S
C571   O608    1.296   .     A
C571   O607    1.291   .     A
C573   C1076   1.165   .     S
C574   O610    1.384   .     S
C575   O588    1.384   .     S
C575   C618    1.388   .     S
C576   O589    1.383   .     S
C576   C630    1.391   .     S
H577   O610    0.991   .     S
H578   O588    0.992   .     S
H579   O589    0.991   .     S
H580   O590    0.991   .     S
H581   O593    0.991   .     S
H582   O596    0.991   .     S
H583   O600    0.991   .     S
H584   O603    0.991   .     S
N585   Zn615   2.052   .     S
N586   Zn616   2.052   .     S
O587   Zn615   2.025   .     S
O591   S611    1.505   .     D
O592   S611    1.504   .     D
O593   S611    1.669   .     S
O594   S612    1.498   .     D
O595   S612    1.502   .     D
O596   S612    1.669   .     S
O597   S613    1.502   .     D
O598   Zn616   2.025   .     S
O599   S613    1.504   .     D
O600   S613    1.669   .     S
O601   S614    1.496   .     D
O602   S614    1.501   .     D
O603   S614    1.672   .     S
O604   Zn615   2.020   .     S
O605   Zn616   2.020   .     S
O606   Zn615   1.941   .     S
O607   Zn616   1.941   .     S
O608   Zn615   1.951   .     S
O609   Zn616   1.951   .     S
C617   C620    1.440   .     S
C617   O661    1.306   .     A
C617   O643    1.303   .     A
C618   C620    1.409   .     A
C618   O646    1.383   .     S
C619   C625    1.444   .     S
C619   C631    1.412   .     A
C619   C632    1.410   .     A
C620   C630    1.406   .     A
C621   N642    1.390   .     A
C621   S667    1.820   .     S
C621   C960    1.458   1_545 S
C622   N641    1.397   .     A
C622   S668    1.844   .     S
C622   C791    1.465   .     S
C623   N642    1.393   .     A
C623   S669    1.833   .     S
C623   C958    1.465   1_545 S
C624   N641    1.402   .     A
C624   S670    1.841   .     S
C624   C789    1.458   .     S
C625   O654    1.308   .     A
C625   O660    1.303   .     A
C626   O662    1.292   .     A
C626   C628    1.366   .     S
C626   O665    1.296   .     A
C627   C629    1.366   .     S
C627   O664    1.296   .     A
C627   O663    1.291   .     A
C629   C1132   1.165   .     S
C630   O666    1.384   .     S
C631   O644    1.384   .     S
C631   C506    1.388   1_655 S
C632   O645    1.383   .     S
C632   C518    1.391   1_655 S
H633   O666    0.991   .     S
H634   O644    0.992   .     S
H635   O645    0.991   .     S
H636   O646    0.991   .     S
H637   O649    0.991   .     S
H638   O652    0.991   .     S
H639   O656    0.991   .     S
H640   O659    0.991   .     S
N641   Zn671   2.052   .     S
N642   Zn672   2.052   .     S
O643   Zn671   2.025   .     S
O647   S667    1.505   .     D
O648   S667    1.504   .     D
O649   S667    1.669   .     S
O650   S668    1.498   .     D
O651   S668    1.502   .     D
O652   S668    1.669   .     S
O653   S669    1.502   .     D
O654   Zn672   2.025   .     S
O655   S669    1.504   .     D
O656   S669    1.669   .     S
O657   S670    1.496   .     D
O658   S670    1.501   .     D
O659   S670    1.672   .     S
O660   Zn671   2.020   .     S
O661   Zn672   2.020   .     S
O662   Zn671   1.941   .     S
O663   Zn672   1.941   .     S
O664   Zn671   1.951   .     S
O665   Zn672   1.951   .     S
C673   C676    1.440   .     S
C673   O717    1.306   .     A
C673   O699    1.303   .     A
C674   C676    1.409   .     A
C674   O702    1.383   .     S
C674   C799    1.388   1_455 S
C675   C681    1.444   .     S
C675   C687    1.412   .     A
C675   C688    1.410   .     A
C676   C686    1.406   .     A
C677   N698    1.390   .     A
C677   S723    1.820   .     S
C678   N697    1.397   .     A
C678   S724    1.844   .     S
C678   C847    1.465   .     S
C679   N698    1.393   .     A
C679   S725    1.833   .     S
C680   N697    1.402   .     A
C680   S726    1.841   .     S
C680   C845    1.458   .     S
C681   O710    1.308   .     A
C681   O716    1.303   .     A
C682   O718    1.292   .     A
C682   C684    1.366   .     S
C682   O721    1.296   .     A
C683   C685    1.366   .     S
C683   O720    1.296   .     A
C683   O719    1.291   .     A
C685   C1188   1.165   .     S
C686   O722    1.384   .     S
C686   C800    1.391   1_455 S
C687   O700    1.384   .     S
C687   C730    1.388   .     S
C688   O701    1.383   .     S
C688   C742    1.391   .     S
H689   O722    0.991   .     S
H690   O700    0.992   .     S
H691   O701    0.991   .     S
H692   O702    0.991   .     S
H693   O705    0.991   .     S
H694   O708    0.991   .     S
H695   O712    0.991   .     S
H696   O715    0.991   .     S
N697   Zn727   2.052   .     S
N698   Zn728   2.052   .     S
O699   Zn727   2.025   .     S
O703   S723    1.505   .     D
O704   S723    1.504   .     D
O705   S723    1.669   .     S
O706   S724    1.498   .     D
O707   S724    1.502   .     D
O708   S724    1.669   .     S
O709   S725    1.502   .     D
O710   Zn728   2.025   .     S
O711   S725    1.504   .     D
O712   S725    1.669   .     S
O713   S726    1.496   .     D
O714   S726    1.501   .     D
O715   S726    1.672   .     S
O716   Zn727   2.020   .     S
O717   Zn728   2.020   .     S
O718   Zn727   1.941   .     S
O719   Zn728   1.941   .     S
O720   Zn727   1.951   .     S
O721   Zn728   1.951   .     S
C729   C732    1.440   .     S
C729   O773    1.306   .     A
C729   O755    1.303   .     A
C730   C732    1.409   .     A
C730   O758    1.383   .     S
C731   C737    1.444   .     S
C731   C743    1.412   .     A
C731   C744    1.410   .     A
C732   C742    1.406   .     A
C733   N754    1.390   .     A
C733   S779    1.820   .     S
C734   N753    1.397   .     A
C734   S780    1.844   .     S
C734   C903    1.465   .     S
C735   N754    1.393   .     A
C735   S781    1.833   .     S
C736   N753    1.402   .     A
C736   S782    1.841   .     S
C736   C901    1.458   .     S
C737   O766    1.308   .     A
C737   O772    1.303   .     A
C738   O774    1.292   .     A
C738   C740    1.366   .     S
C738   O777    1.296   .     A
C739   C741    1.366   .     S
C739   O776    1.296   .     A
C739   O775    1.291   .     A
C741   C1244   1.165   .     S
C742   O778    1.384   .     S
C743   O756    1.384   .     S
C743   C786    1.388   .     S
C744   O757    1.383   .     S
C744   C798    1.391   .     S
H745   O778    0.991   .     S
H746   O756    0.992   .     S
H747   O757    0.991   .     S
H748   O758    0.991   .     S
H749   O761    0.991   .     S
H750   O764    0.991   .     S
H751   O768    0.991   .     S
H752   O771    0.991   .     S
N753   Zn783   2.052   .     S
N754   Zn784   2.052   .     S
O755   Zn783   2.025   .     S
O759   S779    1.505   .     D
O760   S779    1.504   .     D
O761   S779    1.669   .     S
O762   S780    1.498   .     D
O763   S780    1.502   .     D
O764   S780    1.669   .     S
O765   S781    1.502   .     D
O766   Zn784   2.025   .     S
O767   S781    1.504   .     D
O768   S781    1.669   .     S
O769   S782    1.496   .     D
O770   S782    1.501   .     D
O771   S782    1.672   .     S
O772   Zn783   2.020   .     S
O773   Zn784   2.020   .     S
O774   Zn783   1.941   .     S
O775   Zn784   1.941   .     S
O776   Zn783   1.951   .     S
O777   Zn784   1.951   .     S
C785   C788    1.440   .     S
C785   O829    1.306   .     A
C785   O811    1.303   .     A
C786   C788    1.409   .     A
C786   O814    1.383   .     S
C787   C793    1.444   .     S
C787   C799    1.412   .     A
C787   C800    1.410   .     A
C788   C798    1.406   .     A
C789   N810    1.390   .     A
C789   S835    1.820   .     S
C790   N809    1.397   .     A
C790   S836    1.844   .     S
C790   C959    1.465   .     S
C791   N810    1.393   .     A
C791   S837    1.833   .     S
C792   N809    1.402   .     A
C792   S838    1.841   .     S
C792   C957    1.458   .     S
C793   O822    1.308   .     A
C793   O828    1.303   .     A
C794   O830    1.292   .     A
C794   C796    1.366   .     S
C794   O833    1.296   .     A
C795   C797    1.366   .     S
C795   O832    1.296   .     A
C795   O831    1.291   .     A
C797   C1300   1.165   .     S
C798   O834    1.384   .     S
C799   O812    1.384   .     S
C799   C674    1.388   1_655 S
C800   O813    1.383   .     S
C800   C686    1.391   1_655 S
H801   O834    0.991   .     S
H802   O812    0.992   .     S
H803   O813    0.991   .     S
H804   O814    0.991   .     S
H805   O817    0.991   .     S
H806   O820    0.991   .     S
H807   O824    0.991   .     S
H808   O827    0.991   .     S
N809   Zn839   2.052   .     S
N810   Zn840   2.052   .     S
O811   Zn839   2.025   .     S
O815   S835    1.505   .     D
O816   S835    1.504   .     D
O817   S835    1.669   .     S
O818   S836    1.498   .     D
O819   S836    1.502   .     D
O820   S836    1.669   .     S
O821   S837    1.502   .     D
O822   Zn840   2.025   .     S
O823   S837    1.504   .     D
O824   S837    1.669   .     S
O825   S838    1.496   .     D
O826   S838    1.501   .     D
O827   S838    1.672   .     S
O828   Zn839   2.020   .     S
O829   Zn840   2.020   .     S
O830   Zn839   1.941   .     S
O831   Zn840   1.941   .     S
O832   Zn839   1.951   .     S
O833   Zn840   1.951   .     S
C841   C844    1.440   .     S
C841   O885    1.306   .     A
C841   O867    1.303   .     A
C842   C844    1.409   .     A
C842   O870    1.383   .     S
C842   C967    1.388   1_455 S
C843   C849    1.444   .     S
C843   C855    1.412   .     A
C843   C856    1.410   .     A
C844   C854    1.406   .     A
C845   N866    1.390   .     A
C845   S891    1.820   .     S
C846   N865    1.397   .     A
C846   S892    1.844   .     S
C846   C511    1.465   1_565 S
C847   N866    1.393   .     A
C847   S893    1.833   .     S
C848   N865    1.402   .     A
C848   S894    1.841   .     S
C848   C509    1.458   1_565 S
C849   O878    1.308   .     A
C849   O884    1.303   .     A
C850   O886    1.292   .     A
C850   C852    1.366   .     S
C850   O889    1.296   .     A
C851   C853    1.366   .     S
C851   O888    1.296   .     A
C851   O887    1.291   .     A
C853   C1356   1.165   .     S
C854   O890    1.384   .     S
C854   C968    1.391   1_455 S
C855   O868    1.384   .     S
C855   C898    1.388   .     S
C856   O869    1.383   .     S
C856   C910    1.391   .     S
H857   O890    0.991   .     S
H858   O868    0.992   .     S
H859   O869    0.991   .     S
H860   O870    0.991   .     S
H861   O873    0.991   .     S
H862   O876    0.991   .     S
H863   O880    0.991   .     S
H864   O883    0.991   .     S
N865   Zn895   2.052   .     S
N866   Zn896   2.052   .     S
O867   Zn895   2.025   .     S
O871   S891    1.505   .     D
O872   S891    1.504   .     D
O873   S891    1.669   .     S
O874   S892    1.498   .     D
O875   S892    1.502   .     D
O876   S892    1.669   .     S
O877   S893    1.502   .     D
O878   Zn896   2.025   .     S
O879   S893    1.504   .     D
O880   S893    1.669   .     S
O881   S894    1.496   .     D
O882   S894    1.501   .     D
O883   S894    1.672   .     S
O884   Zn895   2.020   .     S
O885   Zn896   2.020   .     S
O886   Zn895   1.941   .     S
O887   Zn896   1.941   .     S
O888   Zn895   1.951   .     S
O889   Zn896   1.951   .     S
C897   C900    1.440   .     S
C897   O941    1.306   .     A
C897   O923    1.303   .     A
C898   C900    1.409   .     A
C898   O926    1.383   .     S
C899   C905    1.444   .     S
C899   C911    1.412   .     A
C899   C912    1.410   .     A
C900   C910    1.406   .     A
C901   N922    1.390   .     A
C901   S947    1.820   .     S
C902   N921    1.397   .     A
C902   S948    1.844   .     S
C902   C567    1.465   1_565 S
C903   N922    1.393   .     A
C903   S949    1.833   .     S
C904   N921    1.402   .     A
C904   S950    1.841   .     S
C904   C565    1.458   1_565 S
C905   O934    1.308   .     A
C905   O940    1.303   .     A
C906   O942    1.292   .     A
C906   C908    1.366   .     S
C906   O945    1.296   .     A
C907   C909    1.366   .     S
C907   O944    1.296   .     A
C907   O943    1.291   .     A
C909   C1412   1.165   .     S
C910   O946    1.384   .     S
C911   O924    1.384   .     S
C911   C954    1.388   .     S
C912   O925    1.383   .     S
C912   C966    1.391   .     S
H913   O946    0.991   .     S
H914   O924    0.992   .     S
H915   O925    0.991   .     S
H916   O926    0.991   .     S
H917   O929    0.991   .     S
H918   O932    0.991   .     S
H919   O936    0.991   .     S
H920   O939    0.991   .     S
N921   Zn951   2.052   .     S
N922   Zn952   2.052   .     S
O923   Zn951   2.025   .     S
O927   S947    1.505   .     D
O928   S947    1.504   .     D
O929   S947    1.669   .     S
O930   S948    1.498   .     D
O931   S948    1.502   .     D
O932   S948    1.669   .     S
O933   S949    1.502   .     D
O934   Zn952   2.025   .     S
O935   S949    1.504   .     D
O936   S949    1.669   .     S
O937   S950    1.496   .     D
O938   S950    1.501   .     D
O939   S950    1.672   .     S
O940   Zn951   2.020   .     S
O941   Zn952   2.020   .     S
O942   Zn951   1.941   .     S
O943   Zn952   1.941   .     S
O944   Zn951   1.951   .     S
O945   Zn952   1.951   .     S
C953   C956    1.440   .     S
C953   O997    1.306   .     A
C953   O979    1.303   .     A
C954   C956    1.409   .     A
C954   O982    1.383   .     S
C955   C961    1.444   .     S
C955   C967    1.412   .     A
C955   C968    1.410   .     A
C956   C966    1.406   .     A
C957   N978    1.390   .     A
C957   S1003   1.820   .     S
C958   N977    1.397   .     A
C958   S1004   1.844   .     S
C958   C623    1.465   1_565 S
C959   N978    1.393   .     A
C959   S1005   1.833   .     S
C960   N977    1.402   .     A
C960   S1006   1.841   .     S
C960   C621    1.458   1_565 S
C961   O990    1.308   .     A
C961   O996    1.303   .     A
C962   O998    1.292   .     A
C962   C964    1.366   .     S
C962   O1001   1.296   .     A
C963   C965    1.366   .     S
C963   O1000   1.296   .     A
C963   O999    1.291   .     A
C965   C1468   1.165   .     S
C966   O1002   1.384   .     S
C967   O980    1.384   .     S
C967   C842    1.388   1_655 S
C968   O981    1.383   .     S
C968   C854    1.391   1_655 S
H969   O1002   0.991   .     S
H970   O980    0.992   .     S
H971   O981    0.991   .     S
H972   O982    0.991   .     S
H973   O985    0.991   .     S
H974   O988    0.991   .     S
H975   O992    0.991   .     S
H976   O995    0.991   .     S
N977   Zn1007  2.052   .     S
N978   Zn1008  2.052   .     S
O979   Zn1007  2.025   .     S
O983   S1003   1.505   .     D
O984   S1003   1.504   .     D
O985   S1003   1.669   .     S
O986   S1004   1.498   .     D
O987   S1004   1.502   .     D
O988   S1004   1.669   .     S
O989   S1005   1.502   .     D
O990   Zn1008  2.025   .     S
O991   S1005   1.504   .     D
O992   S1005   1.669   .     S
O993   S1006   1.496   .     D
O994   S1006   1.501   .     D
O995   S1006   1.672   .     S
O996   Zn1007  2.020   .     S
O997   Zn1008  2.020   .     S
O998   Zn1007  1.941   .     S
O999   Zn1008  1.941   .     S
O1000  Zn1007  1.951   .     S
O1001  Zn1008  1.951   .     S
C1009  C1012   1.440   .     S
C1009  O1053   1.306   .     A
C1009  O1035   1.303   .     A
C1010  C1012   1.409   .     A
C1010  O1038   1.383   .     S
C1010  C1135   1.388   1_455 S
C1011  C1017   1.444   .     S
C1011  C1023   1.412   .     A
C1011  C1024   1.410   .     A
C1012  C1022   1.406   .     A
C1013  N1034   1.390   .     A
C1013  S1059   1.820   .     S
C1013  C1352   1.458   1_545 S
C1014  N1033   1.397   .     A
C1014  S1060   1.844   .     S
C1014  C1183   1.465   .     S
C1015  N1034   1.393   .     A
C1015  S1061   1.833   .     S
C1015  C1350   1.465   1_545 S
C1016  N1033   1.402   .     A
C1016  S1062   1.841   .     S
C1016  C1181   1.458   .     S
C1017  O1046   1.308   .     A
C1017  O1052   1.303   .     A
C1018  O1054   1.292   .     A
C1018  C1020   1.366   .     S
C1018  O1057   1.296   .     A
C1019  C1021   1.366   .     S
C1019  O1056   1.296   .     A
C1019  O1055   1.291   .     A
C1021  C12     1.165   1_556 S
C1022  O1058   1.384   .     S
C1022  C1136   1.391   1_455 S
C1023  O1036   1.384   .     S
C1023  C1066   1.388   .     S
C1024  O1037   1.383   .     S
C1024  C1078   1.391   .     S
H1025  O1058   0.991   .     S
H1026  O1036   0.992   .     S
H1027  O1037   0.991   .     S
H1028  O1038   0.991   .     S
H1029  O1041   0.991   .     S
H1030  O1044   0.991   .     S
H1031  O1048   0.991   .     S
H1032  O1051   0.991   .     S
N1033  Zn1063  2.052   .     S
N1034  Zn1064  2.052   .     S
O1035  Zn1063  2.025   .     S
O1039  S1059   1.505   .     D
O1040  S1059   1.504   .     D
O1041  S1059   1.669   .     S
O1042  S1060   1.498   .     D
O1043  S1060   1.502   .     D
O1044  S1060   1.669   .     S
O1045  S1061   1.502   .     D
O1046  Zn1064  2.025   .     S
O1047  S1061   1.504   .     D
O1048  S1061   1.669   .     S
O1049  S1062   1.496   .     D
O1050  S1062   1.501   .     D
O1051  S1062   1.672   .     S
O1052  Zn1063  2.020   .     S
O1053  Zn1064  2.020   .     S
O1054  Zn1063  1.941   .     S
O1055  Zn1064  1.941   .     S
O1056  Zn1063  1.951   .     S
O1057  Zn1064  1.951   .     S
C1065  C1068   1.440   .     S
C1065  O1109   1.306   .     A
C1065  O1091   1.303   .     A
C1066  C1068   1.409   .     A
C1066  O1094   1.383   .     S
C1067  C1073   1.444   .     S
C1067  C1079   1.412   .     A
C1067  C1080   1.410   .     A
C1068  C1078   1.406   .     A
C1069  N1090   1.390   .     A
C1069  S1115   1.820   .     S
C1069  C1408   1.458   1_545 S
C1070  N1089   1.397   .     A
C1070  S1116   1.844   .     S
C1070  C1239   1.465   .     S
C1071  N1090   1.393   .     A
C1071  S1117   1.833   .     S
C1071  C1406   1.465   1_545 S
C1072  N1089   1.402   .     A
C1072  S1118   1.841   .     S
C1072  C1237   1.458   .     S
C1073  O1102   1.308   .     A
C1073  O1108   1.303   .     A
C1074  O1110   1.292   .     A
C1074  C1076   1.366   .     S
C1074  O1113   1.296   .     A
C1075  C1077   1.366   .     S
C1075  O1112   1.296   .     A
C1075  O1111   1.291   .     A
C1077  C68     1.165   1_556 S
C1078  O1114   1.384   .     S
C1079  O1092   1.384   .     S
C1079  C1122   1.388   .     S
C1080  O1093   1.383   .     S
C1080  C1134   1.391   .     S
H1081  O1114   0.991   .     S
H1082  O1092   0.992   .     S
H1083  O1093   0.991   .     S
H1084  O1094   0.991   .     S
H1085  O1097   0.991   .     S
H1086  O1100   0.991   .     S
H1087  O1104   0.991   .     S
H1088  O1107   0.991   .     S
N1089  Zn1119  2.052   .     S
N1090  Zn1120  2.052   .     S
O1091  Zn1119  2.025   .     S
O1095  S1115   1.505   .     D
O1096  S1115   1.504   .     D
O1097  S1115   1.669   .     S
O1098  S1116   1.498   .     D
O1099  S1116   1.502   .     D
O1100  S1116   1.669   .     S
O1101  S1117   1.502   .     D
O1102  Zn1120  2.025   .     S
O1103  S1117   1.504   .     D
O1104  S1117   1.669   .     S
O1105  S1118   1.496   .     D
O1106  S1118   1.501   .     D
O1107  S1118   1.672   .     S
O1108  Zn1119  2.020   .     S
O1109  Zn1120  2.020   .     S
O1110  Zn1119  1.941   .     S
O1111  Zn1120  1.941   .     S
O1112  Zn1119  1.951   .     S
O1113  Zn1120  1.951   .     S
C1121  C1124   1.440   .     S
C1121  O1165   1.306   .     A
C1121  O1147   1.303   .     A
C1122  C1124   1.409   .     A
C1122  O1150   1.383   .     S
C1123  C1129   1.444   .     S
C1123  C1135   1.412   .     A
C1123  C1136   1.410   .     A
C1124  C1134   1.406   .     A
C1125  N1146   1.390   .     A
C1125  S1171   1.820   .     S
C1125  C1464   1.458   1_545 S
C1126  N1145   1.397   .     A
C1126  S1172   1.844   .     S
C1126  C1295   1.465   .     S
C1127  N1146   1.393   .     A
C1127  S1173   1.833   .     S
C1127  C1462   1.465   1_545 S
C1128  N1145   1.402   .     A
C1128  S1174   1.841   .     S
C1128  C1293   1.458   .     S
C1129  O1158   1.308   .     A
C1129  O1164   1.303   .     A
C1130  O1166   1.292   .     A
C1130  C1132   1.366   .     S
C1130  O1169   1.296   .     A
C1131  C1133   1.366   .     S
C1131  O1168   1.296   .     A
C1131  O1167   1.291   .     A
C1133  C124    1.165   1_556 S
C1134  O1170   1.384   .     S
C1135  O1148   1.384   .     S
C1135  C1010   1.388   1_655 S
C1136  O1149   1.383   .     S
C1136  C1022   1.391   1_655 S
H1137  O1170   0.991   .     S
H1138  O1148   0.992   .     S
H1139  O1149   0.991   .     S
H1140  O1150   0.991   .     S
H1141  O1153   0.991   .     S
H1142  O1156   0.991   .     S
H1143  O1160   0.991   .     S
H1144  O1163   0.991   .     S
N1145  Zn1175  2.052   .     S
N1146  Zn1176  2.052   .     S
O1147  Zn1175  2.025   .     S
O1151  S1171   1.505   .     D
O1152  S1171   1.504   .     D
O1153  S1171   1.669   .     S
O1154  S1172   1.498   .     D
O1155  S1172   1.502   .     D
O1156  S1172   1.669   .     S
O1157  S1173   1.502   .     D
O1158  Zn1176  2.025   .     S
O1159  S1173   1.504   .     D
O1160  S1173   1.669   .     S
O1161  S1174   1.496   .     D
O1162  S1174   1.501   .     D
O1163  S1174   1.672   .     S
O1164  Zn1175  2.020   .     S
O1165  Zn1176  2.020   .     S
O1166  Zn1175  1.941   .     S
O1167  Zn1176  1.941   .     S
O1168  Zn1175  1.951   .     S
O1169  Zn1176  1.951   .     S
C1177  C1180   1.440   .     S
C1177  O1221   1.306   .     A
C1177  O1203   1.303   .     A
C1178  C1180   1.409   .     A
C1178  O1206   1.383   .     S
C1178  C1303   1.388   1_455 S
C1179  C1185   1.444   .     S
C1179  C1191   1.412   .     A
C1179  C1192   1.410   .     A
C1180  C1190   1.406   .     A
C1181  N1202   1.390   .     A
C1181  S1227   1.820   .     S
C1182  N1201   1.397   .     A
C1182  S1228   1.844   .     S
C1182  C1351   1.465   .     S
C1183  N1202   1.393   .     A
C1183  S1229   1.833   .     S
C1184  N1201   1.402   .     A
C1184  S1230   1.841   .     S
C1184  C1349   1.458   .     S
C1185  O1214   1.308   .     A
C1185  O1220   1.303   .     A
C1186  O1222   1.292   .     A
C1186  C1188   1.366   .     S
C1186  O1225   1.296   .     A
C1187  C1189   1.366   .     S
C1187  O1224   1.296   .     A
C1187  O1223   1.291   .     A
C1189  C180    1.165   1_556 S
C1190  O1226   1.384   .     S
C1190  C1304   1.391   1_455 S
C1191  O1204   1.384   .     S
C1191  C1234   1.388   .     S
C1192  O1205   1.383   .     S
C1192  C1246   1.391   .     S
H1193  O1226   0.991   .     S
H1194  O1204   0.992   .     S
H1195  O1205   0.991   .     S
H1196  O1206   0.991   .     S
H1197  O1209   0.991   .     S
H1198  O1212   0.991   .     S
H1199  O1216   0.991   .     S
H1200  O1219   0.991   .     S
N1201  Zn1231  2.052   .     S
N1202  Zn1232  2.052   .     S
O1203  Zn1231  2.025   .     S
O1207  S1227   1.505   .     D
O1208  S1227   1.504   .     D
O1209  S1227   1.669   .     S
O1210  S1228   1.498   .     D
O1211  S1228   1.502   .     D
O1212  S1228   1.669   .     S
O1213  S1229   1.502   .     D
O1214  Zn1232  2.025   .     S
O1215  S1229   1.504   .     D
O1216  S1229   1.669   .     S
O1217  S1230   1.496   .     D
O1218  S1230   1.501   .     D
O1219  S1230   1.672   .     S
O1220  Zn1231  2.020   .     S
O1221  Zn1232  2.020   .     S
O1222  Zn1231  1.941   .     S
O1223  Zn1232  1.941   .     S
O1224  Zn1231  1.951   .     S
O1225  Zn1232  1.951   .     S
C1233  C1236   1.440   .     S
C1233  O1277   1.306   .     A
C1233  O1259   1.303   .     A
C1234  C1236   1.409   .     A
C1234  O1262   1.383   .     S
C1235  C1241   1.444   .     S
C1235  C1247   1.412   .     A
C1235  C1248   1.410   .     A
C1236  C1246   1.406   .     A
C1237  N1258   1.390   .     A
C1237  S1283   1.820   .     S
C1238  N1257   1.397   .     A
C1238  S1284   1.844   .     S
C1238  C1407   1.465   .     S
C1239  N1258   1.393   .     A
C1239  S1285   1.833   .     S
C1240  N1257   1.402   .     A
C1240  S1286   1.841   .     S
C1240  C1405   1.458   .     S
C1241  O1270   1.308   .     A
C1241  O1276   1.303   .     A
C1242  O1278   1.292   .     A
C1242  C1244   1.366   .     S
C1242  O1281   1.296   .     A
C1243  C1245   1.366   .     S
C1243  O1280   1.296   .     A
C1243  O1279   1.291   .     A
C1245  C236    1.165   1_556 S
C1246  O1282   1.384   .     S
C1247  O1260   1.384   .     S
C1247  C1290   1.388   .     S
C1248  O1261   1.383   .     S
C1248  C1302   1.391   .     S
H1249  O1282   0.991   .     S
H1250  O1260   0.992   .     S
H1251  O1261   0.991   .     S
H1252  O1262   0.991   .     S
H1253  O1265   0.991   .     S
H1254  O1268   0.991   .     S
H1255  O1272   0.991   .     S
H1256  O1275   0.991   .     S
N1257  Zn1287  2.052   .     S
N1258  Zn1288  2.052   .     S
O1259  Zn1287  2.025   .     S
O1263  S1283   1.505   .     D
O1264  S1283   1.504   .     D
O1265  S1283   1.669   .     S
O1266  S1284   1.498   .     D
O1267  S1284   1.502   .     D
O1268  S1284   1.669   .     S
O1269  S1285   1.502   .     D
O1270  Zn1288  2.025   .     S
O1271  S1285   1.504   .     D
O1272  S1285   1.669   .     S
O1273  S1286   1.496   .     D
O1274  S1286   1.501   .     D
O1275  S1286   1.672   .     S
O1276  Zn1287  2.020   .     S
O1277  Zn1288  2.020   .     S
O1278  Zn1287  1.941   .     S
O1279  Zn1288  1.941   .     S
O1280  Zn1287  1.951   .     S
O1281  Zn1288  1.951   .     S
C1289  C1292   1.440   .     S
C1289  O1333   1.306   .     A
C1289  O1315   1.303   .     A
C1290  C1292   1.409   .     A
C1290  O1318   1.383   .     S
C1291  C1297   1.444   .     S
C1291  C1303   1.412   .     A
C1291  C1304   1.410   .     A
C1292  C1302   1.406   .     A
C1293  N1314   1.390   .     A
C1293  S1339   1.820   .     S
C1294  N1313   1.397   .     A
C1294  S1340   1.844   .     S
C1294  C1463   1.465   .     S
C1295  N1314   1.393   .     A
C1295  S1341   1.833   .     S
C1296  N1313   1.402   .     A
C1296  S1342   1.841   .     S
C1296  C1461   1.458   .     S
C1297  O1326   1.308   .     A
C1297  O1332   1.303   .     A
C1298  O1334   1.292   .     A
C1298  C1300   1.366   .     S
C1298  O1337   1.296   .     A
C1299  C1301   1.366   .     S
C1299  O1336   1.296   .     A
C1299  O1335   1.291   .     A
C1301  C292    1.165   1_556 S
C1302  O1338   1.384   .     S
C1303  O1316   1.384   .     S
C1303  C1178   1.388   1_655 S
C1304  O1317   1.383   .     S
C1304  C1190   1.391   1_655 S
H1305  O1338   0.991   .     S
H1306  O1316   0.992   .     S
H1307  O1317   0.991   .     S
H1308  O1318   0.991   .     S
H1309  O1321   0.991   .     S
H1310  O1324   0.991   .     S
H1311  O1328   0.991   .     S
H1312  O1331   0.991   .     S
N1313  Zn1343  2.052   .     S
N1314  Zn1344  2.052   .     S
O1315  Zn1343  2.025   .     S
O1319  S1339   1.505   .     D
O1320  S1339   1.504   .     D
O1321  S1339   1.669   .     S
O1322  S1340   1.498   .     D
O1323  S1340   1.502   .     D
O1324  S1340   1.669   .     S
O1325  S1341   1.502   .     D
O1326  Zn1344  2.025   .     S
O1327  S1341   1.504   .     D
O1328  S1341   1.669   .     S
O1329  S1342   1.496   .     D
O1330  S1342   1.501   .     D
O1331  S1342   1.672   .     S
O1332  Zn1343  2.020   .     S
O1333  Zn1344  2.020   .     S
O1334  Zn1343  1.941   .     S
O1335  Zn1344  1.941   .     S
O1336  Zn1343  1.951   .     S
O1337  Zn1344  1.951   .     S
C1345  C1348   1.440   .     S
C1345  O1389   1.306   .     A
C1345  O1371   1.303   .     A
C1346  C1348   1.409   .     A
C1346  O1374   1.383   .     S
C1346  C1471   1.388   1_455 S
C1347  C1353   1.444   .     S
C1347  C1359   1.412   .     A
C1347  C1360   1.410   .     A
C1348  C1358   1.406   .     A
C1349  N1370   1.390   .     A
C1349  S1395   1.820   .     S
C1350  N1369   1.397   .     A
C1350  S1396   1.844   .     S
C1350  C1015   1.465   1_565 S
C1351  N1370   1.393   .     A
C1351  S1397   1.833   .     S
C1352  N1369   1.402   .     A
C1352  S1398   1.841   .     S
C1352  C1013   1.458   1_565 S
C1353  O1382   1.308   .     A
C1353  O1388   1.303   .     A
C1354  O1390   1.292   .     A
C1354  C1356   1.366   .     S
C1354  O1393   1.296   .     A
C1355  C1357   1.366   .     S
C1355  O1392   1.296   .     A
C1355  O1391   1.291   .     A
C1357  C348    1.165   1_556 S
C1358  O1394   1.384   .     S
C1358  C1472   1.391   1_455 S
C1359  O1372   1.384   .     S
C1359  C1402   1.388   .     S
C1360  O1373   1.383   .     S
C1360  C1414   1.391   .     S
H1361  O1394   0.991   .     S
H1362  O1372   0.992   .     S
H1363  O1373   0.991   .     S
H1364  O1374   0.991   .     S
H1365  O1377   0.991   .     S
H1366  O1380   0.991   .     S
H1367  O1384   0.991   .     S
H1368  O1387   0.991   .     S
N1369  Zn1399  2.052   .     S
N1370  Zn1400  2.052   .     S
O1371  Zn1399  2.025   .     S
O1375  S1395   1.505   .     D
O1376  S1395   1.504   .     D
O1377  S1395   1.669   .     S
O1378  S1396   1.498   .     D
O1379  S1396   1.502   .     D
O1380  S1396   1.669   .     S
O1381  S1397   1.502   .     D
O1382  Zn1400  2.025   .     S
O1383  S1397   1.504   .     D
O1384  S1397   1.669   .     S
O1385  S1398   1.496   .     D
O1386  S1398   1.501   .     D
O1387  S1398   1.672   .     S
O1388  Zn1399  2.020   .     S
O1389  Zn1400  2.020   .     S
O1390  Zn1399  1.941   .     S
O1391  Zn1400  1.941   .     S
O1392  Zn1399  1.951   .     S
O1393  Zn1400  1.951   .     S
C1401  C1404   1.440   .     S
C1401  O1445   1.306   .     A
C1401  O1427   1.303   .     A
C1402  C1404   1.409   .     A
C1402  O1430   1.383   .     S
C1403  C1409   1.444   .     S
C1403  C1415   1.412   .     A
C1403  C1416   1.410   .     A
C1404  C1414   1.406   .     A
C1405  N1426   1.390   .     A
C1405  S1451   1.820   .     S
C1406  N1425   1.397   .     A
C1406  S1452   1.844   .     S
C1406  C1071   1.465   1_565 S
C1407  N1426   1.393   .     A
C1407  S1453   1.833   .     S
C1408  N1425   1.402   .     A
C1408  S1454   1.841   .     S
C1408  C1069   1.458   1_565 S
C1409  O1438   1.308   .     A
C1409  O1444   1.303   .     A
C1410  O1446   1.292   .     A
C1410  C1412   1.366   .     S
C1410  O1449   1.296   .     A
C1411  C1413   1.366   .     S
C1411  O1448   1.296   .     A
C1411  O1447   1.291   .     A
C1413  C404    1.165   1_556 S
C1414  O1450   1.384   .     S
C1415  O1428   1.384   .     S
C1415  C1458   1.388   .     S
C1416  O1429   1.383   .     S
C1416  C1470   1.391   .     S
H1417  O1450   0.991   .     S
H1418  O1428   0.992   .     S
H1419  O1429   0.991   .     S
H1420  O1430   0.991   .     S
H1421  O1433   0.991   .     S
H1422  O1436   0.991   .     S
H1423  O1440   0.991   .     S
H1424  O1443   0.991   .     S
N1425  Zn1455  2.052   .     S
N1426  Zn1456  2.052   .     S
O1427  Zn1455  2.025   .     S
O1431  S1451   1.505   .     D
O1432  S1451   1.504   .     D
O1433  S1451   1.669   .     S
O1434  S1452   1.498   .     D
O1435  S1452   1.502   .     D
O1436  S1452   1.669   .     S
O1437  S1453   1.502   .     D
O1438  Zn1456  2.025   .     S
O1439  S1453   1.504   .     D
O1440  S1453   1.669   .     S
O1441  S1454   1.496   .     D
O1442  S1454   1.501   .     D
O1443  S1454   1.672   .     S
O1444  Zn1455  2.020   .     S
O1445  Zn1456  2.020   .     S
O1446  Zn1455  1.941   .     S
O1447  Zn1456  1.941   .     S
O1448  Zn1455  1.951   .     S
O1449  Zn1456  1.951   .     S
C1457  C1460   1.440   .     S
C1457  O1501   1.306   .     A
C1457  O1483   1.303   .     A
C1458  C1460   1.409   .     A
C1458  O1486   1.383   .     S
C1459  C1465   1.444   .     S
C1459  C1471   1.412   .     A
C1459  C1472   1.410   .     A
C1460  C1470   1.406   .     A
C1461  N1482   1.390   .     A
C1461  S1507   1.820   .     S
C1462  N1481   1.397   .     A
C1462  S1508   1.844   .     S
C1462  C1127   1.465   1_565 S
C1463  N1482   1.393   .     A
C1463  S1509   1.833   .     S
C1464  N1481   1.402   .     A
C1464  S1510   1.841   .     S
C1464  C1125   1.458   1_565 S
C1465  O1494   1.308   .     A
C1465  O1500   1.303   .     A
C1466  O1502   1.292   .     A
C1466  C1468   1.366   .     S
C1466  O1505   1.296   .     A
C1467  C1469   1.366   .     S
C1467  O1504   1.296   .     A
C1467  O1503   1.291   .     A
C1469  C460    1.165   1_556 S
C1470  O1506   1.384   .     S
C1471  O1484   1.384   .     S
C1471  C1346   1.388   1_655 S
C1472  O1485   1.383   .     S
C1472  C1358   1.391   1_655 S
H1473  O1506   0.991   .     S
H1474  O1484   0.992   .     S
H1475  O1485   0.991   .     S
H1476  O1486   0.991   .     S
H1477  O1489   0.991   .     S
H1478  O1492   0.991   .     S
H1479  O1496   0.991   .     S
H1480  O1499   0.991   .     S
N1481  Zn1511  2.052   .     S
N1482  Zn1512  2.052   .     S
O1483  Zn1511  2.025   .     S
O1487  S1507   1.505   .     D
O1488  S1507   1.504   .     D
O1489  S1507   1.669   .     S
O1490  S1508   1.498   .     D
O1491  S1508   1.502   .     D
O1492  S1508   1.669   .     S
O1493  S1509   1.502   .     D
O1494  Zn1512  2.025   .     S
O1495  S1509   1.504   .     D
O1496  S1509   1.669   .     S
O1497  S1510   1.496   .     D
O1498  S1510   1.501   .     D
O1499  S1510   1.672   .     S
O1500  Zn1511  2.020   .     S
O1501  Zn1512  2.020   .     S
O1502  Zn1511  1.941   .     S
O1503  Zn1512  1.941   .     S
O1504  Zn1511  1.951   .     S
O1505  Zn1512  1.951   .     S
