data_str_m2_o10_o16_pcu_sym.3
_audit_creation_date              2020-01-03
_audit_creation_method            'Materials Studio'
_symmetry_space_group_name_H-M    'P1'
_symmetry_Int_Tables_number       1
_symmetry_cell_setting            triclinic
loop_
_symmetry_equiv_pos_as_xyz
  x,y,z
_cell_length_a                    22.5134
_cell_length_b                    26.0437
_cell_length_c                    26.6489
_cell_angle_alpha                 94.0438
_cell_angle_beta                  78.7662
_cell_angle_gamma                 103.1147
loop_
_atom_site_label
_atom_site_type_symbol
_atom_site_fract_x
_atom_site_fract_y
_atom_site_fract_z
_atom_site_U_iso_or_equiv
_atom_site_adp_type
_atom_site_occupancy
C1     C     0.18167   0.26666   0.25174   0.00000  Uiso   1.00
C2     C     0.11659   0.13528   0.39877   0.00000  Uiso   1.00
C3     C     0.18999   0.32270   0.25273   0.00000  Uiso   1.00
C4     C     0.13353   0.15498   0.34559   0.00000  Uiso   1.00
C5     C     0.14326   0.01065   0.24757   0.00000  Uiso   1.00
C6     C     0.15164   0.06667   0.24835   0.00000  Uiso   1.00
C7     C     0.19981   0.17342   0.15326   0.00000  Uiso   1.00
C8     C     0.29770   0.19054   0.02146   0.00000  Uiso   1.00
C9     C     0.21824   0.18114   0.09768   0.00000  Uiso   1.00
C10    C     0.05651   0.10895   0.41908   0.00000  Uiso   1.00
C11    C     0.03939   0.09963   0.47155   0.00000  Uiso   1.00
C12    C     0.14299   0.14471   0.48375   0.00000  Uiso   1.00
C13    C     0.08128   0.11993   0.00418   0.00000  Uiso   1.00
C14    C     0.11725   0.20505   0.08557   0.00000  Uiso   1.00
C15    C     0.13568   0.26107   0.10757   0.00000  Uiso   1.00
C16    C     0.23920   0.09662   0.37216   0.00000  Uiso   1.00
C17    C     0.23201   0.04487   0.39882   0.00000  Uiso   1.00
C18    C     0.16182   0.14160   0.43028   0.00000  Uiso   1.00
C19    C     0.18835   0.16637   0.01432   0.00000  Uiso   1.00
C20    C     0.25194   0.17542   0.49127   0.00000  Uiso   1.00
C21    C     0.26906   0.16413   0.43925   0.00000  Uiso   1.00
C22    C     0.22416   0.13983   0.41081   0.00000  Uiso   1.00
C23    C     0.17328   0.18024   0.06668   0.00000  Uiso   1.00
C24    C     0.28088   0.18914   0.07449   0.00000  Uiso   1.00
Cu25   Cu    0.10710   0.16105   0.24436   0.00000  Uiso   1.00
Cu26   Cu    0.22623   0.17228   0.25565   0.00000  Uiso   1.00
H27    H     0.31665   0.19456   0.09738   0.00000  Uiso   1.00
H28    H     0.23496   0.01320   0.25769   0.00000  Uiso   1.00
H29    H     0.15591   0.26147   0.14233   0.00000  Uiso   1.00
H30    H     0.17001   0.28624   0.07853   0.00000  Uiso   1.00
H31    H     0.09395   0.27831   0.11814   0.00000  Uiso   1.00
H32    H     0.09449   0.20956   0.05335   0.00000  Uiso   1.00
H33    H     0.08156   0.17997   0.11362   0.00000  Uiso   1.00
H34    H     0.25763   0.05063   0.43095   0.00000  Uiso   1.00
H35    H     0.18221   0.02864   0.41431   0.00000  Uiso   1.00
H36    H     0.24972   0.01568   0.37088   0.00000  Uiso   1.00
H37    H     0.20691   0.08687   0.34499   0.00000  Uiso   1.00
H38    H     0.09828   0.32014   0.24266   0.00000  Uiso   1.00
H39    H     0.28660   0.10898   0.34935   0.00000  Uiso   1.00
H40    H     0.00364   0.20626   0.28988   0.00000  Uiso   1.00
H41    H     0.32966   0.12702   0.21017   0.00000  Uiso   1.00
H42    H     0.31734   0.16993   0.42188   0.00000  Uiso   1.00
H43    H     0.01304   0.19855   0.00409   0.00000  Uiso   1.00
H44    H     0.02350   0.09572   0.39421   0.00000  Uiso   1.00
H45    H     0.06591   0.11387   0.04478   0.00000  Uiso   1.00
H46    H     0.32615   0.07915   0.48747   0.00000  Uiso   1.00
N47    N     0.31574   0.18074   0.26416   0.00000  Uiso   1.00
N48    N     0.01759   0.15259   0.23584   0.00000  Uiso   1.00
O49    O     0.12797   0.23807   0.24633   0.00000  Uiso   1.00
O50    O     0.22858   0.24755   0.25587   0.00000  Uiso   1.00
O51    O     0.09181   0.15960   0.31840   0.00000  Uiso   1.00
O52    O     0.19242   0.16908   0.32793   0.00000  Uiso   1.00
O53    O     0.10476   0.08578   0.24414   0.00000  Uiso   1.00
O54    O     0.20536   0.09526   0.25367   0.00000  Uiso   1.00
O55    O     0.14092   0.16425   0.17207   0.00000  Uiso   1.00
O56    O     0.24152   0.17373   0.18160   0.00000  Uiso   1.00
C57    C     0.51500   0.26666   0.25174   0.00000  Uiso   1.00
C58    C     0.44992   0.13528   0.39877   0.00000  Uiso   1.00
C59    C     0.52333   0.32270   0.25273   0.00000  Uiso   1.00
C60    C     0.46686   0.15498   0.34559   0.00000  Uiso   1.00
C61    C     0.47659   0.01065   0.24757   0.00000  Uiso   1.00
C62    C     0.48497   0.06667   0.24835   0.00000  Uiso   1.00
C63    C     0.53314   0.17342   0.15326   0.00000  Uiso   1.00
C64    C     0.63104   0.19054   0.02146   0.00000  Uiso   1.00
C65    C     0.55157   0.18114   0.09768   0.00000  Uiso   1.00
C66    C     0.38985   0.10895   0.41908   0.00000  Uiso   1.00
C67    C     0.37272   0.09963   0.47155   0.00000  Uiso   1.00
C68    C     0.47633   0.14471   0.48375   0.00000  Uiso   1.00
C69    C     0.41462   0.11993   0.00418   0.00000  Uiso   1.00
C70    C     0.45058   0.20505   0.08557   0.00000  Uiso   1.00
C71    C     0.46901   0.26107   0.10757   0.00000  Uiso   1.00
C72    C     0.57253   0.09662   0.37216   0.00000  Uiso   1.00
C73    C     0.56535   0.04487   0.39882   0.00000  Uiso   1.00
C74    C     0.49515   0.14160   0.43028   0.00000  Uiso   1.00
C75    C     0.52168   0.16637   0.01432   0.00000  Uiso   1.00
C76    C     0.58528   0.17542   0.49127   0.00000  Uiso   1.00
C77    C     0.60239   0.16413   0.43925   0.00000  Uiso   1.00
C78    C     0.55749   0.13983   0.41081   0.00000  Uiso   1.00
C79    C     0.50662   0.18024   0.06668   0.00000  Uiso   1.00
C80    C     0.61421   0.18914   0.07449   0.00000  Uiso   1.00
Cu81   Cu    0.44043   0.16105   0.24436   0.00000  Uiso   1.00
Cu82   Cu    0.55957   0.17228   0.25565   0.00000  Uiso   1.00
H83    H     0.64998   0.19456   0.09738   0.00000  Uiso   1.00
H84    H     0.56830   0.01320   0.25769   0.00000  Uiso   1.00
H85    H     0.48924   0.26147   0.14233   0.00000  Uiso   1.00
H86    H     0.50334   0.28624   0.07853   0.00000  Uiso   1.00
H87    H     0.42729   0.27831   0.11814   0.00000  Uiso   1.00
H88    H     0.42782   0.20956   0.05335   0.00000  Uiso   1.00
H89    H     0.41490   0.17997   0.11362   0.00000  Uiso   1.00
H90    H     0.59096   0.05063   0.43095   0.00000  Uiso   1.00
H91    H     0.51555   0.02864   0.41431   0.00000  Uiso   1.00
H92    H     0.58306   0.01568   0.37088   0.00000  Uiso   1.00
H93    H     0.54024   0.08687   0.34499   0.00000  Uiso   1.00
H94    H     0.43161   0.32014   0.24266   0.00000  Uiso   1.00
H95    H     0.61993   0.10898   0.34935   0.00000  Uiso   1.00
H96    H     0.33697   0.20626   0.28988   0.00000  Uiso   1.00
H97    H     0.66299   0.12702   0.21017   0.00000  Uiso   1.00
H98    H     0.65068   0.16993   0.42188   0.00000  Uiso   1.00
H99    H     0.34637   0.19855   0.00409   0.00000  Uiso   1.00
H100   H     0.35683   0.09572   0.39421   0.00000  Uiso   1.00
H101   H     0.39925   0.11387   0.04478   0.00000  Uiso   1.00
H102   H     0.65948   0.07915   0.48747   0.00000  Uiso   1.00
N103   N     0.64908   0.18074   0.26416   0.00000  Uiso   1.00
N104   N     0.35092   0.15259   0.23584   0.00000  Uiso   1.00
O105   O     0.46131   0.23807   0.24633   0.00000  Uiso   1.00
O106   O     0.56191   0.24755   0.25587   0.00000  Uiso   1.00
O107   O     0.42515   0.15960   0.31840   0.00000  Uiso   1.00
O108   O     0.52575   0.16908   0.32793   0.00000  Uiso   1.00
O109   O     0.43809   0.08578   0.24414   0.00000  Uiso   1.00
O110   O     0.53869   0.09526   0.25367   0.00000  Uiso   1.00
O111   O     0.47425   0.16425   0.17207   0.00000  Uiso   1.00
O112   O     0.57485   0.17373   0.18160   0.00000  Uiso   1.00
C113   C     0.84834   0.26666   0.25174   0.00000  Uiso   1.00
C114   C     0.78325   0.13528   0.39877   0.00000  Uiso   1.00
C115   C     0.85666   0.32270   0.25273   0.00000  Uiso   1.00
C116   C     0.80020   0.15498   0.34559   0.00000  Uiso   1.00
C117   C     0.80992   0.01065   0.24757   0.00000  Uiso   1.00
C118   C     0.81831   0.06667   0.24835   0.00000  Uiso   1.00
C119   C     0.86648   0.17342   0.15326   0.00000  Uiso   1.00
C120   C     0.96437   0.19054   0.02146   0.00000  Uiso   1.00
C121   C     0.88491   0.18114   0.09768   0.00000  Uiso   1.00
C122   C     0.72318   0.10895   0.41908   0.00000  Uiso   1.00
C123   C     0.70606   0.09963   0.47155   0.00000  Uiso   1.00
C124   C     0.80966   0.14471   0.48375   0.00000  Uiso   1.00
C125   C     0.74795   0.11993   0.00418   0.00000  Uiso   1.00
C126   C     0.78391   0.20505   0.08557   0.00000  Uiso   1.00
C127   C     0.80234   0.26107   0.10757   0.00000  Uiso   1.00
C128   C     0.90586   0.09662   0.37216   0.00000  Uiso   1.00
C129   C     0.89868   0.04487   0.39882   0.00000  Uiso   1.00
C130   C     0.82848   0.14160   0.43028   0.00000  Uiso   1.00
C131   C     0.85501   0.16637   0.01432   0.00000  Uiso   1.00
C132   C     0.91861   0.17542   0.49127   0.00000  Uiso   1.00
C133   C     0.93573   0.16413   0.43925   0.00000  Uiso   1.00
C134   C     0.89082   0.13983   0.41081   0.00000  Uiso   1.00
C135   C     0.83995   0.18024   0.06668   0.00000  Uiso   1.00
C136   C     0.94755   0.18914   0.07449   0.00000  Uiso   1.00
Cu137  Cu    0.77377   0.16105   0.24436   0.00000  Uiso   1.00
Cu138  Cu    0.89290   0.17228   0.25565   0.00000  Uiso   1.00
H139   H     0.98331   0.19456   0.09738   0.00000  Uiso   1.00
H140   H     0.90163   0.01320   0.25769   0.00000  Uiso   1.00
H141   H     0.82258   0.26147   0.14233   0.00000  Uiso   1.00
H142   H     0.83667   0.28624   0.07853   0.00000  Uiso   1.00
H143   H     0.76062   0.27831   0.11814   0.00000  Uiso   1.00
H144   H     0.76116   0.20956   0.05335   0.00000  Uiso   1.00
H145   H     0.74823   0.17997   0.11362   0.00000  Uiso   1.00
H146   H     0.92429   0.05063   0.43095   0.00000  Uiso   1.00
H147   H     0.84888   0.02864   0.41431   0.00000  Uiso   1.00
H148   H     0.91639   0.01568   0.37088   0.00000  Uiso   1.00
H149   H     0.87358   0.08687   0.34499   0.00000  Uiso   1.00
H150   H     0.76495   0.32014   0.24266   0.00000  Uiso   1.00
H151   H     0.95327   0.10898   0.34935   0.00000  Uiso   1.00
H152   H     0.67030   0.20626   0.28988   0.00000  Uiso   1.00
H153   H     0.99633   0.12702   0.21017   0.00000  Uiso   1.00
H154   H     0.98401   0.16993   0.42188   0.00000  Uiso   1.00
H155   H     0.67970   0.19855   0.00409   0.00000  Uiso   1.00
H156   H     0.69017   0.09572   0.39421   0.00000  Uiso   1.00
H157   H     0.73258   0.11387   0.04478   0.00000  Uiso   1.00
H158   H     0.99281   0.07915   0.48747   0.00000  Uiso   1.00
N159   N     0.98241   0.18074   0.26416   0.00000  Uiso   1.00
N160   N     0.68426   0.15259   0.23584   0.00000  Uiso   1.00
O161   O     0.79464   0.23807   0.24633   0.00000  Uiso   1.00
O162   O     0.89524   0.24755   0.25587   0.00000  Uiso   1.00
O163   O     0.75848   0.15960   0.31840   0.00000  Uiso   1.00
O164   O     0.85908   0.16908   0.32793   0.00000  Uiso   1.00
O165   O     0.77142   0.08578   0.24414   0.00000  Uiso   1.00
O166   O     0.87203   0.09526   0.25367   0.00000  Uiso   1.00
O167   O     0.80758   0.16425   0.17207   0.00000  Uiso   1.00
O168   O     0.90819   0.17373   0.18160   0.00000  Uiso   1.00
C169   C     0.18167   0.60000   0.25174   0.00000  Uiso   1.00
C170   C     0.11659   0.46861   0.39877   0.00000  Uiso   1.00
C171   C     0.18999   0.65603   0.25273   0.00000  Uiso   1.00
C172   C     0.13353   0.48831   0.34559   0.00000  Uiso   1.00
C173   C     0.14326   0.34398   0.24757   0.00000  Uiso   1.00
C174   C     0.15164   0.40000   0.24835   0.00000  Uiso   1.00
C175   C     0.19981   0.50676   0.15326   0.00000  Uiso   1.00
C176   C     0.29770   0.52388   0.02146   0.00000  Uiso   1.00
C177   C     0.21824   0.51448   0.09768   0.00000  Uiso   1.00
C178   C     0.05651   0.44228   0.41908   0.00000  Uiso   1.00
C179   C     0.03939   0.43297   0.47155   0.00000  Uiso   1.00
C180   C     0.14299   0.47804   0.48375   0.00000  Uiso   1.00
C181   C     0.08128   0.45327   0.00418   0.00000  Uiso   1.00
C182   C     0.11725   0.53839   0.08557   0.00000  Uiso   1.00
C183   C     0.13568   0.59441   0.10757   0.00000  Uiso   1.00
C184   C     0.23920   0.42995   0.37216   0.00000  Uiso   1.00
C185   C     0.23201   0.37821   0.39882   0.00000  Uiso   1.00
C186   C     0.16182   0.47493   0.43028   0.00000  Uiso   1.00
C187   C     0.18835   0.49970   0.01432   0.00000  Uiso   1.00
C188   C     0.25194   0.50876   0.49127   0.00000  Uiso   1.00
C189   C     0.26906   0.49746   0.43925   0.00000  Uiso   1.00
C190   C     0.22416   0.47316   0.41081   0.00000  Uiso   1.00
C191   C     0.17328   0.51358   0.06668   0.00000  Uiso   1.00
C192   C     0.28088   0.52247   0.07449   0.00000  Uiso   1.00
Cu193  Cu    0.10710   0.49439   0.24436   0.00000  Uiso   1.00
Cu194  Cu    0.22623   0.50561   0.25565   0.00000  Uiso   1.00
H195   H     0.31665   0.52790   0.09738   0.00000  Uiso   1.00
H196   H     0.23496   0.34654   0.25769   0.00000  Uiso   1.00
H197   H     0.15591   0.59480   0.14233   0.00000  Uiso   1.00
H198   H     0.17001   0.61957   0.07853   0.00000  Uiso   1.00
H199   H     0.09395   0.61164   0.11814   0.00000  Uiso   1.00
H200   H     0.09449   0.54290   0.05335   0.00000  Uiso   1.00
H201   H     0.08156   0.51330   0.11362   0.00000  Uiso   1.00
H202   H     0.25763   0.38396   0.43095   0.00000  Uiso   1.00
H203   H     0.18221   0.36197   0.41431   0.00000  Uiso   1.00
H204   H     0.24972   0.34901   0.37088   0.00000  Uiso   1.00
H205   H     0.20691   0.42020   0.34499   0.00000  Uiso   1.00
H206   H     0.09828   0.65347   0.24266   0.00000  Uiso   1.00
H207   H     0.28660   0.44231   0.34935   0.00000  Uiso   1.00
H208   H     0.00364   0.53959   0.28988   0.00000  Uiso   1.00
H209   H     0.32966   0.46035   0.21017   0.00000  Uiso   1.00
H210   H     0.31734   0.50326   0.42188   0.00000  Uiso   1.00
H211   H     0.01304   0.53188   0.00409   0.00000  Uiso   1.00
H212   H     0.02350   0.42905   0.39421   0.00000  Uiso   1.00
H213   H     0.06591   0.44720   0.04478   0.00000  Uiso   1.00
H214   H     0.32615   0.41248   0.48747   0.00000  Uiso   1.00
N215   N     0.31574   0.51407   0.26416   0.00000  Uiso   1.00
N216   N     0.01759   0.48593   0.23584   0.00000  Uiso   1.00
O217   O     0.12797   0.57141   0.24633   0.00000  Uiso   1.00
O218   O     0.22858   0.58089   0.25587   0.00000  Uiso   1.00
O219   O     0.09181   0.49293   0.31840   0.00000  Uiso   1.00
O220   O     0.19242   0.50241   0.32793   0.00000  Uiso   1.00
O221   O     0.10476   0.41911   0.24414   0.00000  Uiso   1.00
O222   O     0.20536   0.42859   0.25367   0.00000  Uiso   1.00
O223   O     0.14092   0.49759   0.17207   0.00000  Uiso   1.00
O224   O     0.24152   0.50707   0.18160   0.00000  Uiso   1.00
C225   C     0.51500   0.60000   0.25174   0.00000  Uiso   1.00
C226   C     0.44992   0.46861   0.39877   0.00000  Uiso   1.00
C227   C     0.52333   0.65603   0.25273   0.00000  Uiso   1.00
C228   C     0.46686   0.48831   0.34559   0.00000  Uiso   1.00
C229   C     0.47659   0.34398   0.24757   0.00000  Uiso   1.00
C230   C     0.48497   0.40000   0.24835   0.00000  Uiso   1.00
C231   C     0.53314   0.50676   0.15326   0.00000  Uiso   1.00
C232   C     0.63104   0.52388   0.02146   0.00000  Uiso   1.00
C233   C     0.55157   0.51448   0.09768   0.00000  Uiso   1.00
C234   C     0.38985   0.44228   0.41908   0.00000  Uiso   1.00
C235   C     0.37272   0.43297   0.47155   0.00000  Uiso   1.00
C236   C     0.47633   0.47804   0.48375   0.00000  Uiso   1.00
C237   C     0.41462   0.45327   0.00418   0.00000  Uiso   1.00
C238   C     0.45058   0.53839   0.08557   0.00000  Uiso   1.00
C239   C     0.46901   0.59441   0.10757   0.00000  Uiso   1.00
C240   C     0.57253   0.42995   0.37216   0.00000  Uiso   1.00
C241   C     0.56535   0.37821   0.39882   0.00000  Uiso   1.00
C242   C     0.49515   0.47493   0.43028   0.00000  Uiso   1.00
C243   C     0.52168   0.49970   0.01432   0.00000  Uiso   1.00
C244   C     0.58528   0.50876   0.49127   0.00000  Uiso   1.00
C245   C     0.60239   0.49746   0.43925   0.00000  Uiso   1.00
C246   C     0.55749   0.47316   0.41081   0.00000  Uiso   1.00
C247   C     0.50662   0.51358   0.06668   0.00000  Uiso   1.00
C248   C     0.61421   0.52247   0.07449   0.00000  Uiso   1.00
Cu249  Cu    0.44043   0.49439   0.24436   0.00000  Uiso   1.00
Cu250  Cu    0.55957   0.50561   0.25565   0.00000  Uiso   1.00
H251   H     0.64998   0.52790   0.09738   0.00000  Uiso   1.00
H252   H     0.56830   0.34654   0.25769   0.00000  Uiso   1.00
H253   H     0.48924   0.59480   0.14233   0.00000  Uiso   1.00
H254   H     0.50334   0.61957   0.07853   0.00000  Uiso   1.00
H255   H     0.42729   0.61164   0.11814   0.00000  Uiso   1.00
H256   H     0.42782   0.54290   0.05335   0.00000  Uiso   1.00
H257   H     0.41490   0.51330   0.11362   0.00000  Uiso   1.00
H258   H     0.59096   0.38396   0.43095   0.00000  Uiso   1.00
H259   H     0.51555   0.36197   0.41431   0.00000  Uiso   1.00
H260   H     0.58306   0.34901   0.37088   0.00000  Uiso   1.00
H261   H     0.54024   0.42020   0.34499   0.00000  Uiso   1.00
H262   H     0.43161   0.65347   0.24266   0.00000  Uiso   1.00
H263   H     0.61993   0.44231   0.34935   0.00000  Uiso   1.00
H264   H     0.33697   0.53959   0.28988   0.00000  Uiso   1.00
H265   H     0.66299   0.46035   0.21017   0.00000  Uiso   1.00
H266   H     0.65068   0.50326   0.42188   0.00000  Uiso   1.00
H267   H     0.34637   0.53188   0.00409   0.00000  Uiso   1.00
H268   H     0.35683   0.42905   0.39421   0.00000  Uiso   1.00
H269   H     0.39925   0.44720   0.04478   0.00000  Uiso   1.00
H270   H     0.65948   0.41248   0.48747   0.00000  Uiso   1.00
N271   N     0.64908   0.51407   0.26416   0.00000  Uiso   1.00
N272   N     0.35092   0.48593   0.23584   0.00000  Uiso   1.00
O273   O     0.46131   0.57141   0.24633   0.00000  Uiso   1.00
O274   O     0.56191   0.58089   0.25587   0.00000  Uiso   1.00
O275   O     0.42515   0.49293   0.31840   0.00000  Uiso   1.00
O276   O     0.52575   0.50241   0.32793   0.00000  Uiso   1.00
O277   O     0.43809   0.41911   0.24414   0.00000  Uiso   1.00
O278   O     0.53869   0.42859   0.25367   0.00000  Uiso   1.00
O279   O     0.47425   0.49759   0.17207   0.00000  Uiso   1.00
O280   O     0.57485   0.50707   0.18160   0.00000  Uiso   1.00
C281   C     0.84834   0.60000   0.25174   0.00000  Uiso   1.00
C282   C     0.78325   0.46861   0.39877   0.00000  Uiso   1.00
C283   C     0.85666   0.65603   0.25273   0.00000  Uiso   1.00
C284   C     0.80020   0.48831   0.34559   0.00000  Uiso   1.00
C285   C     0.80992   0.34398   0.24757   0.00000  Uiso   1.00
C286   C     0.81831   0.40000   0.24835   0.00000  Uiso   1.00
C287   C     0.86648   0.50676   0.15326   0.00000  Uiso   1.00
C288   C     0.96437   0.52388   0.02146   0.00000  Uiso   1.00
C289   C     0.88491   0.51448   0.09768   0.00000  Uiso   1.00
C290   C     0.72318   0.44228   0.41908   0.00000  Uiso   1.00
C291   C     0.70606   0.43297   0.47155   0.00000  Uiso   1.00
C292   C     0.80966   0.47804   0.48375   0.00000  Uiso   1.00
C293   C     0.74795   0.45327   0.00418   0.00000  Uiso   1.00
C294   C     0.78391   0.53839   0.08557   0.00000  Uiso   1.00
C295   C     0.80234   0.59441   0.10757   0.00000  Uiso   1.00
C296   C     0.90586   0.42995   0.37216   0.00000  Uiso   1.00
C297   C     0.89868   0.37821   0.39882   0.00000  Uiso   1.00
C298   C     0.82848   0.47493   0.43028   0.00000  Uiso   1.00
C299   C     0.85501   0.49970   0.01432   0.00000  Uiso   1.00
C300   C     0.91861   0.50876   0.49127   0.00000  Uiso   1.00
C301   C     0.93573   0.49746   0.43925   0.00000  Uiso   1.00
C302   C     0.89082   0.47316   0.41081   0.00000  Uiso   1.00
C303   C     0.83995   0.51358   0.06668   0.00000  Uiso   1.00
C304   C     0.94755   0.52247   0.07449   0.00000  Uiso   1.00
Cu305  Cu    0.77377   0.49439   0.24436   0.00000  Uiso   1.00
Cu306  Cu    0.89290   0.50561   0.25565   0.00000  Uiso   1.00
H307   H     0.98331   0.52790   0.09738   0.00000  Uiso   1.00
H308   H     0.90163   0.34654   0.25769   0.00000  Uiso   1.00
H309   H     0.82258   0.59480   0.14233   0.00000  Uiso   1.00
H310   H     0.83667   0.61957   0.07853   0.00000  Uiso   1.00
H311   H     0.76062   0.61164   0.11814   0.00000  Uiso   1.00
H312   H     0.76116   0.54290   0.05335   0.00000  Uiso   1.00
H313   H     0.74823   0.51330   0.11362   0.00000  Uiso   1.00
H314   H     0.92429   0.38396   0.43095   0.00000  Uiso   1.00
H315   H     0.84888   0.36197   0.41431   0.00000  Uiso   1.00
H316   H     0.91639   0.34901   0.37088   0.00000  Uiso   1.00
H317   H     0.87358   0.42020   0.34499   0.00000  Uiso   1.00
H318   H     0.76495   0.65347   0.24266   0.00000  Uiso   1.00
H319   H     0.95327   0.44231   0.34935   0.00000  Uiso   1.00
H320   H     0.67030   0.53959   0.28988   0.00000  Uiso   1.00
H321   H     0.99633   0.46035   0.21017   0.00000  Uiso   1.00
H322   H     0.98401   0.50326   0.42188   0.00000  Uiso   1.00
H323   H     0.67970   0.53188   0.00409   0.00000  Uiso   1.00
H324   H     0.69017   0.42905   0.39421   0.00000  Uiso   1.00
H325   H     0.73258   0.44720   0.04478   0.00000  Uiso   1.00
H326   H     0.99281   0.41248   0.48747   0.00000  Uiso   1.00
N327   N     0.98241   0.51407   0.26416   0.00000  Uiso   1.00
N328   N     0.68426   0.48593   0.23584   0.00000  Uiso   1.00
O329   O     0.79464   0.57141   0.24633   0.00000  Uiso   1.00
O330   O     0.89524   0.58089   0.25587   0.00000  Uiso   1.00
O331   O     0.75848   0.49293   0.31840   0.00000  Uiso   1.00
O332   O     0.85908   0.50241   0.32793   0.00000  Uiso   1.00
O333   O     0.77142   0.41911   0.24414   0.00000  Uiso   1.00
O334   O     0.87203   0.42859   0.25367   0.00000  Uiso   1.00
O335   O     0.80758   0.49759   0.17207   0.00000  Uiso   1.00
O336   O     0.90819   0.50707   0.18160   0.00000  Uiso   1.00
C337   C     0.18167   0.93333   0.25174   0.00000  Uiso   1.00
C338   C     0.11659   0.80195   0.39877   0.00000  Uiso   1.00
C339   C     0.18999   0.98936   0.25273   0.00000  Uiso   1.00
C340   C     0.13353   0.82164   0.34559   0.00000  Uiso   1.00
C341   C     0.14326   0.67731   0.24757   0.00000  Uiso   1.00
C342   C     0.15164   0.73333   0.24835   0.00000  Uiso   1.00
C343   C     0.19981   0.84009   0.15326   0.00000  Uiso   1.00
C344   C     0.29770   0.85721   0.02146   0.00000  Uiso   1.00
C345   C     0.21824   0.84781   0.09768   0.00000  Uiso   1.00
C346   C     0.05651   0.77562   0.41908   0.00000  Uiso   1.00
C347   C     0.03939   0.76630   0.47155   0.00000  Uiso   1.00
C348   C     0.14299   0.81137   0.48375   0.00000  Uiso   1.00
C349   C     0.08128   0.78660   0.00418   0.00000  Uiso   1.00
C350   C     0.11725   0.87172   0.08557   0.00000  Uiso   1.00
C351   C     0.13568   0.92774   0.10757   0.00000  Uiso   1.00
C352   C     0.23920   0.76328   0.37216   0.00000  Uiso   1.00
C353   C     0.23201   0.71154   0.39882   0.00000  Uiso   1.00
C354   C     0.16182   0.80827   0.43028   0.00000  Uiso   1.00
C355   C     0.18835   0.83303   0.01432   0.00000  Uiso   1.00
C356   C     0.25194   0.84209   0.49127   0.00000  Uiso   1.00
C357   C     0.26906   0.83079   0.43925   0.00000  Uiso   1.00
C358   C     0.22416   0.80649   0.41081   0.00000  Uiso   1.00
C359   C     0.17328   0.84691   0.06668   0.00000  Uiso   1.00
C360   C     0.28088   0.85581   0.07449   0.00000  Uiso   1.00
Cu361  Cu    0.10710   0.82772   0.24436   0.00000  Uiso   1.00
Cu362  Cu    0.22623   0.83895   0.25565   0.00000  Uiso   1.00
H363   H     0.31665   0.86123   0.09738   0.00000  Uiso   1.00
H364   H     0.23496   0.67987   0.25769   0.00000  Uiso   1.00
H365   H     0.15591   0.92814   0.14233   0.00000  Uiso   1.00
H366   H     0.17001   0.95291   0.07853   0.00000  Uiso   1.00
H367   H     0.09395   0.94498   0.11814   0.00000  Uiso   1.00
H368   H     0.09449   0.87623   0.05335   0.00000  Uiso   1.00
H369   H     0.08156   0.84664   0.11362   0.00000  Uiso   1.00
H370   H     0.25763   0.71729   0.43095   0.00000  Uiso   1.00
H371   H     0.18221   0.69531   0.41431   0.00000  Uiso   1.00
H372   H     0.24972   0.68234   0.37088   0.00000  Uiso   1.00
H373   H     0.20691   0.75353   0.34499   0.00000  Uiso   1.00
H374   H     0.09828   0.98680   0.24266   0.00000  Uiso   1.00
H375   H     0.28660   0.77565   0.34935   0.00000  Uiso   1.00
H376   H     0.00364   0.87292   0.28988   0.00000  Uiso   1.00
H377   H     0.32966   0.79369   0.21017   0.00000  Uiso   1.00
H378   H     0.31734   0.83660   0.42188   0.00000  Uiso   1.00
H379   H     0.01304   0.86522   0.00409   0.00000  Uiso   1.00
H380   H     0.02350   0.76238   0.39421   0.00000  Uiso   1.00
H381   H     0.06591   0.78054   0.04478   0.00000  Uiso   1.00
H382   H     0.32615   0.74581   0.48747   0.00000  Uiso   1.00
N383   N     0.31574   0.84741   0.26416   0.00000  Uiso   1.00
N384   N     0.01759   0.81926   0.23584   0.00000  Uiso   1.00
O385   O     0.12797   0.90474   0.24633   0.00000  Uiso   1.00
O386   O     0.22858   0.91422   0.25587   0.00000  Uiso   1.00
O387   O     0.09181   0.82627   0.31840   0.00000  Uiso   1.00
O388   O     0.19242   0.83575   0.32793   0.00000  Uiso   1.00
O389   O     0.10476   0.75245   0.24414   0.00000  Uiso   1.00
O390   O     0.20536   0.76193   0.25367   0.00000  Uiso   1.00
O391   O     0.14092   0.83092   0.17207   0.00000  Uiso   1.00
O392   O     0.24152   0.84040   0.18160   0.00000  Uiso   1.00
C393   C     0.51500   0.93333   0.25174   0.00000  Uiso   1.00
C394   C     0.44992   0.80195   0.39877   0.00000  Uiso   1.00
C395   C     0.52333   0.98936   0.25273   0.00000  Uiso   1.00
C396   C     0.46686   0.82164   0.34559   0.00000  Uiso   1.00
C397   C     0.47659   0.67731   0.24757   0.00000  Uiso   1.00
C398   C     0.48497   0.73333   0.24835   0.00000  Uiso   1.00
C399   C     0.53314   0.84009   0.15326   0.00000  Uiso   1.00
C400   C     0.63104   0.85721   0.02146   0.00000  Uiso   1.00
C401   C     0.55157   0.84781   0.09768   0.00000  Uiso   1.00
C402   C     0.38985   0.77562   0.41908   0.00000  Uiso   1.00
C403   C     0.37272   0.76630   0.47155   0.00000  Uiso   1.00
C404   C     0.47633   0.81137   0.48375   0.00000  Uiso   1.00
C405   C     0.41462   0.78660   0.00418   0.00000  Uiso   1.00
C406   C     0.45058   0.87172   0.08557   0.00000  Uiso   1.00
C407   C     0.46901   0.92774   0.10757   0.00000  Uiso   1.00
C408   C     0.57253   0.76328   0.37216   0.00000  Uiso   1.00
C409   C     0.56535   0.71154   0.39882   0.00000  Uiso   1.00
C410   C     0.49515   0.80827   0.43028   0.00000  Uiso   1.00
C411   C     0.52168   0.83303   0.01432   0.00000  Uiso   1.00
C412   C     0.58528   0.84209   0.49127   0.00000  Uiso   1.00
C413   C     0.60239   0.83079   0.43925   0.00000  Uiso   1.00
C414   C     0.55749   0.80649   0.41081   0.00000  Uiso   1.00
C415   C     0.50662   0.84691   0.06668   0.00000  Uiso   1.00
C416   C     0.61421   0.85581   0.07449   0.00000  Uiso   1.00
Cu417  Cu    0.44043   0.82772   0.24436   0.00000  Uiso   1.00
Cu418  Cu    0.55957   0.83895   0.25565   0.00000  Uiso   1.00
H419   H     0.64998   0.86123   0.09738   0.00000  Uiso   1.00
H420   H     0.56830   0.67987   0.25769   0.00000  Uiso   1.00
H421   H     0.48924   0.92814   0.14233   0.00000  Uiso   1.00
H422   H     0.50334   0.95291   0.07853   0.00000  Uiso   1.00
H423   H     0.42729   0.94498   0.11814   0.00000  Uiso   1.00
H424   H     0.42782   0.87623   0.05335   0.00000  Uiso   1.00
H425   H     0.41490   0.84664   0.11362   0.00000  Uiso   1.00
H426   H     0.59096   0.71729   0.43095   0.00000  Uiso   1.00
H427   H     0.51555   0.69531   0.41431   0.00000  Uiso   1.00
H428   H     0.58306   0.68234   0.37088   0.00000  Uiso   1.00
H429   H     0.54024   0.75353   0.34499   0.00000  Uiso   1.00
H430   H     0.43161   0.98680   0.24266   0.00000  Uiso   1.00
H431   H     0.61993   0.77565   0.34935   0.00000  Uiso   1.00
H432   H     0.33697   0.87292   0.28988   0.00000  Uiso   1.00
H433   H     0.66299   0.79369   0.21017   0.00000  Uiso   1.00
H434   H     0.65068   0.83660   0.42188   0.00000  Uiso   1.00
H435   H     0.34637   0.86522   0.00409   0.00000  Uiso   1.00
H436   H     0.35683   0.76238   0.39421   0.00000  Uiso   1.00
H437   H     0.39925   0.78054   0.04478   0.00000  Uiso   1.00
H438   H     0.65948   0.74581   0.48747   0.00000  Uiso   1.00
N439   N     0.64908   0.84741   0.26416   0.00000  Uiso   1.00
N440   N     0.35092   0.81926   0.23584   0.00000  Uiso   1.00
O441   O     0.46131   0.90474   0.24633   0.00000  Uiso   1.00
O442   O     0.56191   0.91422   0.25587   0.00000  Uiso   1.00
O443   O     0.42515   0.82627   0.31840   0.00000  Uiso   1.00
O444   O     0.52575   0.83575   0.32793   0.00000  Uiso   1.00
O445   O     0.43809   0.75245   0.24414   0.00000  Uiso   1.00
O446   O     0.53869   0.76193   0.25367   0.00000  Uiso   1.00
O447   O     0.47425   0.83092   0.17207   0.00000  Uiso   1.00
O448   O     0.57485   0.84040   0.18160   0.00000  Uiso   1.00
C449   C     0.84834   0.93333   0.25174   0.00000  Uiso   1.00
C450   C     0.78325   0.80195   0.39877   0.00000  Uiso   1.00
C451   C     0.85666   0.98936   0.25273   0.00000  Uiso   1.00
C452   C     0.80020   0.82164   0.34559   0.00000  Uiso   1.00
C453   C     0.80992   0.67731   0.24757   0.00000  Uiso   1.00
C454   C     0.81831   0.73333   0.24835   0.00000  Uiso   1.00
C455   C     0.86648   0.84009   0.15326   0.00000  Uiso   1.00
C456   C     0.96437   0.85721   0.02146   0.00000  Uiso   1.00
C457   C     0.88491   0.84781   0.09768   0.00000  Uiso   1.00
C458   C     0.72318   0.77562   0.41908   0.00000  Uiso   1.00
C459   C     0.70606   0.76630   0.47155   0.00000  Uiso   1.00
C460   C     0.80966   0.81137   0.48375   0.00000  Uiso   1.00
C461   C     0.74795   0.78660   0.00418   0.00000  Uiso   1.00
C462   C     0.78391   0.87172   0.08557   0.00000  Uiso   1.00
C463   C     0.80234   0.92774   0.10757   0.00000  Uiso   1.00
C464   C     0.90586   0.76328   0.37216   0.00000  Uiso   1.00
C465   C     0.89868   0.71154   0.39882   0.00000  Uiso   1.00
C466   C     0.82848   0.80827   0.43028   0.00000  Uiso   1.00
C467   C     0.85501   0.83303   0.01432   0.00000  Uiso   1.00
C468   C     0.91861   0.84209   0.49127   0.00000  Uiso   1.00
C469   C     0.93573   0.83079   0.43925   0.00000  Uiso   1.00
C470   C     0.89082   0.80649   0.41081   0.00000  Uiso   1.00
C471   C     0.83995   0.84691   0.06668   0.00000  Uiso   1.00
C472   C     0.94755   0.85581   0.07449   0.00000  Uiso   1.00
Cu473  Cu    0.77377   0.82772   0.24436   0.00000  Uiso   1.00
Cu474  Cu    0.89290   0.83895   0.25565   0.00000  Uiso   1.00
H475   H     0.98331   0.86123   0.09738   0.00000  Uiso   1.00
H476   H     0.90163   0.67987   0.25769   0.00000  Uiso   1.00
H477   H     0.82258   0.92814   0.14233   0.00000  Uiso   1.00
H478   H     0.83667   0.95291   0.07853   0.00000  Uiso   1.00
H479   H     0.76062   0.94498   0.11814   0.00000  Uiso   1.00
H480   H     0.76116   0.87623   0.05335   0.00000  Uiso   1.00
H481   H     0.74823   0.84664   0.11362   0.00000  Uiso   1.00
H482   H     0.92429   0.71729   0.43095   0.00000  Uiso   1.00
H483   H     0.84888   0.69531   0.41431   0.00000  Uiso   1.00
H484   H     0.91639   0.68234   0.37088   0.00000  Uiso   1.00
H485   H     0.87358   0.75353   0.34499   0.00000  Uiso   1.00
H486   H     0.76495   0.98680   0.24266   0.00000  Uiso   1.00
H487   H     0.95327   0.77565   0.34935   0.00000  Uiso   1.00
H488   H     0.67030   0.87292   0.28988   0.00000  Uiso   1.00
H489   H     0.99633   0.79369   0.21017   0.00000  Uiso   1.00
H490   H     0.98401   0.83660   0.42188   0.00000  Uiso   1.00
H491   H     0.67970   0.86522   0.00409   0.00000  Uiso   1.00
H492   H     0.69017   0.76238   0.39421   0.00000  Uiso   1.00
H493   H     0.73258   0.78054   0.04478   0.00000  Uiso   1.00
H494   H     0.99281   0.74581   0.48747   0.00000  Uiso   1.00
N495   N     0.98241   0.84741   0.26416   0.00000  Uiso   1.00
N496   N     0.68426   0.81926   0.23584   0.00000  Uiso   1.00
O497   O     0.79464   0.90474   0.24633   0.00000  Uiso   1.00
O498   O     0.89524   0.91422   0.25587   0.00000  Uiso   1.00
O499   O     0.75848   0.82627   0.31840   0.00000  Uiso   1.00
O500   O     0.85908   0.83575   0.32793   0.00000  Uiso   1.00
O501   O     0.77142   0.75245   0.24414   0.00000  Uiso   1.00
O502   O     0.87203   0.76193   0.25367   0.00000  Uiso   1.00
O503   O     0.80758   0.83092   0.17207   0.00000  Uiso   1.00
O504   O     0.90819   0.84040   0.18160   0.00000  Uiso   1.00
C505   C     0.18167   0.26666   0.75174   0.00000  Uiso   1.00
C506   C     0.11659   0.13528   0.89877   0.00000  Uiso   1.00
C507   C     0.18999   0.32270   0.75273   0.00000  Uiso   1.00
C508   C     0.13353   0.15498   0.84559   0.00000  Uiso   1.00
C509   C     0.14326   0.01065   0.74757   0.00000  Uiso   1.00
C510   C     0.15164   0.06667   0.74835   0.00000  Uiso   1.00
C511   C     0.19981   0.17342   0.65326   0.00000  Uiso   1.00
C512   C     0.29770   0.19054   0.52146   0.00000  Uiso   1.00
C513   C     0.21824   0.18114   0.59768   0.00000  Uiso   1.00
C514   C     0.05651   0.10895   0.91908   0.00000  Uiso   1.00
C515   C     0.03939   0.09963   0.97155   0.00000  Uiso   1.00
C516   C     0.14299   0.14471   0.98375   0.00000  Uiso   1.00
C517   C     0.08128   0.11993   0.50418   0.00000  Uiso   1.00
C518   C     0.11725   0.20505   0.58557   0.00000  Uiso   1.00
C519   C     0.13568   0.26107   0.60757   0.00000  Uiso   1.00
C520   C     0.23920   0.09662   0.87216   0.00000  Uiso   1.00
C521   C     0.23201   0.04487   0.89882   0.00000  Uiso   1.00
C522   C     0.16182   0.14160   0.93028   0.00000  Uiso   1.00
C523   C     0.18835   0.16637   0.51432   0.00000  Uiso   1.00
C524   C     0.25194   0.17542   0.99127   0.00000  Uiso   1.00
C525   C     0.26906   0.16413   0.93925   0.00000  Uiso   1.00
C526   C     0.22416   0.13983   0.91081   0.00000  Uiso   1.00
C527   C     0.17328   0.18024   0.56668   0.00000  Uiso   1.00
C528   C     0.28088   0.18914   0.57449   0.00000  Uiso   1.00
Cu529  Cu    0.10710   0.16105   0.74436   0.00000  Uiso   1.00
Cu530  Cu    0.22623   0.17228   0.75565   0.00000  Uiso   1.00
H531   H     0.31665   0.19456   0.59738   0.00000  Uiso   1.00
H532   H     0.23496   0.01320   0.75769   0.00000  Uiso   1.00
H533   H     0.15591   0.26147   0.64233   0.00000  Uiso   1.00
H534   H     0.17001   0.28624   0.57853   0.00000  Uiso   1.00
H535   H     0.09395   0.27831   0.61814   0.00000  Uiso   1.00
H536   H     0.09449   0.20956   0.55335   0.00000  Uiso   1.00
H537   H     0.08156   0.17997   0.61362   0.00000  Uiso   1.00
H538   H     0.25763   0.05063   0.93095   0.00000  Uiso   1.00
H539   H     0.18221   0.02864   0.91431   0.00000  Uiso   1.00
H540   H     0.24972   0.01568   0.87088   0.00000  Uiso   1.00
H541   H     0.20691   0.08687   0.84499   0.00000  Uiso   1.00
H542   H     0.09828   0.32014   0.74266   0.00000  Uiso   1.00
H543   H     0.28660   0.10898   0.84935   0.00000  Uiso   1.00
H544   H     0.00364   0.20626   0.78988   0.00000  Uiso   1.00
H545   H     0.32966   0.12702   0.71017   0.00000  Uiso   1.00
H546   H     0.31734   0.16993   0.92188   0.00000  Uiso   1.00
H547   H     0.01304   0.19855   0.50409   0.00000  Uiso   1.00
H548   H     0.02350   0.09572   0.89421   0.00000  Uiso   1.00
H549   H     0.06591   0.11387   0.54478   0.00000  Uiso   1.00
H550   H     0.32615   0.07915   0.98747   0.00000  Uiso   1.00
N551   N     0.31574   0.18074   0.76416   0.00000  Uiso   1.00
N552   N     0.01759   0.15259   0.73584   0.00000  Uiso   1.00
O553   O     0.12797   0.23807   0.74633   0.00000  Uiso   1.00
O554   O     0.22858   0.24755   0.75587   0.00000  Uiso   1.00
O555   O     0.09181   0.15960   0.81840   0.00000  Uiso   1.00
O556   O     0.19242   0.16908   0.82793   0.00000  Uiso   1.00
O557   O     0.10476   0.08578   0.74414   0.00000  Uiso   1.00
O558   O     0.20536   0.09526   0.75367   0.00000  Uiso   1.00
O559   O     0.14092   0.16425   0.67207   0.00000  Uiso   1.00
O560   O     0.24152   0.17373   0.68160   0.00000  Uiso   1.00
C561   C     0.51500   0.26666   0.75174   0.00000  Uiso   1.00
C562   C     0.44992   0.13528   0.89877   0.00000  Uiso   1.00
C563   C     0.52333   0.32270   0.75273   0.00000  Uiso   1.00
C564   C     0.46686   0.15498   0.84559   0.00000  Uiso   1.00
C565   C     0.47659   0.01065   0.74757   0.00000  Uiso   1.00
C566   C     0.48497   0.06667   0.74835   0.00000  Uiso   1.00
C567   C     0.53314   0.17342   0.65326   0.00000  Uiso   1.00
C568   C     0.63104   0.19054   0.52146   0.00000  Uiso   1.00
C569   C     0.55157   0.18114   0.59768   0.00000  Uiso   1.00
C570   C     0.38985   0.10895   0.91908   0.00000  Uiso   1.00
C571   C     0.37272   0.09963   0.97155   0.00000  Uiso   1.00
C572   C     0.47633   0.14471   0.98375   0.00000  Uiso   1.00
C573   C     0.41462   0.11993   0.50418   0.00000  Uiso   1.00
C574   C     0.45058   0.20505   0.58557   0.00000  Uiso   1.00
C575   C     0.46901   0.26107   0.60757   0.00000  Uiso   1.00
C576   C     0.57253   0.09662   0.87216   0.00000  Uiso   1.00
C577   C     0.56535   0.04487   0.89882   0.00000  Uiso   1.00
C578   C     0.49515   0.14160   0.93028   0.00000  Uiso   1.00
C579   C     0.52168   0.16637   0.51432   0.00000  Uiso   1.00
C580   C     0.58528   0.17542   0.99127   0.00000  Uiso   1.00
C581   C     0.60239   0.16413   0.93925   0.00000  Uiso   1.00
C582   C     0.55749   0.13983   0.91081   0.00000  Uiso   1.00
C583   C     0.50662   0.18024   0.56668   0.00000  Uiso   1.00
C584   C     0.61421   0.18914   0.57449   0.00000  Uiso   1.00
Cu585  Cu    0.44043   0.16105   0.74436   0.00000  Uiso   1.00
Cu586  Cu    0.55957   0.17228   0.75565   0.00000  Uiso   1.00
H587   H     0.64998   0.19456   0.59738   0.00000  Uiso   1.00
H588   H     0.56830   0.01320   0.75769   0.00000  Uiso   1.00
H589   H     0.48924   0.26147   0.64233   0.00000  Uiso   1.00
H590   H     0.50334   0.28624   0.57853   0.00000  Uiso   1.00
H591   H     0.42729   0.27831   0.61814   0.00000  Uiso   1.00
H592   H     0.42782   0.20956   0.55335   0.00000  Uiso   1.00
H593   H     0.41490   0.17997   0.61362   0.00000  Uiso   1.00
H594   H     0.59096   0.05063   0.93095   0.00000  Uiso   1.00
H595   H     0.51555   0.02864   0.91431   0.00000  Uiso   1.00
H596   H     0.58306   0.01568   0.87088   0.00000  Uiso   1.00
H597   H     0.54024   0.08687   0.84499   0.00000  Uiso   1.00
H598   H     0.43161   0.32014   0.74266   0.00000  Uiso   1.00
H599   H     0.61993   0.10898   0.84935   0.00000  Uiso   1.00
H600   H     0.33697   0.20626   0.78988   0.00000  Uiso   1.00
H601   H     0.66299   0.12702   0.71017   0.00000  Uiso   1.00
H602   H     0.65068   0.16993   0.92188   0.00000  Uiso   1.00
H603   H     0.34637   0.19855   0.50409   0.00000  Uiso   1.00
H604   H     0.35683   0.09572   0.89421   0.00000  Uiso   1.00
H605   H     0.39925   0.11387   0.54478   0.00000  Uiso   1.00
H606   H     0.65948   0.07915   0.98747   0.00000  Uiso   1.00
N607   N     0.64908   0.18074   0.76416   0.00000  Uiso   1.00
N608   N     0.35092   0.15259   0.73584   0.00000  Uiso   1.00
O609   O     0.46131   0.23807   0.74633   0.00000  Uiso   1.00
O610   O     0.56191   0.24755   0.75587   0.00000  Uiso   1.00
O611   O     0.42515   0.15960   0.81840   0.00000  Uiso   1.00
O612   O     0.52575   0.16908   0.82793   0.00000  Uiso   1.00
O613   O     0.43809   0.08578   0.74414   0.00000  Uiso   1.00
O614   O     0.53869   0.09526   0.75367   0.00000  Uiso   1.00
O615   O     0.47425   0.16425   0.67207   0.00000  Uiso   1.00
O616   O     0.57485   0.17373   0.68160   0.00000  Uiso   1.00
C617   C     0.84834   0.26666   0.75174   0.00000  Uiso   1.00
C618   C     0.78325   0.13528   0.89877   0.00000  Uiso   1.00
C619   C     0.85666   0.32270   0.75273   0.00000  Uiso   1.00
C620   C     0.80020   0.15498   0.84559   0.00000  Uiso   1.00
C621   C     0.80992   0.01065   0.74757   0.00000  Uiso   1.00
C622   C     0.81831   0.06667   0.74835   0.00000  Uiso   1.00
C623   C     0.86648   0.17342   0.65326   0.00000  Uiso   1.00
C624   C     0.96437   0.19054   0.52146   0.00000  Uiso   1.00
C625   C     0.88491   0.18114   0.59768   0.00000  Uiso   1.00
C626   C     0.72318   0.10895   0.91908   0.00000  Uiso   1.00
C627   C     0.70606   0.09963   0.97155   0.00000  Uiso   1.00
C628   C     0.80966   0.14471   0.98375   0.00000  Uiso   1.00
C629   C     0.74795   0.11993   0.50418   0.00000  Uiso   1.00
C630   C     0.78391   0.20505   0.58557   0.00000  Uiso   1.00
C631   C     0.80234   0.26107   0.60757   0.00000  Uiso   1.00
C632   C     0.90586   0.09662   0.87216   0.00000  Uiso   1.00
C633   C     0.89868   0.04487   0.89882   0.00000  Uiso   1.00
C634   C     0.82848   0.14160   0.93028   0.00000  Uiso   1.00
C635   C     0.85501   0.16637   0.51432   0.00000  Uiso   1.00
C636   C     0.91861   0.17542   0.99127   0.00000  Uiso   1.00
C637   C     0.93573   0.16413   0.93925   0.00000  Uiso   1.00
C638   C     0.89082   0.13983   0.91081   0.00000  Uiso   1.00
C639   C     0.83995   0.18024   0.56668   0.00000  Uiso   1.00
C640   C     0.94755   0.18914   0.57449   0.00000  Uiso   1.00
Cu641  Cu    0.77377   0.16105   0.74436   0.00000  Uiso   1.00
Cu642  Cu    0.89290   0.17228   0.75565   0.00000  Uiso   1.00
H643   H     0.98331   0.19456   0.59738   0.00000  Uiso   1.00
H644   H     0.90163   0.01320   0.75769   0.00000  Uiso   1.00
H645   H     0.82258   0.26147   0.64233   0.00000  Uiso   1.00
H646   H     0.83667   0.28624   0.57853   0.00000  Uiso   1.00
H647   H     0.76062   0.27831   0.61814   0.00000  Uiso   1.00
H648   H     0.76116   0.20956   0.55335   0.00000  Uiso   1.00
H649   H     0.74823   0.17997   0.61362   0.00000  Uiso   1.00
H650   H     0.92429   0.05063   0.93095   0.00000  Uiso   1.00
H651   H     0.84888   0.02864   0.91431   0.00000  Uiso   1.00
H652   H     0.91639   0.01568   0.87088   0.00000  Uiso   1.00
H653   H     0.87358   0.08687   0.84499   0.00000  Uiso   1.00
H654   H     0.76495   0.32014   0.74266   0.00000  Uiso   1.00
H655   H     0.95327   0.10898   0.84935   0.00000  Uiso   1.00
H656   H     0.67030   0.20626   0.78988   0.00000  Uiso   1.00
H657   H     0.99633   0.12702   0.71017   0.00000  Uiso   1.00
H658   H     0.98401   0.16993   0.92188   0.00000  Uiso   1.00
H659   H     0.67970   0.19855   0.50409   0.00000  Uiso   1.00
H660   H     0.69017   0.09572   0.89421   0.00000  Uiso   1.00
H661   H     0.73258   0.11387   0.54478   0.00000  Uiso   1.00
H662   H     0.99281   0.07915   0.98747   0.00000  Uiso   1.00
N663   N     0.98241   0.18074   0.76416   0.00000  Uiso   1.00
N664   N     0.68426   0.15259   0.73584   0.00000  Uiso   1.00
O665   O     0.79464   0.23807   0.74633   0.00000  Uiso   1.00
O666   O     0.89524   0.24755   0.75587   0.00000  Uiso   1.00
O667   O     0.75848   0.15960   0.81840   0.00000  Uiso   1.00
O668   O     0.85908   0.16908   0.82793   0.00000  Uiso   1.00
O669   O     0.77142   0.08578   0.74414   0.00000  Uiso   1.00
O670   O     0.87203   0.09526   0.75367   0.00000  Uiso   1.00
O671   O     0.80758   0.16425   0.67207   0.00000  Uiso   1.00
O672   O     0.90819   0.17373   0.68160   0.00000  Uiso   1.00
C673   C     0.18167   0.60000   0.75174   0.00000  Uiso   1.00
C674   C     0.11659   0.46861   0.89877   0.00000  Uiso   1.00
C675   C     0.18999   0.65603   0.75273   0.00000  Uiso   1.00
C676   C     0.13353   0.48831   0.84559   0.00000  Uiso   1.00
C677   C     0.14326   0.34398   0.74757   0.00000  Uiso   1.00
C678   C     0.15164   0.40000   0.74835   0.00000  Uiso   1.00
C679   C     0.19981   0.50676   0.65326   0.00000  Uiso   1.00
C680   C     0.29770   0.52388   0.52146   0.00000  Uiso   1.00
C681   C     0.21824   0.51448   0.59768   0.00000  Uiso   1.00
C682   C     0.05651   0.44228   0.91908   0.00000  Uiso   1.00
C683   C     0.03939   0.43297   0.97155   0.00000  Uiso   1.00
C684   C     0.14299   0.47804   0.98375   0.00000  Uiso   1.00
C685   C     0.08128   0.45327   0.50418   0.00000  Uiso   1.00
C686   C     0.11725   0.53839   0.58557   0.00000  Uiso   1.00
C687   C     0.13568   0.59441   0.60757   0.00000  Uiso   1.00
C688   C     0.23920   0.42995   0.87216   0.00000  Uiso   1.00
C689   C     0.23201   0.37821   0.89882   0.00000  Uiso   1.00
C690   C     0.16182   0.47493   0.93028   0.00000  Uiso   1.00
C691   C     0.18835   0.49970   0.51432   0.00000  Uiso   1.00
C692   C     0.25194   0.50876   0.99127   0.00000  Uiso   1.00
C693   C     0.26906   0.49746   0.93925   0.00000  Uiso   1.00
C694   C     0.22416   0.47316   0.91081   0.00000  Uiso   1.00
C695   C     0.17328   0.51358   0.56668   0.00000  Uiso   1.00
C696   C     0.28088   0.52247   0.57449   0.00000  Uiso   1.00
Cu697  Cu    0.10710   0.49439   0.74436   0.00000  Uiso   1.00
Cu698  Cu    0.22623   0.50561   0.75565   0.00000  Uiso   1.00
H699   H     0.31665   0.52790   0.59738   0.00000  Uiso   1.00
H700   H     0.23496   0.34654   0.75769   0.00000  Uiso   1.00
H701   H     0.15591   0.59480   0.64233   0.00000  Uiso   1.00
H702   H     0.17001   0.61957   0.57853   0.00000  Uiso   1.00
H703   H     0.09395   0.61164   0.61814   0.00000  Uiso   1.00
H704   H     0.09449   0.54290   0.55335   0.00000  Uiso   1.00
H705   H     0.08156   0.51330   0.61362   0.00000  Uiso   1.00
H706   H     0.25763   0.38396   0.93095   0.00000  Uiso   1.00
H707   H     0.18221   0.36197   0.91431   0.00000  Uiso   1.00
H708   H     0.24972   0.34901   0.87088   0.00000  Uiso   1.00
H709   H     0.20691   0.42020   0.84499   0.00000  Uiso   1.00
H710   H     0.09828   0.65347   0.74266   0.00000  Uiso   1.00
H711   H     0.28660   0.44231   0.84935   0.00000  Uiso   1.00
H712   H     0.00364   0.53959   0.78988   0.00000  Uiso   1.00
H713   H     0.32966   0.46035   0.71017   0.00000  Uiso   1.00
H714   H     0.31734   0.50326   0.92188   0.00000  Uiso   1.00
H715   H     0.01304   0.53188   0.50409   0.00000  Uiso   1.00
H716   H     0.02350   0.42905   0.89421   0.00000  Uiso   1.00
H717   H     0.06591   0.44720   0.54478   0.00000  Uiso   1.00
H718   H     0.32615   0.41248   0.98747   0.00000  Uiso   1.00
N719   N     0.31574   0.51407   0.76416   0.00000  Uiso   1.00
N720   N     0.01759   0.48593   0.73584   0.00000  Uiso   1.00
O721   O     0.12797   0.57141   0.74633   0.00000  Uiso   1.00
O722   O     0.22858   0.58089   0.75587   0.00000  Uiso   1.00
O723   O     0.09181   0.49293   0.81840   0.00000  Uiso   1.00
O724   O     0.19242   0.50241   0.82793   0.00000  Uiso   1.00
O725   O     0.10476   0.41911   0.74414   0.00000  Uiso   1.00
O726   O     0.20536   0.42859   0.75367   0.00000  Uiso   1.00
O727   O     0.14092   0.49759   0.67207   0.00000  Uiso   1.00
O728   O     0.24152   0.50707   0.68160   0.00000  Uiso   1.00
C729   C     0.51500   0.60000   0.75174   0.00000  Uiso   1.00
C730   C     0.44992   0.46861   0.89877   0.00000  Uiso   1.00
C731   C     0.52333   0.65603   0.75273   0.00000  Uiso   1.00
C732   C     0.46686   0.48831   0.84559   0.00000  Uiso   1.00
C733   C     0.47659   0.34398   0.74757   0.00000  Uiso   1.00
C734   C     0.48497   0.40000   0.74835   0.00000  Uiso   1.00
C735   C     0.53314   0.50676   0.65326   0.00000  Uiso   1.00
C736   C     0.63104   0.52388   0.52146   0.00000  Uiso   1.00
C737   C     0.55157   0.51448   0.59768   0.00000  Uiso   1.00
C738   C     0.38985   0.44228   0.91908   0.00000  Uiso   1.00
C739   C     0.37272   0.43297   0.97155   0.00000  Uiso   1.00
C740   C     0.47633   0.47804   0.98375   0.00000  Uiso   1.00
C741   C     0.41462   0.45327   0.50418   0.00000  Uiso   1.00
C742   C     0.45058   0.53839   0.58557   0.00000  Uiso   1.00
C743   C     0.46901   0.59441   0.60757   0.00000  Uiso   1.00
C744   C     0.57253   0.42995   0.87216   0.00000  Uiso   1.00
C745   C     0.56535   0.37821   0.89882   0.00000  Uiso   1.00
C746   C     0.49515   0.47493   0.93028   0.00000  Uiso   1.00
C747   C     0.52168   0.49970   0.51432   0.00000  Uiso   1.00
C748   C     0.58528   0.50876   0.99127   0.00000  Uiso   1.00
C749   C     0.60239   0.49746   0.93925   0.00000  Uiso   1.00
C750   C     0.55749   0.47316   0.91081   0.00000  Uiso   1.00
C751   C     0.50662   0.51358   0.56668   0.00000  Uiso   1.00
C752   C     0.61421   0.52247   0.57449   0.00000  Uiso   1.00
Cu753  Cu    0.44043   0.49439   0.74436   0.00000  Uiso   1.00
Cu754  Cu    0.55957   0.50561   0.75565   0.00000  Uiso   1.00
H755   H     0.64998   0.52790   0.59738   0.00000  Uiso   1.00
H756   H     0.56830   0.34654   0.75769   0.00000  Uiso   1.00
H757   H     0.48924   0.59480   0.64233   0.00000  Uiso   1.00
H758   H     0.50334   0.61957   0.57853   0.00000  Uiso   1.00
H759   H     0.42729   0.61164   0.61814   0.00000  Uiso   1.00
H760   H     0.42782   0.54290   0.55335   0.00000  Uiso   1.00
H761   H     0.41490   0.51330   0.61362   0.00000  Uiso   1.00
H762   H     0.59096   0.38396   0.93095   0.00000  Uiso   1.00
H763   H     0.51555   0.36197   0.91431   0.00000  Uiso   1.00
H764   H     0.58306   0.34901   0.87088   0.00000  Uiso   1.00
H765   H     0.54024   0.42020   0.84499   0.00000  Uiso   1.00
H766   H     0.43161   0.65347   0.74266   0.00000  Uiso   1.00
H767   H     0.61993   0.44231   0.84935   0.00000  Uiso   1.00
H768   H     0.33697   0.53959   0.78988   0.00000  Uiso   1.00
H769   H     0.66299   0.46035   0.71017   0.00000  Uiso   1.00
H770   H     0.65068   0.50326   0.92188   0.00000  Uiso   1.00
H771   H     0.34637   0.53188   0.50409   0.00000  Uiso   1.00
H772   H     0.35683   0.42905   0.89421   0.00000  Uiso   1.00
H773   H     0.39925   0.44720   0.54478   0.00000  Uiso   1.00
H774   H     0.65948   0.41248   0.98747   0.00000  Uiso   1.00
N775   N     0.64908   0.51407   0.76416   0.00000  Uiso   1.00
N776   N     0.35092   0.48593   0.73584   0.00000  Uiso   1.00
O777   O     0.46131   0.57141   0.74633   0.00000  Uiso   1.00
O778   O     0.56191   0.58089   0.75587   0.00000  Uiso   1.00
O779   O     0.42515   0.49293   0.81840   0.00000  Uiso   1.00
O780   O     0.52575   0.50241   0.82793   0.00000  Uiso   1.00
O781   O     0.43809   0.41911   0.74414   0.00000  Uiso   1.00
O782   O     0.53869   0.42859   0.75367   0.00000  Uiso   1.00
O783   O     0.47425   0.49759   0.67207   0.00000  Uiso   1.00
O784   O     0.57485   0.50707   0.68160   0.00000  Uiso   1.00
C785   C     0.84834   0.60000   0.75174   0.00000  Uiso   1.00
C786   C     0.78325   0.46861   0.89877   0.00000  Uiso   1.00
C787   C     0.85666   0.65603   0.75273   0.00000  Uiso   1.00
C788   C     0.80020   0.48831   0.84559   0.00000  Uiso   1.00
C789   C     0.80992   0.34398   0.74757   0.00000  Uiso   1.00
C790   C     0.81831   0.40000   0.74835   0.00000  Uiso   1.00
C791   C     0.86648   0.50676   0.65326   0.00000  Uiso   1.00
C792   C     0.96437   0.52388   0.52146   0.00000  Uiso   1.00
C793   C     0.88491   0.51448   0.59768   0.00000  Uiso   1.00
C794   C     0.72318   0.44228   0.91908   0.00000  Uiso   1.00
C795   C     0.70606   0.43297   0.97155   0.00000  Uiso   1.00
C796   C     0.80966   0.47804   0.98375   0.00000  Uiso   1.00
C797   C     0.74795   0.45327   0.50418   0.00000  Uiso   1.00
C798   C     0.78391   0.53839   0.58557   0.00000  Uiso   1.00
C799   C     0.80234   0.59441   0.60757   0.00000  Uiso   1.00
C800   C     0.90586   0.42995   0.87216   0.00000  Uiso   1.00
C801   C     0.89868   0.37821   0.89882   0.00000  Uiso   1.00
C802   C     0.82848   0.47493   0.93028   0.00000  Uiso   1.00
C803   C     0.85501   0.49970   0.51432   0.00000  Uiso   1.00
C804   C     0.91861   0.50876   0.99127   0.00000  Uiso   1.00
C805   C     0.93573   0.49746   0.93925   0.00000  Uiso   1.00
C806   C     0.89082   0.47316   0.91081   0.00000  Uiso   1.00
C807   C     0.83995   0.51358   0.56668   0.00000  Uiso   1.00
C808   C     0.94755   0.52247   0.57449   0.00000  Uiso   1.00
Cu809  Cu    0.77377   0.49439   0.74436   0.00000  Uiso   1.00
Cu810  Cu    0.89290   0.50561   0.75565   0.00000  Uiso   1.00
H811   H     0.98331   0.52790   0.59738   0.00000  Uiso   1.00
H812   H     0.90163   0.34654   0.75769   0.00000  Uiso   1.00
H813   H     0.82258   0.59480   0.64233   0.00000  Uiso   1.00
H814   H     0.83667   0.61957   0.57853   0.00000  Uiso   1.00
H815   H     0.76062   0.61164   0.61814   0.00000  Uiso   1.00
H816   H     0.76116   0.54290   0.55335   0.00000  Uiso   1.00
H817   H     0.74823   0.51330   0.61362   0.00000  Uiso   1.00
H818   H     0.92429   0.38396   0.93095   0.00000  Uiso   1.00
H819   H     0.84888   0.36197   0.91431   0.00000  Uiso   1.00
H820   H     0.91639   0.34901   0.87088   0.00000  Uiso   1.00
H821   H     0.87358   0.42020   0.84499   0.00000  Uiso   1.00
H822   H     0.76495   0.65347   0.74266   0.00000  Uiso   1.00
H823   H     0.95327   0.44231   0.84935   0.00000  Uiso   1.00
H824   H     0.67030   0.53959   0.78988   0.00000  Uiso   1.00
H825   H     0.99633   0.46035   0.71017   0.00000  Uiso   1.00
H826   H     0.98401   0.50326   0.92188   0.00000  Uiso   1.00
H827   H     0.67970   0.53188   0.50409   0.00000  Uiso   1.00
H828   H     0.69017   0.42905   0.89421   0.00000  Uiso   1.00
H829   H     0.73258   0.44720   0.54478   0.00000  Uiso   1.00
H830   H     0.99281   0.41248   0.98747   0.00000  Uiso   1.00
N831   N     0.98241   0.51407   0.76416   0.00000  Uiso   1.00
N832   N     0.68426   0.48593   0.73584   0.00000  Uiso   1.00
O833   O     0.79464   0.57141   0.74633   0.00000  Uiso   1.00
O834   O     0.89524   0.58089   0.75587   0.00000  Uiso   1.00
O835   O     0.75848   0.49293   0.81840   0.00000  Uiso   1.00
O836   O     0.85908   0.50241   0.82793   0.00000  Uiso   1.00
O837   O     0.77142   0.41911   0.74414   0.00000  Uiso   1.00
O838   O     0.87203   0.42859   0.75367   0.00000  Uiso   1.00
O839   O     0.80758   0.49759   0.67207   0.00000  Uiso   1.00
O840   O     0.90819   0.50707   0.68160   0.00000  Uiso   1.00
C841   C     0.18167   0.93333   0.75174   0.00000  Uiso   1.00
C842   C     0.11659   0.80195   0.89877   0.00000  Uiso   1.00
C843   C     0.18999   0.98936   0.75273   0.00000  Uiso   1.00
C844   C     0.13353   0.82164   0.84559   0.00000  Uiso   1.00
C845   C     0.14326   0.67731   0.74757   0.00000  Uiso   1.00
C846   C     0.15164   0.73333   0.74835   0.00000  Uiso   1.00
C847   C     0.19981   0.84009   0.65326   0.00000  Uiso   1.00
C848   C     0.29770   0.85721   0.52146   0.00000  Uiso   1.00
C849   C     0.21824   0.84781   0.59768   0.00000  Uiso   1.00
C850   C     0.05651   0.77562   0.91908   0.00000  Uiso   1.00
C851   C     0.03939   0.76630   0.97155   0.00000  Uiso   1.00
C852   C     0.14299   0.81137   0.98375   0.00000  Uiso   1.00
C853   C     0.08128   0.78660   0.50418   0.00000  Uiso   1.00
C854   C     0.11725   0.87172   0.58557   0.00000  Uiso   1.00
C855   C     0.13568   0.92774   0.60757   0.00000  Uiso   1.00
C856   C     0.23920   0.76328   0.87216   0.00000  Uiso   1.00
C857   C     0.23201   0.71154   0.89882   0.00000  Uiso   1.00
C858   C     0.16182   0.80827   0.93028   0.00000  Uiso   1.00
C859   C     0.18835   0.83303   0.51432   0.00000  Uiso   1.00
C860   C     0.25194   0.84209   0.99127   0.00000  Uiso   1.00
C861   C     0.26906   0.83079   0.93925   0.00000  Uiso   1.00
C862   C     0.22416   0.80649   0.91081   0.00000  Uiso   1.00
C863   C     0.17328   0.84691   0.56668   0.00000  Uiso   1.00
C864   C     0.28088   0.85581   0.57449   0.00000  Uiso   1.00
Cu865  Cu    0.10710   0.82772   0.74436   0.00000  Uiso   1.00
Cu866  Cu    0.22623   0.83895   0.75565   0.00000  Uiso   1.00
H867   H     0.31665   0.86123   0.59738   0.00000  Uiso   1.00
H868   H     0.23496   0.67987   0.75769   0.00000  Uiso   1.00
H869   H     0.15591   0.92814   0.64233   0.00000  Uiso   1.00
H870   H     0.17001   0.95291   0.57853   0.00000  Uiso   1.00
H871   H     0.09395   0.94498   0.61814   0.00000  Uiso   1.00
H872   H     0.09449   0.87623   0.55335   0.00000  Uiso   1.00
H873   H     0.08156   0.84664   0.61362   0.00000  Uiso   1.00
H874   H     0.25763   0.71729   0.93095   0.00000  Uiso   1.00
H875   H     0.18221   0.69531   0.91431   0.00000  Uiso   1.00
H876   H     0.24972   0.68234   0.87088   0.00000  Uiso   1.00
H877   H     0.20691   0.75353   0.84499   0.00000  Uiso   1.00
H878   H     0.09828   0.98680   0.74266   0.00000  Uiso   1.00
H879   H     0.28660   0.77565   0.84935   0.00000  Uiso   1.00
H880   H     0.00364   0.87292   0.78988   0.00000  Uiso   1.00
H881   H     0.32966   0.79369   0.71017   0.00000  Uiso   1.00
H882   H     0.31734   0.83660   0.92188   0.00000  Uiso   1.00
H883   H     0.01304   0.86522   0.50409   0.00000  Uiso   1.00
H884   H     0.02350   0.76238   0.89421   0.00000  Uiso   1.00
H885   H     0.06591   0.78054   0.54478   0.00000  Uiso   1.00
H886   H     0.32615   0.74581   0.98747   0.00000  Uiso   1.00
N887   N     0.31574   0.84741   0.76416   0.00000  Uiso   1.00
N888   N     0.01759   0.81926   0.73584   0.00000  Uiso   1.00
O889   O     0.12797   0.90474   0.74633   0.00000  Uiso   1.00
O890   O     0.22858   0.91422   0.75587   0.00000  Uiso   1.00
O891   O     0.09181   0.82627   0.81840   0.00000  Uiso   1.00
O892   O     0.19242   0.83575   0.82793   0.00000  Uiso   1.00
O893   O     0.10476   0.75245   0.74414   0.00000  Uiso   1.00
O894   O     0.20536   0.76193   0.75367   0.00000  Uiso   1.00
O895   O     0.14092   0.83092   0.67207   0.00000  Uiso   1.00
O896   O     0.24152   0.84040   0.68160   0.00000  Uiso   1.00
C897   C     0.51500   0.93333   0.75174   0.00000  Uiso   1.00
C898   C     0.44992   0.80195   0.89877   0.00000  Uiso   1.00
C899   C     0.52333   0.98936   0.75273   0.00000  Uiso   1.00
C900   C     0.46686   0.82164   0.84559   0.00000  Uiso   1.00
C901   C     0.47659   0.67731   0.74757   0.00000  Uiso   1.00
C902   C     0.48497   0.73333   0.74835   0.00000  Uiso   1.00
C903   C     0.53314   0.84009   0.65326   0.00000  Uiso   1.00
C904   C     0.63104   0.85721   0.52146   0.00000  Uiso   1.00
C905   C     0.55157   0.84781   0.59768   0.00000  Uiso   1.00
C906   C     0.38985   0.77562   0.91908   0.00000  Uiso   1.00
C907   C     0.37272   0.76630   0.97155   0.00000  Uiso   1.00
C908   C     0.47633   0.81137   0.98375   0.00000  Uiso   1.00
C909   C     0.41462   0.78660   0.50418   0.00000  Uiso   1.00
C910   C     0.45058   0.87172   0.58557   0.00000  Uiso   1.00
C911   C     0.46901   0.92774   0.60757   0.00000  Uiso   1.00
C912   C     0.57253   0.76328   0.87216   0.00000  Uiso   1.00
C913   C     0.56535   0.71154   0.89882   0.00000  Uiso   1.00
C914   C     0.49515   0.80827   0.93028   0.00000  Uiso   1.00
C915   C     0.52168   0.83303   0.51432   0.00000  Uiso   1.00
C916   C     0.58528   0.84209   0.99127   0.00000  Uiso   1.00
C917   C     0.60239   0.83079   0.93925   0.00000  Uiso   1.00
C918   C     0.55749   0.80649   0.91081   0.00000  Uiso   1.00
C919   C     0.50662   0.84691   0.56668   0.00000  Uiso   1.00
C920   C     0.61421   0.85581   0.57449   0.00000  Uiso   1.00
Cu921  Cu    0.44043   0.82772   0.74436   0.00000  Uiso   1.00
Cu922  Cu    0.55957   0.83895   0.75565   0.00000  Uiso   1.00
H923   H     0.64998   0.86123   0.59738   0.00000  Uiso   1.00
H924   H     0.56830   0.67987   0.75769   0.00000  Uiso   1.00
H925   H     0.48924   0.92814   0.64233   0.00000  Uiso   1.00
H926   H     0.50334   0.95291   0.57853   0.00000  Uiso   1.00
H927   H     0.42729   0.94498   0.61814   0.00000  Uiso   1.00
H928   H     0.42782   0.87623   0.55335   0.00000  Uiso   1.00
H929   H     0.41490   0.84664   0.61362   0.00000  Uiso   1.00
H930   H     0.59096   0.71729   0.93095   0.00000  Uiso   1.00
H931   H     0.51555   0.69531   0.91431   0.00000  Uiso   1.00
H932   H     0.58306   0.68234   0.87088   0.00000  Uiso   1.00
H933   H     0.54024   0.75353   0.84499   0.00000  Uiso   1.00
H934   H     0.43161   0.98680   0.74266   0.00000  Uiso   1.00
H935   H     0.61993   0.77565   0.84935   0.00000  Uiso   1.00
H936   H     0.33697   0.87292   0.78988   0.00000  Uiso   1.00
H937   H     0.66299   0.79369   0.71017   0.00000  Uiso   1.00
H938   H     0.65068   0.83660   0.92188   0.00000  Uiso   1.00
H939   H     0.34637   0.86522   0.50409   0.00000  Uiso   1.00
H940   H     0.35683   0.76238   0.89421   0.00000  Uiso   1.00
H941   H     0.39925   0.78054   0.54478   0.00000  Uiso   1.00
H942   H     0.65948   0.74581   0.98747   0.00000  Uiso   1.00
N943   N     0.64908   0.84741   0.76416   0.00000  Uiso   1.00
N944   N     0.35092   0.81926   0.73584   0.00000  Uiso   1.00
O945   O     0.46131   0.90474   0.74633   0.00000  Uiso   1.00
O946   O     0.56191   0.91422   0.75587   0.00000  Uiso   1.00
O947   O     0.42515   0.82627   0.81840   0.00000  Uiso   1.00
O948   O     0.52575   0.83575   0.82793   0.00000  Uiso   1.00
O949   O     0.43809   0.75245   0.74414   0.00000  Uiso   1.00
O950   O     0.53869   0.76193   0.75367   0.00000  Uiso   1.00
O951   O     0.47425   0.83092   0.67207   0.00000  Uiso   1.00
O952   O     0.57485   0.84040   0.68160   0.00000  Uiso   1.00
C953   C     0.84834   0.93333   0.75174   0.00000  Uiso   1.00
C954   C     0.78325   0.80195   0.89877   0.00000  Uiso   1.00
C955   C     0.85666   0.98936   0.75273   0.00000  Uiso   1.00
C956   C     0.80020   0.82164   0.84559   0.00000  Uiso   1.00
C957   C     0.80992   0.67731   0.74757   0.00000  Uiso   1.00
C958   C     0.81831   0.73333   0.74835   0.00000  Uiso   1.00
C959   C     0.86648   0.84009   0.65326   0.00000  Uiso   1.00
C960   C     0.96437   0.85721   0.52146   0.00000  Uiso   1.00
C961   C     0.88491   0.84781   0.59768   0.00000  Uiso   1.00
C962   C     0.72318   0.77562   0.91908   0.00000  Uiso   1.00
C963   C     0.70606   0.76630   0.97155   0.00000  Uiso   1.00
C964   C     0.80966   0.81137   0.98375   0.00000  Uiso   1.00
C965   C     0.74795   0.78660   0.50418   0.00000  Uiso   1.00
C966   C     0.78391   0.87172   0.58557   0.00000  Uiso   1.00
C967   C     0.80234   0.92774   0.60757   0.00000  Uiso   1.00
C968   C     0.90586   0.76328   0.87216   0.00000  Uiso   1.00
C969   C     0.89868   0.71154   0.89882   0.00000  Uiso   1.00
C970   C     0.82848   0.80827   0.93028   0.00000  Uiso   1.00
C971   C     0.85501   0.83303   0.51432   0.00000  Uiso   1.00
C972   C     0.91861   0.84209   0.99127   0.00000  Uiso   1.00
C973   C     0.93573   0.83079   0.93925   0.00000  Uiso   1.00
C974   C     0.89082   0.80649   0.91081   0.00000  Uiso   1.00
C975   C     0.83995   0.84691   0.56668   0.00000  Uiso   1.00
C976   C     0.94755   0.85581   0.57449   0.00000  Uiso   1.00
Cu977  Cu    0.77377   0.82772   0.74436   0.00000  Uiso   1.00
Cu978  Cu    0.89290   0.83895   0.75565   0.00000  Uiso   1.00
H979   H     0.98331   0.86123   0.59738   0.00000  Uiso   1.00
H980   H     0.90163   0.67987   0.75769   0.00000  Uiso   1.00
H981   H     0.82258   0.92814   0.64233   0.00000  Uiso   1.00
H982   H     0.83667   0.95291   0.57853   0.00000  Uiso   1.00
H983   H     0.76062   0.94498   0.61814   0.00000  Uiso   1.00
H984   H     0.76116   0.87623   0.55335   0.00000  Uiso   1.00
H985   H     0.74823   0.84664   0.61362   0.00000  Uiso   1.00
H986   H     0.92429   0.71729   0.93095   0.00000  Uiso   1.00
H987   H     0.84888   0.69531   0.91431   0.00000  Uiso   1.00
H988   H     0.91639   0.68234   0.87088   0.00000  Uiso   1.00
H989   H     0.87358   0.75353   0.84499   0.00000  Uiso   1.00
H990   H     0.76495   0.98680   0.74266   0.00000  Uiso   1.00
H991   H     0.95327   0.77565   0.84935   0.00000  Uiso   1.00
H992   H     0.67030   0.87292   0.78988   0.00000  Uiso   1.00
H993   H     0.99633   0.79369   0.71017   0.00000  Uiso   1.00
H994   H     0.98401   0.83660   0.92188   0.00000  Uiso   1.00
H995   H     0.67970   0.86522   0.50409   0.00000  Uiso   1.00
H996   H     0.69017   0.76238   0.89421   0.00000  Uiso   1.00
H997   H     0.73258   0.78054   0.54478   0.00000  Uiso   1.00
H998   H     0.99281   0.74581   0.98747   0.00000  Uiso   1.00
N999   N     0.98241   0.84741   0.76416   0.00000  Uiso   1.00
N1000  N     0.68426   0.81926   0.73584   0.00000  Uiso   1.00
O1001  O     0.79464   0.90474   0.74633   0.00000  Uiso   1.00
O1002  O     0.89524   0.91422   0.75587   0.00000  Uiso   1.00
O1003  O     0.75848   0.82627   0.81840   0.00000  Uiso   1.00
O1004  O     0.85908   0.83575   0.82793   0.00000  Uiso   1.00
O1005  O     0.77142   0.75245   0.74414   0.00000  Uiso   1.00
O1006  O     0.87203   0.76193   0.75367   0.00000  Uiso   1.00
O1007  O     0.80758   0.83092   0.67207   0.00000  Uiso   1.00
O1008  O     0.90819   0.84040   0.68160   0.00000  Uiso   1.00
loop_
_geom_bond_atom_site_label_1
_geom_bond_atom_site_label_2
_geom_bond_distance
_geom_bond_site_symmetry_2
_ccdc_geom_bond_type
C1     O50     1.291   .     A
C1     O49     1.296   .     A
C1     C3      1.428   .     S
C2     C4      1.490   .     S
C2     C18     1.417   .     A
C2     C10     1.392   .     A
C3     C173    1.329   .     S
C3     H196    1.088   .     S
C4     O52     1.294   .     A
C4     O51     1.323   .     A
C5     C6      1.427   .     S
C5     C339    1.329   1_545 S
C5     H374    1.088   1_545 S
C6     O53     1.291   .     A
C6     O54     1.296   .     A
C7     O55     1.296   .     A
C7     O56     1.313   .     A
C7     C9      1.473   .     S
C8     C24     1.391   .     A
C8     C524    1.399   1_554 S
C8     H99     1.082   .     S
C9     C24     1.400   .     A
C9     C23     1.421   .     A
C10    C11     1.399   .     A
C10    H44     1.074   .     S
C11    C517    1.398   .     S
C11    H158    1.081   1_455 S
C12    C18     1.407   .     A
C12    C517    1.411   .     S
C12    C523    1.422   .     S
C13    H45     1.081   .     S
C13    C516    1.411   1_554 S
C13    C515    1.398   1_554 S
C14    C23     1.529   .     S
C14    H33     1.108   .     S
C14    C15     1.531   .     S
C14    H32     1.107   .     S
C15    H31     1.111   .     S
C15    H29     1.108   .     S
C15    H30     1.111   .     S
C16    H37     1.101   .     S
C16    H39     1.110   .     S
C16    C22     1.522   .     S
C16    C17     1.529   .     S
C17    H36     1.111   .     S
C17    H34     1.106   .     S
C17    H35     1.111   .     S
C18    C22     1.408   .     A
C19    C23     1.412   .     A
C19    C516    1.422   1_554 S
C19    C524    1.417   1_554 S
C20    C21     1.394   .     A
C20    C523    1.417   .     S
C20    C512    1.399   .     S
C21    C22     1.392   .     A
C21    H42     1.076   .     S
C24    H27     1.081   .     S
Cu25   O51     1.937   .     S
Cu25   O55     1.929   .     S
Cu25   N48     2.032   .     S
Cu25   O53     1.949   .     S
Cu25   O49     1.953   .     S
Cu25   Cu26    2.705   .     S
Cu26   O52     1.929   .     S
Cu26   N47     2.032   .     S
Cu26   O50     1.949   .     S
Cu26   O54     1.953   .     S
Cu26   O56     1.937   .     S
H28    C339    1.088   1_545 S
H38    C173    1.088   .     S
H40    N159    1.029   1_455 S
H41    N104    1.029   .     S
H43    C120    1.082   1_455 S
H46    C67     1.081   .     S
N47    H96     1.029   .     S
N47    N104    1.299   .     S
N48    N159    1.299   1_455 S
N48    H153    1.029   1_455 S
C57    O106    1.291   .     A
C57    O105    1.296   .     A
C57    C59     1.428   .     S
C58    C60     1.490   .     S
C58    C74     1.417   .     A
C58    C66     1.392   .     A
C59    C229    1.329   .     S
C59    H252    1.088   .     S
C60    O108    1.294   .     A
C60    O107    1.323   .     A
C61    C62     1.427   .     S
C61    C395    1.329   1_545 S
C61    H430    1.088   1_545 S
C62    O109    1.291   .     A
C62    O110    1.296   .     A
C63    O111    1.296   .     A
C63    O112    1.313   .     A
C63    C65     1.473   .     S
C64    C80     1.391   .     A
C64    C580    1.399   1_554 S
C64    H155    1.082   .     S
C65    C80     1.400   .     A
C65    C79     1.421   .     A
C66    C67     1.399   .     A
C66    H100    1.074   .     S
C67    C573    1.398   .     S
C68    C74     1.407   .     A
C68    C573    1.411   .     S
C68    C579    1.422   .     S
C69    H101    1.081   .     S
C69    C572    1.411   1_554 S
C69    C571    1.398   1_554 S
C70    C79     1.529   .     S
C70    H89     1.108   .     S
C70    C71     1.531   .     S
C70    H88     1.107   .     S
C71    H87     1.111   .     S
C71    H85     1.108   .     S
C71    H86     1.111   .     S
C72    H93     1.101   .     S
C72    H95     1.110   .     S
C72    C78     1.522   .     S
C72    C73     1.529   .     S
C73    H92     1.111   .     S
C73    H90     1.106   .     S
C73    H91     1.111   .     S
C74    C78     1.408   .     A
C75    C79     1.412   .     A
C75    C572    1.422   1_554 S
C75    C580    1.417   1_554 S
C76    C77     1.394   .     A
C76    C579    1.417   .     S
C76    C568    1.399   .     S
C77    C78     1.392   .     A
C77    H98     1.076   .     S
C80    H83     1.081   .     S
Cu81   O107    1.937   .     S
Cu81   O111    1.929   .     S
Cu81   N104    2.032   .     S
Cu81   O109    1.949   .     S
Cu81   O105    1.953   .     S
Cu81   Cu82    2.705   .     S
Cu82   O108    1.929   .     S
Cu82   N103    2.032   .     S
Cu82   O106    1.949   .     S
Cu82   O110    1.953   .     S
Cu82   O112    1.937   .     S
H84    C395    1.088   1_545 S
H94    C229    1.088   .     S
H97    N160    1.029   .     S
H102   C123    1.081   .     S
N103   H152    1.029   .     S
N103   N160    1.299   .     S
C113   O162    1.291   .     A
C113   O161    1.296   .     A
C113   C115    1.428   .     S
C114   C116    1.490   .     S
C114   C130    1.417   .     A
C114   C122    1.392   .     A
C115   C285    1.329   .     S
C115   H308    1.088   .     S
C116   O164    1.294   .     A
C116   O163    1.323   .     A
C117   C118    1.427   .     S
C117   C451    1.329   1_545 S
C117   H486    1.088   1_545 S
C118   O165    1.291   .     A
C118   O166    1.296   .     A
C119   O167    1.296   .     A
C119   O168    1.313   .     A
C119   C121    1.473   .     S
C120   C136    1.391   .     A
C120   C636    1.399   1_554 S
C120   H43     1.082   1_655 S
C121   C136    1.400   .     A
C121   C135    1.421   .     A
C122   C123    1.399   .     A
C122   H156    1.074   .     S
C123   C629    1.398   .     S
C124   C130    1.407   .     A
C124   C629    1.411   .     S
C124   C635    1.422   .     S
C125   H157    1.081   .     S
C125   C628    1.411   1_554 S
C125   C627    1.398   1_554 S
C126   C135    1.529   .     S
C126   H145    1.108   .     S
C126   C127    1.531   .     S
C126   H144    1.107   .     S
C127   H143    1.111   .     S
C127   H141    1.108   .     S
C127   H142    1.111   .     S
C128   H149    1.101   .     S
C128   H151    1.110   .     S
C128   C134    1.522   .     S
C128   C129    1.529   .     S
C129   H148    1.111   .     S
C129   H146    1.106   .     S
C129   H147    1.111   .     S
C130   C134    1.408   .     A
C131   C135    1.412   .     A
C131   C628    1.422   1_554 S
C131   C636    1.417   1_554 S
C132   C133    1.394   .     A
C132   C635    1.417   .     S
C132   C624    1.399   .     S
C133   C134    1.392   .     A
C133   H154    1.076   .     S
C136   H139    1.081   .     S
Cu137  O163    1.937   .     S
Cu137  O167    1.929   .     S
Cu137  N160    2.032   .     S
Cu137  O165    1.949   .     S
Cu137  O161    1.953   .     S
Cu137  Cu138   2.705   .     S
Cu138  O164    1.929   .     S
Cu138  N159    2.032   .     S
Cu138  O162    1.949   .     S
Cu138  O166    1.953   .     S
Cu138  O168    1.937   .     S
H140   C451    1.088   1_545 S
H150   C285    1.088   .     S
H153   N48     1.029   1_655 S
H158   C11     1.081   1_655 S
N159   H40     1.029   1_655 S
N159   N48     1.299   1_655 S
C169   O218    1.291   .     A
C169   O217    1.296   .     A
C169   C171    1.428   .     S
C170   C172    1.490   .     S
C170   C186    1.417   .     A
C170   C178    1.392   .     A
C171   C341    1.329   .     S
C171   H364    1.088   .     S
C172   O220    1.294   .     A
C172   O219    1.323   .     A
C173   C174    1.427   .     S
C174   O221    1.291   .     A
C174   O222    1.296   .     A
C175   O223    1.296   .     A
C175   O224    1.313   .     A
C175   C177    1.473   .     S
C176   C192    1.391   .     A
C176   C692    1.399   1_554 S
C176   H267    1.082   .     S
C177   C192    1.400   .     A
C177   C191    1.421   .     A
C178   C179    1.399   .     A
C178   H212    1.074   .     S
C179   C685    1.398   .     S
C179   H326    1.081   1_455 S
C180   C186    1.407   .     A
C180   C685    1.411   .     S
C180   C691    1.422   .     S
C181   H213    1.081   .     S
C181   C684    1.411   1_554 S
C181   C683    1.398   1_554 S
C182   C191    1.529   .     S
C182   H201    1.108   .     S
C182   C183    1.531   .     S
C182   H200    1.107   .     S
C183   H199    1.111   .     S
C183   H197    1.108   .     S
C183   H198    1.111   .     S
C184   H205    1.101   .     S
C184   H207    1.110   .     S
C184   C190    1.522   .     S
C184   C185    1.529   .     S
C185   H204    1.111   .     S
C185   H202    1.106   .     S
C185   H203    1.111   .     S
C186   C190    1.408   .     A
C187   C191    1.412   .     A
C187   C684    1.422   1_554 S
C187   C692    1.417   1_554 S
C188   C189    1.394   .     A
C188   C691    1.417   .     S
C188   C680    1.399   .     S
C189   C190    1.392   .     A
C189   H210    1.076   .     S
C192   H195    1.081   .     S
Cu193  O219    1.937   .     S
Cu193  O223    1.929   .     S
Cu193  N216    2.032   .     S
Cu193  O221    1.949   .     S
Cu193  O217    1.953   .     S
Cu193  Cu194   2.705   .     S
Cu194  O220    1.929   .     S
Cu194  N215    2.032   .     S
Cu194  O218    1.949   .     S
Cu194  O222    1.953   .     S
Cu194  O224    1.937   .     S
H206   C341    1.088   .     S
H208   N327    1.029   1_455 S
H209   N272    1.029   .     S
H211   C288    1.082   1_455 S
H214   C235    1.081   .     S
N215   H264    1.029   .     S
N215   N272    1.299   .     S
N216   N327    1.299   1_455 S
N216   H321    1.029   1_455 S
C225   O274    1.291   .     A
C225   O273    1.296   .     A
C225   C227    1.428   .     S
C226   C228    1.490   .     S
C226   C242    1.417   .     A
C226   C234    1.392   .     A
C227   C397    1.329   .     S
C227   H420    1.088   .     S
C228   O276    1.294   .     A
C228   O275    1.323   .     A
C229   C230    1.427   .     S
C230   O277    1.291   .     A
C230   O278    1.296   .     A
C231   O279    1.296   .     A
C231   O280    1.313   .     A
C231   C233    1.473   .     S
C232   C248    1.391   .     A
C232   C748    1.399   1_554 S
C232   H323    1.082   .     S
C233   C248    1.400   .     A
C233   C247    1.421   .     A
C234   C235    1.399   .     A
C234   H268    1.074   .     S
C235   C741    1.398   .     S
C236   C242    1.407   .     A
C236   C741    1.411   .     S
C236   C747    1.422   .     S
C237   H269    1.081   .     S
C237   C740    1.411   1_554 S
C237   C739    1.398   1_554 S
C238   C247    1.529   .     S
C238   H257    1.108   .     S
C238   C239    1.531   .     S
C238   H256    1.107   .     S
C239   H255    1.111   .     S
C239   H253    1.108   .     S
C239   H254    1.111   .     S
C240   H261    1.101   .     S
C240   H263    1.110   .     S
C240   C246    1.522   .     S
C240   C241    1.529   .     S
C241   H260    1.111   .     S
C241   H258    1.106   .     S
C241   H259    1.111   .     S
C242   C246    1.408   .     A
C243   C247    1.412   .     A
C243   C740    1.422   1_554 S
C243   C748    1.417   1_554 S
C244   C245    1.394   .     A
C244   C747    1.417   .     S
C244   C736    1.399   .     S
C245   C246    1.392   .     A
C245   H266    1.076   .     S
C248   H251    1.081   .     S
Cu249  O275    1.937   .     S
Cu249  O279    1.929   .     S
Cu249  N272    2.032   .     S
Cu249  O277    1.949   .     S
Cu249  O273    1.953   .     S
Cu249  Cu250   2.705   .     S
Cu250  O276    1.929   .     S
Cu250  N271    2.032   .     S
Cu250  O274    1.949   .     S
Cu250  O278    1.953   .     S
Cu250  O280    1.937   .     S
H262   C397    1.088   .     S
H265   N328    1.029   .     S
H270   C291    1.081   .     S
N271   H320    1.029   .     S
N271   N328    1.299   .     S
C281   O330    1.291   .     A
C281   O329    1.296   .     A
C281   C283    1.428   .     S
C282   C284    1.490   .     S
C282   C298    1.417   .     A
C282   C290    1.392   .     A
C283   C453    1.329   .     S
C283   H476    1.088   .     S
C284   O332    1.294   .     A
C284   O331    1.323   .     A
C285   C286    1.427   .     S
C286   O333    1.291   .     A
C286   O334    1.296   .     A
C287   O335    1.296   .     A
C287   O336    1.313   .     A
C287   C289    1.473   .     S
C288   C304    1.391   .     A
C288   C804    1.399   1_554 S
C288   H211    1.082   1_655 S
C289   C304    1.400   .     A
C289   C303    1.421   .     A
C290   C291    1.399   .     A
C290   H324    1.074   .     S
C291   C797    1.398   .     S
C292   C298    1.407   .     A
C292   C797    1.411   .     S
C292   C803    1.422   .     S
C293   H325    1.081   .     S
C293   C796    1.411   1_554 S
C293   C795    1.398   1_554 S
C294   C303    1.529   .     S
C294   H313    1.108   .     S
C294   C295    1.531   .     S
C294   H312    1.107   .     S
C295   H311    1.111   .     S
C295   H309    1.108   .     S
C295   H310    1.111   .     S
C296   H317    1.101   .     S
C296   H319    1.110   .     S
C296   C302    1.522   .     S
C296   C297    1.529   .     S
C297   H316    1.111   .     S
C297   H314    1.106   .     S
C297   H315    1.111   .     S
C298   C302    1.408   .     A
C299   C303    1.412   .     A
C299   C796    1.422   1_554 S
C299   C804    1.417   1_554 S
C300   C301    1.394   .     A
C300   C803    1.417   .     S
C300   C792    1.399   .     S
C301   C302    1.392   .     A
C301   H322    1.076   .     S
C304   H307    1.081   .     S
Cu305  O331    1.937   .     S
Cu305  O335    1.929   .     S
Cu305  N328    2.032   .     S
Cu305  O333    1.949   .     S
Cu305  O329    1.953   .     S
Cu305  Cu306   2.705   .     S
Cu306  O332    1.929   .     S
Cu306  N327    2.032   .     S
Cu306  O330    1.949   .     S
Cu306  O334    1.953   .     S
Cu306  O336    1.937   .     S
H318   C453    1.088   .     S
H321   N216    1.029   1_655 S
H326   C179    1.081   1_655 S
N327   H208    1.029   1_655 S
N327   N216    1.299   1_655 S
C337   O386    1.291   .     A
C337   O385    1.296   .     A
C337   C339    1.428   .     S
C338   C340    1.490   .     S
C338   C354    1.417   .     A
C338   C346    1.392   .     A
C339   C5      1.329   1_565 S
C339   H28     1.088   1_565 S
C340   O388    1.294   .     A
C340   O387    1.323   .     A
C341   C342    1.427   .     S
C342   O389    1.291   .     A
C342   O390    1.296   .     A
C343   O391    1.296   .     A
C343   O392    1.313   .     A
C343   C345    1.473   .     S
C344   C360    1.391   .     A
C344   C860    1.399   1_554 S
C344   H435    1.082   .     S
C345   C360    1.400   .     A
C345   C359    1.421   .     A
C346   C347    1.399   .     A
C346   H380    1.074   .     S
C347   C853    1.398   .     S
C347   H494    1.081   1_455 S
C348   C354    1.407   .     A
C348   C853    1.411   .     S
C348   C859    1.422   .     S
C349   H381    1.081   .     S
C349   C852    1.411   1_554 S
C349   C851    1.398   1_554 S
C350   C359    1.529   .     S
C350   H369    1.108   .     S
C350   C351    1.531   .     S
C350   H368    1.107   .     S
C351   H367    1.111   .     S
C351   H365    1.108   .     S
C351   H366    1.111   .     S
C352   H373    1.101   .     S
C352   H375    1.110   .     S
C352   C358    1.522   .     S
C352   C353    1.529   .     S
C353   H372    1.111   .     S
C353   H370    1.106   .     S
C353   H371    1.111   .     S
C354   C358    1.408   .     A
C355   C359    1.412   .     A
C355   C852    1.422   1_554 S
C355   C860    1.417   1_554 S
C356   C357    1.394   .     A
C356   C859    1.417   .     S
C356   C848    1.399   .     S
C357   C358    1.392   .     A
C357   H378    1.076   .     S
C360   H363    1.081   .     S
Cu361  O387    1.937   .     S
Cu361  O391    1.929   .     S
Cu361  N384    2.032   .     S
Cu361  O389    1.949   .     S
Cu361  O385    1.953   .     S
Cu361  Cu362   2.705   .     S
Cu362  O388    1.929   .     S
Cu362  N383    2.032   .     S
Cu362  O386    1.949   .     S
Cu362  O390    1.953   .     S
Cu362  O392    1.937   .     S
H374   C5      1.088   1_565 S
H376   N495    1.029   1_455 S
H377   N440    1.029   .     S
H379   C456    1.082   1_455 S
H382   C403    1.081   .     S
N383   H432    1.029   .     S
N383   N440    1.299   .     S
N384   N495    1.299   1_455 S
N384   H489    1.029   1_455 S
C393   O442    1.291   .     A
C393   O441    1.296   .     A
C393   C395    1.428   .     S
C394   C396    1.490   .     S
C394   C410    1.417   .     A
C394   C402    1.392   .     A
C395   C61     1.329   1_565 S
C395   H84     1.088   1_565 S
C396   O444    1.294   .     A
C396   O443    1.323   .     A
C397   C398    1.427   .     S
C398   O445    1.291   .     A
C398   O446    1.296   .     A
C399   O447    1.296   .     A
C399   O448    1.313   .     A
C399   C401    1.473   .     S
C400   C416    1.391   .     A
C400   C916    1.399   1_554 S
C400   H491    1.082   .     S
C401   C416    1.400   .     A
C401   C415    1.421   .     A
C402   C403    1.399   .     A
C402   H436    1.074   .     S
C403   C909    1.398   .     S
C404   C410    1.407   .     A
C404   C909    1.411   .     S
C404   C915    1.422   .     S
C405   H437    1.081   .     S
C405   C908    1.411   1_554 S
C405   C907    1.398   1_554 S
C406   C415    1.529   .     S
C406   H425    1.108   .     S
C406   C407    1.531   .     S
C406   H424    1.107   .     S
C407   H423    1.111   .     S
C407   H421    1.108   .     S
C407   H422    1.111   .     S
C408   H429    1.101   .     S
C408   H431    1.110   .     S
C408   C414    1.522   .     S
C408   C409    1.529   .     S
C409   H428    1.111   .     S
C409   H426    1.106   .     S
C409   H427    1.111   .     S
C410   C414    1.408   .     A
C411   C415    1.412   .     A
C411   C908    1.422   1_554 S
C411   C916    1.417   1_554 S
C412   C413    1.394   .     A
C412   C915    1.417   .     S
C412   C904    1.399   .     S
C413   C414    1.392   .     A
C413   H434    1.076   .     S
C416   H419    1.081   .     S
Cu417  O443    1.937   .     S
Cu417  O447    1.929   .     S
Cu417  N440    2.032   .     S
Cu417  O445    1.949   .     S
Cu417  O441    1.953   .     S
Cu417  Cu418   2.705   .     S
Cu418  O444    1.929   .     S
Cu418  N439    2.032   .     S
Cu418  O442    1.949   .     S
Cu418  O446    1.953   .     S
Cu418  O448    1.937   .     S
H430   C61     1.088   1_565 S
H433   N496    1.029   .     S
H438   C459    1.081   .     S
N439   H488    1.029   .     S
N439   N496    1.299   .     S
C449   O498    1.291   .     A
C449   O497    1.296   .     A
C449   C451    1.428   .     S
C450   C452    1.490   .     S
C450   C466    1.417   .     A
C450   C458    1.392   .     A
C451   C117    1.329   1_565 S
C451   H140    1.088   1_565 S
C452   O500    1.294   .     A
C452   O499    1.323   .     A
C453   C454    1.427   .     S
C454   O501    1.291   .     A
C454   O502    1.296   .     A
C455   O503    1.296   .     A
C455   O504    1.313   .     A
C455   C457    1.473   .     S
C456   C472    1.391   .     A
C456   C972    1.399   1_554 S
C456   H379    1.082   1_655 S
C457   C472    1.400   .     A
C457   C471    1.421   .     A
C458   C459    1.399   .     A
C458   H492    1.074   .     S
C459   C965    1.398   .     S
C460   C466    1.407   .     A
C460   C965    1.411   .     S
C460   C971    1.422   .     S
C461   H493    1.081   .     S
C461   C964    1.411   1_554 S
C461   C963    1.398   1_554 S
C462   C471    1.529   .     S
C462   H481    1.108   .     S
C462   C463    1.531   .     S
C462   H480    1.107   .     S
C463   H479    1.111   .     S
C463   H477    1.108   .     S
C463   H478    1.111   .     S
C464   H485    1.101   .     S
C464   H487    1.110   .     S
C464   C470    1.522   .     S
C464   C465    1.529   .     S
C465   H484    1.111   .     S
C465   H482    1.106   .     S
C465   H483    1.111   .     S
C466   C470    1.408   .     A
C467   C471    1.412   .     A
C467   C964    1.422   1_554 S
C467   C972    1.417   1_554 S
C468   C469    1.394   .     A
C468   C971    1.417   .     S
C468   C960    1.399   .     S
C469   C470    1.392   .     A
C469   H490    1.076   .     S
C472   H475    1.081   .     S
Cu473  O499    1.937   .     S
Cu473  O503    1.929   .     S
Cu473  N496    2.032   .     S
Cu473  O501    1.949   .     S
Cu473  O497    1.953   .     S
Cu473  Cu474   2.705   .     S
Cu474  O500    1.929   .     S
Cu474  N495    2.032   .     S
Cu474  O498    1.949   .     S
Cu474  O502    1.953   .     S
Cu474  O504    1.937   .     S
H486   C117    1.088   1_565 S
H489   N384    1.029   1_655 S
H494   C347    1.081   1_655 S
N495   H376    1.029   1_655 S
N495   N384    1.299   1_655 S
C505   O554    1.291   .     A
C505   O553    1.296   .     A
C505   C507    1.428   .     S
C506   C508    1.490   .     S
C506   C522    1.417   .     A
C506   C514    1.392   .     A
C507   C677    1.329   .     S
C507   H700    1.088   .     S
C508   O556    1.294   .     A
C508   O555    1.323   .     A
C509   C510    1.427   .     S
C509   C843    1.329   1_545 S
C509   H878    1.088   1_545 S
C510   O557    1.291   .     A
C510   O558    1.296   .     A
C511   O559    1.296   .     A
C511   O560    1.313   .     A
C511   C513    1.473   .     S
C512   C528    1.391   .     A
C512   H603    1.082   .     S
C513   C528    1.400   .     A
C513   C527    1.421   .     A
C514   C515    1.399   .     A
C514   H548    1.074   .     S
C515   C13     1.398   1_556 S
C515   H662    1.081   1_455 S
C516   C522    1.407   .     A
C516   C13     1.411   1_556 S
C516   C19     1.422   1_556 S
C517   H549    1.081   .     S
C518   C527    1.529   .     S
C518   H537    1.108   .     S
C518   C519    1.531   .     S
C518   H536    1.107   .     S
C519   H535    1.111   .     S
C519   H533    1.108   .     S
C519   H534    1.111   .     S
C520   H541    1.101   .     S
C520   H543    1.110   .     S
C520   C526    1.522   .     S
C520   C521    1.529   .     S
C521   H540    1.111   .     S
C521   H538    1.106   .     S
C521   H539    1.111   .     S
C522   C526    1.408   .     A
C523   C527    1.412   .     A
C524   C525    1.394   .     A
C524   C19     1.417   1_556 S
C524   C8      1.399   1_556 S
C525   C526    1.392   .     A
C525   H546    1.076   .     S
C528   H531    1.081   .     S
Cu529  O555    1.937   .     S
Cu529  O559    1.929   .     S
Cu529  N552    2.032   .     S
Cu529  O557    1.949   .     S
Cu529  O553    1.953   .     S
Cu529  Cu530   2.705   .     S
Cu530  O556    1.929   .     S
Cu530  N551    2.032   .     S
Cu530  O554    1.949   .     S
Cu530  O558    1.953   .     S
Cu530  O560    1.937   .     S
H532   C843    1.088   1_545 S
H542   C677    1.088   .     S
H544   N663    1.029   1_455 S
H545   N608    1.029   .     S
H547   C624    1.082   1_455 S
H550   C571    1.081   .     S
N551   H600    1.029   .     S
N551   N608    1.299   .     S
N552   N663    1.299   1_455 S
N552   H657    1.029   1_455 S
C561   O610    1.291   .     A
C561   O609    1.296   .     A
C561   C563    1.428   .     S
C562   C564    1.490   .     S
C562   C578    1.417   .     A
C562   C570    1.392   .     A
C563   C733    1.329   .     S
C563   H756    1.088   .     S
C564   O612    1.294   .     A
C564   O611    1.323   .     A
C565   C566    1.427   .     S
C565   C899    1.329   1_545 S
C565   H934    1.088   1_545 S
C566   O613    1.291   .     A
C566   O614    1.296   .     A
C567   O615    1.296   .     A
C567   O616    1.313   .     A
C567   C569    1.473   .     S
C568   C584    1.391   .     A
C568   H659    1.082   .     S
C569   C584    1.400   .     A
C569   C583    1.421   .     A
C570   C571    1.399   .     A
C570   H604    1.074   .     S
C571   C69     1.398   1_556 S
C572   C578    1.407   .     A
C572   C69     1.411   1_556 S
C572   C75     1.422   1_556 S
C573   H605    1.081   .     S
C574   C583    1.529   .     S
C574   H593    1.108   .     S
C574   C575    1.531   .     S
C574   H592    1.107   .     S
C575   H591    1.111   .     S
C575   H589    1.108   .     S
C575   H590    1.111   .     S
C576   H597    1.101   .     S
C576   H599    1.110   .     S
C576   C582    1.522   .     S
C576   C577    1.529   .     S
C577   H596    1.111   .     S
C577   H594    1.106   .     S
C577   H595    1.111   .     S
C578   C582    1.408   .     A
C579   C583    1.412   .     A
C580   C581    1.394   .     A
C580   C75     1.417   1_556 S
C580   C64     1.399   1_556 S
C581   C582    1.392   .     A
C581   H602    1.076   .     S
C584   H587    1.081   .     S
Cu585  O611    1.937   .     S
Cu585  O615    1.929   .     S
Cu585  N608    2.032   .     S
Cu585  O613    1.949   .     S
Cu585  O609    1.953   .     S
Cu585  Cu586   2.705   .     S
Cu586  O612    1.929   .     S
Cu586  N607    2.032   .     S
Cu586  O610    1.949   .     S
Cu586  O614    1.953   .     S
Cu586  O616    1.937   .     S
H588   C899    1.088   1_545 S
H598   C733    1.088   .     S
H601   N664    1.029   .     S
H606   C627    1.081   .     S
N607   H656    1.029   .     S
N607   N664    1.299   .     S
C617   O666    1.291   .     A
C617   O665    1.296   .     A
C617   C619    1.428   .     S
C618   C620    1.490   .     S
C618   C634    1.417   .     A
C618   C626    1.392   .     A
C619   C789    1.329   .     S
C619   H812    1.088   .     S
C620   O668    1.294   .     A
C620   O667    1.323   .     A
C621   C622    1.427   .     S
C621   C955    1.329   1_545 S
C621   H990    1.088   1_545 S
C622   O669    1.291   .     A
C622   O670    1.296   .     A
C623   O671    1.296   .     A
C623   O672    1.313   .     A
C623   C625    1.473   .     S
C624   C640    1.391   .     A
C624   H547    1.082   1_655 S
C625   C640    1.400   .     A
C625   C639    1.421   .     A
C626   C627    1.399   .     A
C626   H660    1.074   .     S
C627   C125    1.398   1_556 S
C628   C634    1.407   .     A
C628   C125    1.411   1_556 S
C628   C131    1.422   1_556 S
C629   H661    1.081   .     S
C630   C639    1.529   .     S
C630   H649    1.108   .     S
C630   C631    1.531   .     S
C630   H648    1.107   .     S
C631   H647    1.111   .     S
C631   H645    1.108   .     S
C631   H646    1.111   .     S
C632   H653    1.101   .     S
C632   H655    1.110   .     S
C632   C638    1.522   .     S
C632   C633    1.529   .     S
C633   H652    1.111   .     S
C633   H650    1.106   .     S
C633   H651    1.111   .     S
C634   C638    1.408   .     A
C635   C639    1.412   .     A
C636   C637    1.394   .     A
C636   C131    1.417   1_556 S
C636   C120    1.399   1_556 S
C637   C638    1.392   .     A
C637   H658    1.076   .     S
C640   H643    1.081   .     S
Cu641  O667    1.937   .     S
Cu641  O671    1.929   .     S
Cu641  N664    2.032   .     S
Cu641  O669    1.949   .     S
Cu641  O665    1.953   .     S
Cu641  Cu642   2.705   .     S
Cu642  O668    1.929   .     S
Cu642  N663    2.032   .     S
Cu642  O666    1.949   .     S
Cu642  O670    1.953   .     S
Cu642  O672    1.937   .     S
H644   C955    1.088   1_545 S
H654   C789    1.088   .     S
H657   N552    1.029   1_655 S
H662   C515    1.081   1_655 S
N663   H544    1.029   1_655 S
N663   N552    1.299   1_655 S
C673   O722    1.291   .     A
C673   O721    1.296   .     A
C673   C675    1.428   .     S
C674   C676    1.490   .     S
C674   C690    1.417   .     A
C674   C682    1.392   .     A
C675   C845    1.329   .     S
C675   H868    1.088   .     S
C676   O724    1.294   .     A
C676   O723    1.323   .     A
C677   C678    1.427   .     S
C678   O725    1.291   .     A
C678   O726    1.296   .     A
C679   O727    1.296   .     A
C679   O728    1.313   .     A
C679   C681    1.473   .     S
C680   C696    1.391   .     A
C680   H771    1.082   .     S
C681   C696    1.400   .     A
C681   C695    1.421   .     A
C682   C683    1.399   .     A
C682   H716    1.074   .     S
C683   C181    1.398   1_556 S
C683   H830    1.081   1_455 S
C684   C690    1.407   .     A
C684   C181    1.411   1_556 S
C684   C187    1.422   1_556 S
C685   H717    1.081   .     S
C686   C695    1.529   .     S
C686   H705    1.108   .     S
C686   C687    1.531   .     S
C686   H704    1.107   .     S
C687   H703    1.111   .     S
C687   H701    1.108   .     S
C687   H702    1.111   .     S
C688   H709    1.101   .     S
C688   H711    1.110   .     S
C688   C694    1.522   .     S
C688   C689    1.529   .     S
C689   H708    1.111   .     S
C689   H706    1.106   .     S
C689   H707    1.111   .     S
C690   C694    1.408   .     A
C691   C695    1.412   .     A
C692   C693    1.394   .     A
C692   C187    1.417   1_556 S
C692   C176    1.399   1_556 S
C693   C694    1.392   .     A
C693   H714    1.076   .     S
C696   H699    1.081   .     S
Cu697  O723    1.937   .     S
Cu697  O727    1.929   .     S
Cu697  N720    2.032   .     S
Cu697  O725    1.949   .     S
Cu697  O721    1.953   .     S
Cu697  Cu698   2.705   .     S
Cu698  O724    1.929   .     S
Cu698  N719    2.032   .     S
Cu698  O722    1.949   .     S
Cu698  O726    1.953   .     S
Cu698  O728    1.937   .     S
H710   C845    1.088   .     S
H712   N831    1.029   1_455 S
H713   N776    1.029   .     S
H715   C792    1.082   1_455 S
H718   C739    1.081   .     S
N719   H768    1.029   .     S
N719   N776    1.299   .     S
N720   N831    1.299   1_455 S
N720   H825    1.029   1_455 S
C729   O778    1.291   .     A
C729   O777    1.296   .     A
C729   C731    1.428   .     S
C730   C732    1.490   .     S
C730   C746    1.417   .     A
C730   C738    1.392   .     A
C731   C901    1.329   .     S
C731   H924    1.088   .     S
C732   O780    1.294   .     A
C732   O779    1.323   .     A
C733   C734    1.427   .     S
C734   O781    1.291   .     A
C734   O782    1.296   .     A
C735   O783    1.296   .     A
C735   O784    1.313   .     A
C735   C737    1.473   .     S
C736   C752    1.391   .     A
C736   H827    1.082   .     S
C737   C752    1.400   .     A
C737   C751    1.421   .     A
C738   C739    1.399   .     A
C738   H772    1.074   .     S
C739   C237    1.398   1_556 S
C740   C746    1.407   .     A
C740   C237    1.411   1_556 S
C740   C243    1.422   1_556 S
C741   H773    1.081   .     S
C742   C751    1.529   .     S
C742   H761    1.108   .     S
C742   C743    1.531   .     S
C742   H760    1.107   .     S
C743   H759    1.111   .     S
C743   H757    1.108   .     S
C743   H758    1.111   .     S
C744   H765    1.101   .     S
C744   H767    1.110   .     S
C744   C750    1.522   .     S
C744   C745    1.529   .     S
C745   H764    1.111   .     S
C745   H762    1.106   .     S
C745   H763    1.111   .     S
C746   C750    1.408   .     A
C747   C751    1.412   .     A
C748   C749    1.394   .     A
C748   C243    1.417   1_556 S
C748   C232    1.399   1_556 S
C749   C750    1.392   .     A
C749   H770    1.076   .     S
C752   H755    1.081   .     S
Cu753  O779    1.937   .     S
Cu753  O783    1.929   .     S
Cu753  N776    2.032   .     S
Cu753  O781    1.949   .     S
Cu753  O777    1.953   .     S
Cu753  Cu754   2.705   .     S
Cu754  O780    1.929   .     S
Cu754  N775    2.032   .     S
Cu754  O778    1.949   .     S
Cu754  O782    1.953   .     S
Cu754  O784    1.937   .     S
H766   C901    1.088   .     S
H769   N832    1.029   .     S
H774   C795    1.081   .     S
N775   H824    1.029   .     S
N775   N832    1.299   .     S
C785   O834    1.291   .     A
C785   O833    1.296   .     A
C785   C787    1.428   .     S
C786   C788    1.490   .     S
C786   C802    1.417   .     A
C786   C794    1.392   .     A
C787   C957    1.329   .     S
C787   H980    1.088   .     S
C788   O836    1.294   .     A
C788   O835    1.323   .     A
C789   C790    1.427   .     S
C790   O837    1.291   .     A
C790   O838    1.296   .     A
C791   O839    1.296   .     A
C791   O840    1.313   .     A
C791   C793    1.473   .     S
C792   C808    1.391   .     A
C792   H715    1.082   1_655 S
C793   C808    1.400   .     A
C793   C807    1.421   .     A
C794   C795    1.399   .     A
C794   H828    1.074   .     S
C795   C293    1.398   1_556 S
C796   C802    1.407   .     A
C796   C293    1.411   1_556 S
C796   C299    1.422   1_556 S
C797   H829    1.081   .     S
C798   C807    1.529   .     S
C798   H817    1.108   .     S
C798   C799    1.531   .     S
C798   H816    1.107   .     S
C799   H815    1.111   .     S
C799   H813    1.108   .     S
C799   H814    1.111   .     S
C800   H821    1.101   .     S
C800   H823    1.110   .     S
C800   C806    1.522   .     S
C800   C801    1.529   .     S
C801   H820    1.111   .     S
C801   H818    1.106   .     S
C801   H819    1.111   .     S
C802   C806    1.408   .     A
C803   C807    1.412   .     A
C804   C805    1.394   .     A
C804   C299    1.417   1_556 S
C804   C288    1.399   1_556 S
C805   C806    1.392   .     A
C805   H826    1.076   .     S
C808   H811    1.081   .     S
Cu809  O835    1.937   .     S
Cu809  O839    1.929   .     S
Cu809  N832    2.032   .     S
Cu809  O837    1.949   .     S
Cu809  O833    1.953   .     S
Cu809  Cu810   2.705   .     S
Cu810  O836    1.929   .     S
Cu810  N831    2.032   .     S
Cu810  O834    1.949   .     S
Cu810  O838    1.953   .     S
Cu810  O840    1.937   .     S
H822   C957    1.088   .     S
H825   N720    1.029   1_655 S
H830   C683    1.081   1_655 S
N831   H712    1.029   1_655 S
N831   N720    1.299   1_655 S
C841   O890    1.291   .     A
C841   O889    1.296   .     A
C841   C843    1.428   .     S
C842   C844    1.490   .     S
C842   C858    1.417   .     A
C842   C850    1.392   .     A
C843   C509    1.329   1_565 S
C843   H532    1.088   1_565 S
C844   O892    1.294   .     A
C844   O891    1.323   .     A
C845   C846    1.427   .     S
C846   O893    1.291   .     A
C846   O894    1.296   .     A
C847   O895    1.296   .     A
C847   O896    1.313   .     A
C847   C849    1.473   .     S
C848   C864    1.391   .     A
C848   H939    1.082   .     S
C849   C864    1.400   .     A
C849   C863    1.421   .     A
C850   C851    1.399   .     A
C850   H884    1.074   .     S
C851   C349    1.398   1_556 S
C851   H998    1.081   1_455 S
C852   C858    1.407   .     A
C852   C349    1.411   1_556 S
C852   C355    1.422   1_556 S
C853   H885    1.081   .     S
C854   C863    1.529   .     S
C854   H873    1.108   .     S
C854   C855    1.531   .     S
C854   H872    1.107   .     S
C855   H871    1.111   .     S
C855   H869    1.108   .     S
C855   H870    1.111   .     S
C856   H877    1.101   .     S
C856   H879    1.110   .     S
C856   C862    1.522   .     S
C856   C857    1.529   .     S
C857   H876    1.111   .     S
C857   H874    1.106   .     S
C857   H875    1.111   .     S
C858   C862    1.408   .     A
C859   C863    1.412   .     A
C860   C861    1.394   .     A
C860   C355    1.417   1_556 S
C860   C344    1.399   1_556 S
C861   C862    1.392   .     A
C861   H882    1.076   .     S
C864   H867    1.081   .     S
Cu865  O891    1.937   .     S
Cu865  O895    1.929   .     S
Cu865  N888    2.032   .     S
Cu865  O893    1.949   .     S
Cu865  O889    1.953   .     S
Cu865  Cu866   2.705   .     S
Cu866  O892    1.929   .     S
Cu866  N887    2.032   .     S
Cu866  O890    1.949   .     S
Cu866  O894    1.953   .     S
Cu866  O896    1.937   .     S
H878   C509    1.088   1_565 S
H880   N999    1.029   1_455 S
H881   N944    1.029   .     S
H883   C960    1.082   1_455 S
H886   C907    1.081   .     S
N887   H936    1.029   .     S
N887   N944    1.299   .     S
N888   N999    1.299   1_455 S
N888   H993    1.029   1_455 S
C897   O946    1.291   .     A
C897   O945    1.296   .     A
C897   C899    1.428   .     S
C898   C900    1.490   .     S
C898   C914    1.417   .     A
C898   C906    1.392   .     A
C899   C565    1.329   1_565 S
C899   H588    1.088   1_565 S
C900   O948    1.294   .     A
C900   O947    1.323   .     A
C901   C902    1.427   .     S
C902   O949    1.291   .     A
C902   O950    1.296   .     A
C903   O951    1.296   .     A
C903   O952    1.313   .     A
C903   C905    1.473   .     S
C904   C920    1.391   .     A
C904   H995    1.082   .     S
C905   C920    1.400   .     A
C905   C919    1.421   .     A
C906   C907    1.399   .     A
C906   H940    1.074   .     S
C907   C405    1.398   1_556 S
C908   C914    1.407   .     A
C908   C405    1.411   1_556 S
C908   C411    1.422   1_556 S
C909   H941    1.081   .     S
C910   C919    1.529   .     S
C910   H929    1.108   .     S
C910   C911    1.531   .     S
C910   H928    1.107   .     S
C911   H927    1.111   .     S
C911   H925    1.108   .     S
C911   H926    1.111   .     S
C912   H933    1.101   .     S
C912   H935    1.110   .     S
C912   C918    1.522   .     S
C912   C913    1.529   .     S
C913   H932    1.111   .     S
C913   H930    1.106   .     S
C913   H931    1.111   .     S
C914   C918    1.408   .     A
C915   C919    1.412   .     A
C916   C917    1.394   .     A
C916   C411    1.417   1_556 S
C916   C400    1.399   1_556 S
C917   C918    1.392   .     A
C917   H938    1.076   .     S
C920   H923    1.081   .     S
Cu921  O947    1.937   .     S
Cu921  O951    1.929   .     S
Cu921  N944    2.032   .     S
Cu921  O949    1.949   .     S
Cu921  O945    1.953   .     S
Cu921  Cu922   2.705   .     S
Cu922  O948    1.929   .     S
Cu922  N943    2.032   .     S
Cu922  O946    1.949   .     S
Cu922  O950    1.953   .     S
Cu922  O952    1.937   .     S
H934   C565    1.088   1_565 S
H937   N1000   1.029   .     S
H942   C963    1.081   .     S
N943   H992    1.029   .     S
N943   N1000   1.299   .     S
C953   O1002   1.291   .     A
C953   O1001   1.296   .     A
C953   C955    1.428   .     S
C954   C956    1.490   .     S
C954   C970    1.417   .     A
C954   C962    1.392   .     A
C955   C621    1.329   1_565 S
C955   H644    1.088   1_565 S
C956   O1004   1.294   .     A
C956   O1003   1.323   .     A
C957   C958    1.427   .     S
C958   O1005   1.291   .     A
C958   O1006   1.296   .     A
C959   O1007   1.296   .     A
C959   O1008   1.313   .     A
C959   C961    1.473   .     S
C960   C976    1.391   .     A
C960   H883    1.082   1_655 S
C961   C976    1.400   .     A
C961   C975    1.421   .     A
C962   C963    1.399   .     A
C962   H996    1.074   .     S
C963   C461    1.398   1_556 S
C964   C970    1.407   .     A
C964   C461    1.411   1_556 S
C964   C467    1.422   1_556 S
C965   H997    1.081   .     S
C966   C975    1.529   .     S
C966   H985    1.108   .     S
C966   C967    1.531   .     S
C966   H984    1.107   .     S
C967   H983    1.111   .     S
C967   H981    1.108   .     S
C967   H982    1.111   .     S
C968   H989    1.101   .     S
C968   H991    1.110   .     S
C968   C974    1.522   .     S
C968   C969    1.529   .     S
C969   H988    1.111   .     S
C969   H986    1.106   .     S
C969   H987    1.111   .     S
C970   C974    1.408   .     A
C971   C975    1.412   .     A
C972   C973    1.394   .     A
C972   C467    1.417   1_556 S
C972   C456    1.399   1_556 S
C973   C974    1.392   .     A
C973   H994    1.076   .     S
C976   H979    1.081   .     S
Cu977  O1003   1.937   .     S
Cu977  O1007   1.929   .     S
Cu977  N1000   2.032   .     S
Cu977  O1005   1.949   .     S
Cu977  O1001   1.953   .     S
Cu977  Cu978   2.705   .     S
Cu978  O1004   1.929   .     S
Cu978  N999    2.032   .     S
Cu978  O1002   1.949   .     S
Cu978  O1006   1.953   .     S
Cu978  O1008   1.937   .     S
H990   C621    1.088   1_565 S
H993   N888    1.029   1_655 S
H998   C851    1.081   1_655 S
N999   H880    1.029   1_655 S
N999   N888    1.299   1_655 S
