data_str_m2_o1_o5_pcu_sym.64
_audit_creation_date              2020-01-03
_audit_creation_method            'Materials Studio'
_symmetry_space_group_name_H-M    'P1'
_symmetry_Int_Tables_number       1
_symmetry_cell_setting            triclinic
loop_
_symmetry_equiv_pos_as_xyz
  x,y,z
_cell_length_a                    32.5827
_cell_length_b                    29.1262
_cell_length_c                    27.1357
_cell_angle_alpha                 90.5304
_cell_angle_beta                  100.6677
_cell_angle_gamma                 90.1089
loop_
_atom_site_label
_atom_site_type_symbol
_atom_site_fract_x
_atom_site_fract_y
_atom_site_fract_z
_atom_site_U_iso_or_equiv
_atom_site_adp_type
_atom_site_occupancy
C1     C     0.08809   0.16647   0.17069   0.00000  Uiso   1.00
C2     C     0.02149   0.20693   0.17389   0.00000  Uiso   1.00
C3     C     0.28938   0.16549   0.15643   0.00000  Uiso   1.00
C4     C     0.04345   0.16538   0.17433   0.00000  Uiso   1.00
C5     C     0.14002   0.02440   0.12891   0.00000  Uiso   1.00
C6     C     0.19498   0.30848   0.20221   0.00000  Uiso   1.00
C7     C     0.19439   0.02544   0.20320   0.00000  Uiso   1.00
C8     C     0.13890   0.30762   0.13051   0.00000  Uiso   1.00
C9     C     0.04385   0.07932   0.18519   0.00000  Uiso   1.00
C10    C     0.29219   0.24837   0.12941   0.00000  Uiso   1.00
C11    C     0.28843   0.07895   0.14666   0.00000  Uiso   1.00
C12    C     0.24511   0.16648   0.16207   0.00000  Uiso   1.00
C13    C     0.04094   0.24599   0.20507   0.00000  Uiso   1.00
C14    C     0.16687   0.16654   0.07373   0.00000  Uiso   1.00
C15    C     0.16620   0.16680   0.25955   0.00000  Uiso   1.00
C16    C     0.16666   0.16653   0.02189   0.00000  Uiso   1.00
C17    C     0.16639   0.16687   0.31138   0.00000  Uiso   1.00
C18    C     0.02150   0.12308   0.17095   0.00000  Uiso   1.00
C19    C     0.31167   0.20715   0.15659   0.00000  Uiso   1.00
C20    C     0.31109   0.12310   0.15928   0.00000  Uiso   1.00
Cu21   Cu    0.16667   0.21355   0.16667   0.00000  Uiso   1.00
Cu22   Cu    0.16667   0.11978   0.16667   0.00000  Uiso   1.00
H23    H     0.08482   0.04576   0.23754   0.00000  Uiso   1.00
H24    H     0.29757   0.31498   0.11267   0.00000  Uiso   1.00
H25    H     0.24617   0.04336   0.09683   0.00000  Uiso   1.00
H26    H     0.07588   0.30337   0.21062   0.00000  Uiso   1.00
H27    H     0.06292   0.10062   0.07994   0.00000  Uiso   1.00
H28    H     0.26613   0.21767   0.27871   0.00000  Uiso   1.00
H29    H     0.25286   0.12013   0.28886   0.00000  Uiso   1.00
H30    H     0.07067   0.21563   0.04932   0.00000  Uiso   1.00
N31    N     0.16667   0.28402   0.16667   0.00000  Uiso   1.00
N32    N     0.16667   0.04931   0.16667   0.00000  Uiso   1.00
O33    O     0.10655   0.20625   0.16666   0.00000  Uiso   1.00
O34    O     0.06965   0.07613   0.23234   0.00000  Uiso   1.00
O35    O     0.26095   0.24406   0.09683   0.00000  Uiso   1.00
O36    O     0.31152   0.29130   0.13728   0.00000  Uiso   1.00
O37    O     0.29239   0.04783   0.17703   0.00000  Uiso   1.00
O38    O     0.26146   0.07391   0.10041   0.00000  Uiso   1.00
O39    O     0.03855   0.24759   0.24949   0.00000  Uiso   1.00
O40    O     0.06215   0.28035   0.18452   0.00000  Uiso   1.00
O41    O     0.14470   0.05796   0.03820   0.00000  Uiso   1.00
O42    O     0.07632   0.02952   0.04003   0.00000  Uiso   1.00
O43    O     0.09288   0.10552   0.07901   0.00000  Uiso   1.00
O44    O     0.22679   0.12709   0.16667   0.00000  Uiso   1.00
O45    O     0.27656   0.29274   0.23341   0.00000  Uiso   1.00
O46    O     0.23335   0.29682   0.29886   0.00000  Uiso   1.00
O47    O     0.23954   0.22252   0.25488   0.00000  Uiso   1.00
O48    O     0.20395   0.05154   0.29992   0.00000  Uiso   1.00
O49    O     0.26928   0.03458   0.27285   0.00000  Uiso   1.00
O50    O     0.24021   0.11098   0.25408   0.00000  Uiso   1.00
O51    O     0.05877   0.29666   0.08521   0.00000  Uiso   1.00
O52    O     0.11279   0.28843   0.03271   0.00000  Uiso   1.00
O53    O     0.09262   0.22078   0.07939   0.00000  Uiso   1.00
O54    O     0.22679   0.20625   0.16667   0.00000  Uiso   1.00
O55    O     0.10655   0.12709   0.16666   0.00000  Uiso   1.00
O56    O     0.16667   0.20625   0.09613   0.00000  Uiso   1.00
O57    O     0.16667   0.12708   0.23720   0.00000  Uiso   1.00
O58    O     0.16667   0.20625   0.23720   0.00000  Uiso   1.00
O59    O     0.16667   0.12708   0.09613   0.00000  Uiso   1.00
O60    O     0.04051   0.04694   0.15570   0.00000  Uiso   1.00
S61    S     0.11286   0.05344   0.07149   0.00000  Uiso   1.00
S62    S     0.23554   0.27938   0.24711   0.00000  Uiso   1.00
S63    S     0.22706   0.05564   0.25706   0.00000  Uiso   1.00
S64    S     0.10112   0.27754   0.08245   0.00000  Uiso   1.00
C65    C     0.42142   0.16647   0.17069   0.00000  Uiso   1.00
C66    C     0.35483   0.20693   0.17389   0.00000  Uiso   1.00
C67    C     0.62271   0.16549   0.15643   0.00000  Uiso   1.00
C68    C     0.37678   0.16538   0.17433   0.00000  Uiso   1.00
C69    C     0.47335   0.02440   0.12891   0.00000  Uiso   1.00
C70    C     0.52831   0.30848   0.20221   0.00000  Uiso   1.00
C71    C     0.52773   0.02544   0.20320   0.00000  Uiso   1.00
C72    C     0.47224   0.30762   0.13051   0.00000  Uiso   1.00
C73    C     0.37719   0.07932   0.18519   0.00000  Uiso   1.00
C74    C     0.62552   0.24837   0.12941   0.00000  Uiso   1.00
C75    C     0.62177   0.07895   0.14666   0.00000  Uiso   1.00
C76    C     0.57844   0.16648   0.16207   0.00000  Uiso   1.00
C77    C     0.37427   0.24599   0.20507   0.00000  Uiso   1.00
C78    C     0.50020   0.16654   0.07373   0.00000  Uiso   1.00
C79    C     0.49953   0.16680   0.25955   0.00000  Uiso   1.00
C80    C     0.49999   0.16653   0.02189   0.00000  Uiso   1.00
C81    C     0.49972   0.16687   0.31138   0.00000  Uiso   1.00
C82    C     0.35483   0.12308   0.17095   0.00000  Uiso   1.00
C83    C     0.64500   0.20715   0.15659   0.00000  Uiso   1.00
C84    C     0.64442   0.12310   0.15928   0.00000  Uiso   1.00
Cu85   Cu    0.50000   0.21355   0.16667   0.00000  Uiso   1.00
Cu86   Cu    0.50000   0.11978   0.16667   0.00000  Uiso   1.00
H87    H     0.41815   0.04576   0.23754   0.00000  Uiso   1.00
H88    H     0.63090   0.31498   0.11267   0.00000  Uiso   1.00
H89    H     0.57951   0.04336   0.09683   0.00000  Uiso   1.00
H90    H     0.40922   0.30337   0.21062   0.00000  Uiso   1.00
H91    H     0.39626   0.10062   0.07994   0.00000  Uiso   1.00
H92    H     0.59946   0.21767   0.27871   0.00000  Uiso   1.00
H93    H     0.58620   0.12013   0.28886   0.00000  Uiso   1.00
H94    H     0.40400   0.21563   0.04932   0.00000  Uiso   1.00
N95    N     0.50000   0.28402   0.16667   0.00000  Uiso   1.00
N96    N     0.50000   0.04931   0.16667   0.00000  Uiso   1.00
O97    O     0.43988   0.20625   0.16666   0.00000  Uiso   1.00
O98    O     0.40298   0.07613   0.23234   0.00000  Uiso   1.00
O99    O     0.59428   0.24406   0.09683   0.00000  Uiso   1.00
O100   O     0.64485   0.29130   0.13728   0.00000  Uiso   1.00
O101   O     0.62572   0.04783   0.17703   0.00000  Uiso   1.00
O102   O     0.59479   0.07391   0.10041   0.00000  Uiso   1.00
O103   O     0.37188   0.24759   0.24949   0.00000  Uiso   1.00
O104   O     0.39548   0.28035   0.18452   0.00000  Uiso   1.00
O105   O     0.47804   0.05796   0.03820   0.00000  Uiso   1.00
O106   O     0.40965   0.02952   0.04003   0.00000  Uiso   1.00
O107   O     0.42621   0.10552   0.07901   0.00000  Uiso   1.00
O108   O     0.56012   0.12709   0.16667   0.00000  Uiso   1.00
O109   O     0.60989   0.29274   0.23341   0.00000  Uiso   1.00
O110   O     0.56669   0.29682   0.29886   0.00000  Uiso   1.00
O111   O     0.57288   0.22252   0.25488   0.00000  Uiso   1.00
O112   O     0.53728   0.05154   0.29992   0.00000  Uiso   1.00
O113   O     0.60262   0.03458   0.27285   0.00000  Uiso   1.00
O114   O     0.57355   0.11098   0.25408   0.00000  Uiso   1.00
O115   O     0.39210   0.29666   0.08521   0.00000  Uiso   1.00
O116   O     0.44613   0.28843   0.03271   0.00000  Uiso   1.00
O117   O     0.42595   0.22078   0.07939   0.00000  Uiso   1.00
O118   O     0.56012   0.20625   0.16667   0.00000  Uiso   1.00
O119   O     0.43988   0.12709   0.16666   0.00000  Uiso   1.00
O120   O     0.50000   0.20625   0.09613   0.00000  Uiso   1.00
O121   O     0.50000   0.12708   0.23720   0.00000  Uiso   1.00
O122   O     0.50000   0.20625   0.23720   0.00000  Uiso   1.00
O123   O     0.50000   0.12708   0.09613   0.00000  Uiso   1.00
O124   O     0.37385   0.04694   0.15570   0.00000  Uiso   1.00
S125   S     0.44619   0.05344   0.07149   0.00000  Uiso   1.00
S126   S     0.56888   0.27938   0.24711   0.00000  Uiso   1.00
S127   S     0.56039   0.05564   0.25706   0.00000  Uiso   1.00
S128   S     0.43446   0.27754   0.08245   0.00000  Uiso   1.00
C129   C     0.75476   0.16647   0.17069   0.00000  Uiso   1.00
C130   C     0.68816   0.20693   0.17389   0.00000  Uiso   1.00
C131   C     0.95605   0.16549   0.15643   0.00000  Uiso   1.00
C132   C     0.71011   0.16538   0.17433   0.00000  Uiso   1.00
C133   C     0.80668   0.02440   0.12891   0.00000  Uiso   1.00
C134   C     0.86165   0.30848   0.20221   0.00000  Uiso   1.00
C135   C     0.86106   0.02544   0.20320   0.00000  Uiso   1.00
C136   C     0.80557   0.30762   0.13051   0.00000  Uiso   1.00
C137   C     0.71052   0.07932   0.18519   0.00000  Uiso   1.00
C138   C     0.95886   0.24837   0.12941   0.00000  Uiso   1.00
C139   C     0.95510   0.07895   0.14666   0.00000  Uiso   1.00
C140   C     0.91177   0.16648   0.16207   0.00000  Uiso   1.00
C141   C     0.70761   0.24599   0.20507   0.00000  Uiso   1.00
C142   C     0.83354   0.16654   0.07373   0.00000  Uiso   1.00
C143   C     0.83287   0.16680   0.25955   0.00000  Uiso   1.00
C144   C     0.83332   0.16653   0.02189   0.00000  Uiso   1.00
C145   C     0.83305   0.16687   0.31138   0.00000  Uiso   1.00
C146   C     0.68817   0.12308   0.17095   0.00000  Uiso   1.00
C147   C     0.97834   0.20715   0.15659   0.00000  Uiso   1.00
C148   C     0.97775   0.12310   0.15928   0.00000  Uiso   1.00
Cu149  Cu    0.83333   0.21355   0.16667   0.00000  Uiso   1.00
Cu150  Cu    0.83333   0.11978   0.16667   0.00000  Uiso   1.00
H151   H     0.75149   0.04576   0.23754   0.00000  Uiso   1.00
H152   H     0.96423   0.31498   0.11267   0.00000  Uiso   1.00
H153   H     0.91284   0.04336   0.09683   0.00000  Uiso   1.00
H154   H     0.74255   0.30337   0.21062   0.00000  Uiso   1.00
H155   H     0.72959   0.10062   0.07994   0.00000  Uiso   1.00
H156   H     0.93280   0.21767   0.27871   0.00000  Uiso   1.00
H157   H     0.91953   0.12013   0.28886   0.00000  Uiso   1.00
H158   H     0.73733   0.21563   0.04932   0.00000  Uiso   1.00
N159   N     0.83333   0.28402   0.16667   0.00000  Uiso   1.00
N160   N     0.83333   0.04931   0.16667   0.00000  Uiso   1.00
O161   O     0.77321   0.20625   0.16666   0.00000  Uiso   1.00
O162   O     0.73631   0.07613   0.23234   0.00000  Uiso   1.00
O163   O     0.92762   0.24406   0.09683   0.00000  Uiso   1.00
O164   O     0.97818   0.29130   0.13728   0.00000  Uiso   1.00
O165   O     0.95905   0.04783   0.17703   0.00000  Uiso   1.00
O166   O     0.92812   0.07391   0.10041   0.00000  Uiso   1.00
O167   O     0.70522   0.24759   0.24949   0.00000  Uiso   1.00
O168   O     0.72881   0.28035   0.18452   0.00000  Uiso   1.00
O169   O     0.81137   0.05796   0.03820   0.00000  Uiso   1.00
O170   O     0.74298   0.02952   0.04003   0.00000  Uiso   1.00
O171   O     0.75955   0.10552   0.07901   0.00000  Uiso   1.00
O172   O     0.89345   0.12709   0.16667   0.00000  Uiso   1.00
O173   O     0.94322   0.29274   0.23341   0.00000  Uiso   1.00
O174   O     0.90002   0.29682   0.29886   0.00000  Uiso   1.00
O175   O     0.90621   0.22252   0.25488   0.00000  Uiso   1.00
O176   O     0.87061   0.05154   0.29992   0.00000  Uiso   1.00
O177   O     0.93595   0.03458   0.27285   0.00000  Uiso   1.00
O178   O     0.90688   0.11098   0.25408   0.00000  Uiso   1.00
O179   O     0.72543   0.29666   0.08521   0.00000  Uiso   1.00
O180   O     0.77946   0.28843   0.03271   0.00000  Uiso   1.00
O181   O     0.75929   0.22078   0.07939   0.00000  Uiso   1.00
O182   O     0.89345   0.20625   0.16667   0.00000  Uiso   1.00
O183   O     0.77321   0.12709   0.16666   0.00000  Uiso   1.00
O184   O     0.83333   0.20625   0.09613   0.00000  Uiso   1.00
O185   O     0.83333   0.12708   0.23720   0.00000  Uiso   1.00
O186   O     0.83333   0.20625   0.23720   0.00000  Uiso   1.00
O187   O     0.83333   0.12708   0.09613   0.00000  Uiso   1.00
O188   O     0.70718   0.04694   0.15570   0.00000  Uiso   1.00
S189   S     0.77953   0.05344   0.07149   0.00000  Uiso   1.00
S190   S     0.90221   0.27938   0.24711   0.00000  Uiso   1.00
S191   S     0.89372   0.05564   0.25706   0.00000  Uiso   1.00
S192   S     0.76779   0.27754   0.08245   0.00000  Uiso   1.00
C193   C     0.08809   0.49980   0.17069   0.00000  Uiso   1.00
C194   C     0.02149   0.54027   0.17389   0.00000  Uiso   1.00
C195   C     0.28938   0.49882   0.15643   0.00000  Uiso   1.00
C196   C     0.04345   0.49872   0.17433   0.00000  Uiso   1.00
C197   C     0.14002   0.35774   0.12891   0.00000  Uiso   1.00
C198   C     0.19498   0.64182   0.20221   0.00000  Uiso   1.00
C199   C     0.19439   0.35877   0.20320   0.00000  Uiso   1.00
C200   C     0.13890   0.64096   0.13051   0.00000  Uiso   1.00
C201   C     0.04385   0.41266   0.18519   0.00000  Uiso   1.00
C202   C     0.29219   0.58170   0.12941   0.00000  Uiso   1.00
C203   C     0.28843   0.41229   0.14666   0.00000  Uiso   1.00
C204   C     0.24511   0.49981   0.16207   0.00000  Uiso   1.00
C205   C     0.04094   0.57932   0.20507   0.00000  Uiso   1.00
C206   C     0.16687   0.49988   0.07373   0.00000  Uiso   1.00
C207   C     0.16620   0.50013   0.25955   0.00000  Uiso   1.00
C208   C     0.16666   0.49986   0.02189   0.00000  Uiso   1.00
C209   C     0.16639   0.50021   0.31138   0.00000  Uiso   1.00
C210   C     0.02150   0.45641   0.17095   0.00000  Uiso   1.00
C211   C     0.31167   0.54048   0.15659   0.00000  Uiso   1.00
C212   C     0.31109   0.45644   0.15928   0.00000  Uiso   1.00
Cu213  Cu    0.16667   0.54689   0.16667   0.00000  Uiso   1.00
Cu214  Cu    0.16667   0.45311   0.16667   0.00000  Uiso   1.00
H215   H     0.08482   0.37909   0.23754   0.00000  Uiso   1.00
H216   H     0.29757   0.64831   0.11267   0.00000  Uiso   1.00
H217   H     0.24617   0.37669   0.09683   0.00000  Uiso   1.00
H218   H     0.07588   0.63671   0.21062   0.00000  Uiso   1.00
H219   H     0.06292   0.43395   0.07994   0.00000  Uiso   1.00
H220   H     0.26613   0.55101   0.27871   0.00000  Uiso   1.00
H221   H     0.25286   0.45346   0.28886   0.00000  Uiso   1.00
H222   H     0.07067   0.54896   0.04932   0.00000  Uiso   1.00
N223   N     0.16667   0.61736   0.16667   0.00000  Uiso   1.00
N224   N     0.16667   0.38264   0.16667   0.00000  Uiso   1.00
O225   O     0.10655   0.53958   0.16666   0.00000  Uiso   1.00
O226   O     0.06965   0.40946   0.23234   0.00000  Uiso   1.00
O227   O     0.26095   0.57739   0.09683   0.00000  Uiso   1.00
O228   O     0.31152   0.62464   0.13728   0.00000  Uiso   1.00
O229   O     0.29239   0.38117   0.17703   0.00000  Uiso   1.00
O230   O     0.26146   0.40724   0.10041   0.00000  Uiso   1.00
O231   O     0.03855   0.58092   0.24949   0.00000  Uiso   1.00
O232   O     0.06215   0.61369   0.18452   0.00000  Uiso   1.00
O233   O     0.14470   0.39130   0.03820   0.00000  Uiso   1.00
O234   O     0.07632   0.36285   0.04003   0.00000  Uiso   1.00
O235   O     0.09288   0.43886   0.07901   0.00000  Uiso   1.00
O236   O     0.22679   0.46042   0.16667   0.00000  Uiso   1.00
O237   O     0.27656   0.62607   0.23341   0.00000  Uiso   1.00
O238   O     0.23335   0.63015   0.29886   0.00000  Uiso   1.00
O239   O     0.23954   0.55585   0.25488   0.00000  Uiso   1.00
O240   O     0.20395   0.38488   0.29992   0.00000  Uiso   1.00
O241   O     0.26928   0.36791   0.27285   0.00000  Uiso   1.00
O242   O     0.24021   0.44432   0.25408   0.00000  Uiso   1.00
O243   O     0.05877   0.63000   0.08521   0.00000  Uiso   1.00
O244   O     0.11279   0.62177   0.03271   0.00000  Uiso   1.00
O245   O     0.09262   0.55411   0.07939   0.00000  Uiso   1.00
O246   O     0.22679   0.53958   0.16667   0.00000  Uiso   1.00
O247   O     0.10655   0.46042   0.16666   0.00000  Uiso   1.00
O248   O     0.16667   0.53959   0.09613   0.00000  Uiso   1.00
O249   O     0.16667   0.46041   0.23720   0.00000  Uiso   1.00
O250   O     0.16667   0.53959   0.23720   0.00000  Uiso   1.00
O251   O     0.16667   0.46041   0.09613   0.00000  Uiso   1.00
O252   O     0.04051   0.38027   0.15570   0.00000  Uiso   1.00
S253   S     0.11286   0.38677   0.07149   0.00000  Uiso   1.00
S254   S     0.23554   0.61271   0.24711   0.00000  Uiso   1.00
S255   S     0.22706   0.38897   0.25706   0.00000  Uiso   1.00
S256   S     0.10112   0.61088   0.08245   0.00000  Uiso   1.00
C257   C     0.42142   0.49980   0.17069   0.00000  Uiso   1.00
C258   C     0.35483   0.54027   0.17389   0.00000  Uiso   1.00
C259   C     0.62271   0.49882   0.15643   0.00000  Uiso   1.00
C260   C     0.37678   0.49872   0.17433   0.00000  Uiso   1.00
C261   C     0.47335   0.35774   0.12891   0.00000  Uiso   1.00
C262   C     0.52831   0.64182   0.20221   0.00000  Uiso   1.00
C263   C     0.52773   0.35877   0.20320   0.00000  Uiso   1.00
C264   C     0.47224   0.64096   0.13051   0.00000  Uiso   1.00
C265   C     0.37719   0.41266   0.18519   0.00000  Uiso   1.00
C266   C     0.62552   0.58170   0.12941   0.00000  Uiso   1.00
C267   C     0.62177   0.41229   0.14666   0.00000  Uiso   1.00
C268   C     0.57844   0.49981   0.16207   0.00000  Uiso   1.00
C269   C     0.37427   0.57932   0.20507   0.00000  Uiso   1.00
C270   C     0.50020   0.49988   0.07373   0.00000  Uiso   1.00
C271   C     0.49953   0.50013   0.25955   0.00000  Uiso   1.00
C272   C     0.49999   0.49986   0.02189   0.00000  Uiso   1.00
C273   C     0.49972   0.50021   0.31138   0.00000  Uiso   1.00
C274   C     0.35483   0.45641   0.17095   0.00000  Uiso   1.00
C275   C     0.64500   0.54048   0.15659   0.00000  Uiso   1.00
C276   C     0.64442   0.45644   0.15928   0.00000  Uiso   1.00
Cu277  Cu    0.50000   0.54689   0.16667   0.00000  Uiso   1.00
Cu278  Cu    0.50000   0.45311   0.16667   0.00000  Uiso   1.00
H279   H     0.41815   0.37909   0.23754   0.00000  Uiso   1.00
H280   H     0.63090   0.64831   0.11267   0.00000  Uiso   1.00
H281   H     0.57951   0.37669   0.09683   0.00000  Uiso   1.00
H282   H     0.40922   0.63671   0.21062   0.00000  Uiso   1.00
H283   H     0.39626   0.43395   0.07994   0.00000  Uiso   1.00
H284   H     0.59946   0.55101   0.27871   0.00000  Uiso   1.00
H285   H     0.58620   0.45346   0.28886   0.00000  Uiso   1.00
H286   H     0.40400   0.54896   0.04932   0.00000  Uiso   1.00
N287   N     0.50000   0.61736   0.16667   0.00000  Uiso   1.00
N288   N     0.50000   0.38264   0.16667   0.00000  Uiso   1.00
O289   O     0.43988   0.53958   0.16666   0.00000  Uiso   1.00
O290   O     0.40298   0.40946   0.23234   0.00000  Uiso   1.00
O291   O     0.59428   0.57739   0.09683   0.00000  Uiso   1.00
O292   O     0.64485   0.62464   0.13728   0.00000  Uiso   1.00
O293   O     0.62572   0.38117   0.17703   0.00000  Uiso   1.00
O294   O     0.59479   0.40724   0.10041   0.00000  Uiso   1.00
O295   O     0.37188   0.58092   0.24949   0.00000  Uiso   1.00
O296   O     0.39548   0.61369   0.18452   0.00000  Uiso   1.00
O297   O     0.47804   0.39130   0.03820   0.00000  Uiso   1.00
O298   O     0.40965   0.36285   0.04003   0.00000  Uiso   1.00
O299   O     0.42621   0.43886   0.07901   0.00000  Uiso   1.00
O300   O     0.56012   0.46042   0.16667   0.00000  Uiso   1.00
O301   O     0.60989   0.62607   0.23341   0.00000  Uiso   1.00
O302   O     0.56669   0.63015   0.29886   0.00000  Uiso   1.00
O303   O     0.57288   0.55585   0.25488   0.00000  Uiso   1.00
O304   O     0.53728   0.38488   0.29992   0.00000  Uiso   1.00
O305   O     0.60262   0.36791   0.27285   0.00000  Uiso   1.00
O306   O     0.57355   0.44432   0.25408   0.00000  Uiso   1.00
O307   O     0.39210   0.63000   0.08521   0.00000  Uiso   1.00
O308   O     0.44613   0.62177   0.03271   0.00000  Uiso   1.00
O309   O     0.42595   0.55411   0.07939   0.00000  Uiso   1.00
O310   O     0.56012   0.53958   0.16667   0.00000  Uiso   1.00
O311   O     0.43988   0.46042   0.16666   0.00000  Uiso   1.00
O312   O     0.50000   0.53959   0.09613   0.00000  Uiso   1.00
O313   O     0.50000   0.46041   0.23720   0.00000  Uiso   1.00
O314   O     0.50000   0.53959   0.23720   0.00000  Uiso   1.00
O315   O     0.50000   0.46041   0.09613   0.00000  Uiso   1.00
O316   O     0.37385   0.38027   0.15570   0.00000  Uiso   1.00
S317   S     0.44619   0.38677   0.07149   0.00000  Uiso   1.00
S318   S     0.56888   0.61271   0.24711   0.00000  Uiso   1.00
S319   S     0.56039   0.38897   0.25706   0.00000  Uiso   1.00
S320   S     0.43446   0.61088   0.08245   0.00000  Uiso   1.00
C321   C     0.75476   0.49980   0.17069   0.00000  Uiso   1.00
C322   C     0.68816   0.54027   0.17389   0.00000  Uiso   1.00
C323   C     0.95605   0.49882   0.15643   0.00000  Uiso   1.00
C324   C     0.71011   0.49872   0.17433   0.00000  Uiso   1.00
C325   C     0.80668   0.35774   0.12891   0.00000  Uiso   1.00
C326   C     0.86165   0.64182   0.20221   0.00000  Uiso   1.00
C327   C     0.86106   0.35877   0.20320   0.00000  Uiso   1.00
C328   C     0.80557   0.64096   0.13051   0.00000  Uiso   1.00
C329   C     0.71052   0.41266   0.18519   0.00000  Uiso   1.00
C330   C     0.95886   0.58170   0.12941   0.00000  Uiso   1.00
C331   C     0.95510   0.41229   0.14666   0.00000  Uiso   1.00
C332   C     0.91177   0.49981   0.16207   0.00000  Uiso   1.00
C333   C     0.70761   0.57932   0.20507   0.00000  Uiso   1.00
C334   C     0.83354   0.49988   0.07373   0.00000  Uiso   1.00
C335   C     0.83287   0.50013   0.25955   0.00000  Uiso   1.00
C336   C     0.83332   0.49986   0.02189   0.00000  Uiso   1.00
C337   C     0.83305   0.50021   0.31138   0.00000  Uiso   1.00
C338   C     0.68817   0.45641   0.17095   0.00000  Uiso   1.00
C339   C     0.97834   0.54048   0.15659   0.00000  Uiso   1.00
C340   C     0.97775   0.45644   0.15928   0.00000  Uiso   1.00
Cu341  Cu    0.83333   0.54689   0.16667   0.00000  Uiso   1.00
Cu342  Cu    0.83333   0.45311   0.16667   0.00000  Uiso   1.00
H343   H     0.75149   0.37909   0.23754   0.00000  Uiso   1.00
H344   H     0.96423   0.64831   0.11267   0.00000  Uiso   1.00
H345   H     0.91284   0.37669   0.09683   0.00000  Uiso   1.00
H346   H     0.74255   0.63671   0.21062   0.00000  Uiso   1.00
H347   H     0.72959   0.43395   0.07994   0.00000  Uiso   1.00
H348   H     0.93280   0.55101   0.27871   0.00000  Uiso   1.00
H349   H     0.91953   0.45346   0.28886   0.00000  Uiso   1.00
H350   H     0.73733   0.54896   0.04932   0.00000  Uiso   1.00
N351   N     0.83333   0.61736   0.16667   0.00000  Uiso   1.00
N352   N     0.83333   0.38264   0.16667   0.00000  Uiso   1.00
O353   O     0.77321   0.53958   0.16666   0.00000  Uiso   1.00
O354   O     0.73631   0.40946   0.23234   0.00000  Uiso   1.00
O355   O     0.92762   0.57739   0.09683   0.00000  Uiso   1.00
O356   O     0.97818   0.62464   0.13728   0.00000  Uiso   1.00
O357   O     0.95905   0.38117   0.17703   0.00000  Uiso   1.00
O358   O     0.92812   0.40724   0.10041   0.00000  Uiso   1.00
O359   O     0.70522   0.58092   0.24949   0.00000  Uiso   1.00
O360   O     0.72881   0.61369   0.18452   0.00000  Uiso   1.00
O361   O     0.81137   0.39130   0.03820   0.00000  Uiso   1.00
O362   O     0.74298   0.36285   0.04003   0.00000  Uiso   1.00
O363   O     0.75955   0.43886   0.07901   0.00000  Uiso   1.00
O364   O     0.89345   0.46042   0.16667   0.00000  Uiso   1.00
O365   O     0.94322   0.62607   0.23341   0.00000  Uiso   1.00
O366   O     0.90002   0.63015   0.29886   0.00000  Uiso   1.00
O367   O     0.90621   0.55585   0.25488   0.00000  Uiso   1.00
O368   O     0.87061   0.38488   0.29992   0.00000  Uiso   1.00
O369   O     0.93595   0.36791   0.27285   0.00000  Uiso   1.00
O370   O     0.90688   0.44432   0.25408   0.00000  Uiso   1.00
O371   O     0.72543   0.63000   0.08521   0.00000  Uiso   1.00
O372   O     0.77946   0.62177   0.03271   0.00000  Uiso   1.00
O373   O     0.75929   0.55411   0.07939   0.00000  Uiso   1.00
O374   O     0.89345   0.53958   0.16667   0.00000  Uiso   1.00
O375   O     0.77321   0.46042   0.16666   0.00000  Uiso   1.00
O376   O     0.83333   0.53959   0.09613   0.00000  Uiso   1.00
O377   O     0.83333   0.46041   0.23720   0.00000  Uiso   1.00
O378   O     0.83333   0.53959   0.23720   0.00000  Uiso   1.00
O379   O     0.83333   0.46041   0.09613   0.00000  Uiso   1.00
O380   O     0.70718   0.38027   0.15570   0.00000  Uiso   1.00
S381   S     0.77953   0.38677   0.07149   0.00000  Uiso   1.00
S382   S     0.90221   0.61271   0.24711   0.00000  Uiso   1.00
S383   S     0.89372   0.38897   0.25706   0.00000  Uiso   1.00
S384   S     0.76779   0.61088   0.08245   0.00000  Uiso   1.00
C385   C     0.08809   0.83313   0.17069   0.00000  Uiso   1.00
C386   C     0.02149   0.87360   0.17389   0.00000  Uiso   1.00
C387   C     0.28938   0.83216   0.15643   0.00000  Uiso   1.00
C388   C     0.04345   0.83205   0.17433   0.00000  Uiso   1.00
C389   C     0.14002   0.69107   0.12891   0.00000  Uiso   1.00
C390   C     0.19498   0.97515   0.20221   0.00000  Uiso   1.00
C391   C     0.19439   0.69210   0.20320   0.00000  Uiso   1.00
C392   C     0.13890   0.97429   0.13051   0.00000  Uiso   1.00
C393   C     0.04385   0.74599   0.18519   0.00000  Uiso   1.00
C394   C     0.29219   0.91504   0.12941   0.00000  Uiso   1.00
C395   C     0.28843   0.74562   0.14666   0.00000  Uiso   1.00
C396   C     0.24511   0.83315   0.16207   0.00000  Uiso   1.00
C397   C     0.04094   0.91265   0.20507   0.00000  Uiso   1.00
C398   C     0.16687   0.83321   0.07373   0.00000  Uiso   1.00
C399   C     0.16620   0.83346   0.25955   0.00000  Uiso   1.00
C400   C     0.16666   0.83320   0.02189   0.00000  Uiso   1.00
C401   C     0.16639   0.83354   0.31138   0.00000  Uiso   1.00
C402   C     0.02150   0.78975   0.17095   0.00000  Uiso   1.00
C403   C     0.31167   0.87381   0.15659   0.00000  Uiso   1.00
C404   C     0.31109   0.78977   0.15928   0.00000  Uiso   1.00
Cu405  Cu    0.16667   0.88022   0.16667   0.00000  Uiso   1.00
Cu406  Cu    0.16667   0.78645   0.16667   0.00000  Uiso   1.00
H407   H     0.08482   0.71242   0.23754   0.00000  Uiso   1.00
H408   H     0.29757   0.98165   0.11267   0.00000  Uiso   1.00
H409   H     0.24617   0.71003   0.09683   0.00000  Uiso   1.00
H410   H     0.07588   0.97004   0.21062   0.00000  Uiso   1.00
H411   H     0.06292   0.76729   0.07994   0.00000  Uiso   1.00
H412   H     0.26613   0.88434   0.27871   0.00000  Uiso   1.00
H413   H     0.25286   0.78680   0.28886   0.00000  Uiso   1.00
H414   H     0.07067   0.88229   0.04932   0.00000  Uiso   1.00
N415   N     0.16667   0.95069   0.16667   0.00000  Uiso   1.00
N416   N     0.16667   0.71598   0.16667   0.00000  Uiso   1.00
O417   O     0.10655   0.87291   0.16666   0.00000  Uiso   1.00
O418   O     0.06965   0.74279   0.23234   0.00000  Uiso   1.00
O419   O     0.26095   0.91073   0.09683   0.00000  Uiso   1.00
O420   O     0.31152   0.95797   0.13728   0.00000  Uiso   1.00
O421   O     0.29239   0.71450   0.17703   0.00000  Uiso   1.00
O422   O     0.26146   0.74057   0.10041   0.00000  Uiso   1.00
O423   O     0.03855   0.91425   0.24949   0.00000  Uiso   1.00
O424   O     0.06215   0.94702   0.18452   0.00000  Uiso   1.00
O425   O     0.14470   0.72463   0.03820   0.00000  Uiso   1.00
O426   O     0.07632   0.69619   0.04003   0.00000  Uiso   1.00
O427   O     0.09288   0.77219   0.07901   0.00000  Uiso   1.00
O428   O     0.22679   0.79375   0.16667   0.00000  Uiso   1.00
O429   O     0.27656   0.95941   0.23341   0.00000  Uiso   1.00
O430   O     0.23335   0.96348   0.29886   0.00000  Uiso   1.00
O431   O     0.23954   0.88919   0.25488   0.00000  Uiso   1.00
O432   O     0.20395   0.71821   0.29992   0.00000  Uiso   1.00
O433   O     0.26928   0.70124   0.27285   0.00000  Uiso   1.00
O434   O     0.24021   0.77765   0.25408   0.00000  Uiso   1.00
O435   O     0.05877   0.96333   0.08521   0.00000  Uiso   1.00
O436   O     0.11279   0.95510   0.03271   0.00000  Uiso   1.00
O437   O     0.09262   0.88745   0.07939   0.00000  Uiso   1.00
O438   O     0.22679   0.87291   0.16667   0.00000  Uiso   1.00
O439   O     0.10655   0.79375   0.16666   0.00000  Uiso   1.00
O440   O     0.16667   0.87292   0.09613   0.00000  Uiso   1.00
O441   O     0.16667   0.79375   0.23720   0.00000  Uiso   1.00
O442   O     0.16667   0.87292   0.23720   0.00000  Uiso   1.00
O443   O     0.16667   0.79375   0.09613   0.00000  Uiso   1.00
O444   O     0.04051   0.71361   0.15570   0.00000  Uiso   1.00
S445   S     0.11286   0.72011   0.07149   0.00000  Uiso   1.00
S446   S     0.23554   0.94605   0.24711   0.00000  Uiso   1.00
S447   S     0.22706   0.72230   0.25706   0.00000  Uiso   1.00
S448   S     0.10112   0.94421   0.08245   0.00000  Uiso   1.00
C449   C     0.42142   0.83313   0.17069   0.00000  Uiso   1.00
C450   C     0.35483   0.87360   0.17389   0.00000  Uiso   1.00
C451   C     0.62271   0.83216   0.15643   0.00000  Uiso   1.00
C452   C     0.37678   0.83205   0.17433   0.00000  Uiso   1.00
C453   C     0.47335   0.69107   0.12891   0.00000  Uiso   1.00
C454   C     0.52831   0.97515   0.20221   0.00000  Uiso   1.00
C455   C     0.52773   0.69210   0.20320   0.00000  Uiso   1.00
C456   C     0.47224   0.97429   0.13051   0.00000  Uiso   1.00
C457   C     0.37719   0.74599   0.18519   0.00000  Uiso   1.00
C458   C     0.62552   0.91504   0.12941   0.00000  Uiso   1.00
C459   C     0.62177   0.74562   0.14666   0.00000  Uiso   1.00
C460   C     0.57844   0.83315   0.16207   0.00000  Uiso   1.00
C461   C     0.37427   0.91265   0.20507   0.00000  Uiso   1.00
C462   C     0.50020   0.83321   0.07373   0.00000  Uiso   1.00
C463   C     0.49953   0.83346   0.25955   0.00000  Uiso   1.00
C464   C     0.49999   0.83320   0.02189   0.00000  Uiso   1.00
C465   C     0.49972   0.83354   0.31138   0.00000  Uiso   1.00
C466   C     0.35483   0.78975   0.17095   0.00000  Uiso   1.00
C467   C     0.64500   0.87381   0.15659   0.00000  Uiso   1.00
C468   C     0.64442   0.78977   0.15928   0.00000  Uiso   1.00
Cu469  Cu    0.50000   0.88022   0.16667   0.00000  Uiso   1.00
Cu470  Cu    0.50000   0.78645   0.16667   0.00000  Uiso   1.00
H471   H     0.41815   0.71242   0.23754   0.00000  Uiso   1.00
H472   H     0.63090   0.98165   0.11267   0.00000  Uiso   1.00
H473   H     0.57951   0.71003   0.09683   0.00000  Uiso   1.00
H474   H     0.40922   0.97004   0.21062   0.00000  Uiso   1.00
H475   H     0.39626   0.76729   0.07994   0.00000  Uiso   1.00
H476   H     0.59946   0.88434   0.27871   0.00000  Uiso   1.00
H477   H     0.58620   0.78680   0.28886   0.00000  Uiso   1.00
H478   H     0.40400   0.88229   0.04932   0.00000  Uiso   1.00
N479   N     0.50000   0.95069   0.16667   0.00000  Uiso   1.00
N480   N     0.50000   0.71598   0.16667   0.00000  Uiso   1.00
O481   O     0.43988   0.87291   0.16666   0.00000  Uiso   1.00
O482   O     0.40298   0.74279   0.23234   0.00000  Uiso   1.00
O483   O     0.59428   0.91073   0.09683   0.00000  Uiso   1.00
O484   O     0.64485   0.95797   0.13728   0.00000  Uiso   1.00
O485   O     0.62572   0.71450   0.17703   0.00000  Uiso   1.00
O486   O     0.59479   0.74057   0.10041   0.00000  Uiso   1.00
O487   O     0.37188   0.91425   0.24949   0.00000  Uiso   1.00
O488   O     0.39548   0.94702   0.18452   0.00000  Uiso   1.00
O489   O     0.47804   0.72463   0.03820   0.00000  Uiso   1.00
O490   O     0.40965   0.69619   0.04003   0.00000  Uiso   1.00
O491   O     0.42621   0.77219   0.07901   0.00000  Uiso   1.00
O492   O     0.56012   0.79375   0.16667   0.00000  Uiso   1.00
O493   O     0.60989   0.95941   0.23341   0.00000  Uiso   1.00
O494   O     0.56669   0.96348   0.29886   0.00000  Uiso   1.00
O495   O     0.57288   0.88919   0.25488   0.00000  Uiso   1.00
O496   O     0.53728   0.71821   0.29992   0.00000  Uiso   1.00
O497   O     0.60262   0.70124   0.27285   0.00000  Uiso   1.00
O498   O     0.57355   0.77765   0.25408   0.00000  Uiso   1.00
O499   O     0.39210   0.96333   0.08521   0.00000  Uiso   1.00
O500   O     0.44613   0.95510   0.03271   0.00000  Uiso   1.00
O501   O     0.42595   0.88745   0.07939   0.00000  Uiso   1.00
O502   O     0.56012   0.87291   0.16667   0.00000  Uiso   1.00
O503   O     0.43988   0.79375   0.16666   0.00000  Uiso   1.00
O504   O     0.50000   0.87292   0.09613   0.00000  Uiso   1.00
O505   O     0.50000   0.79375   0.23720   0.00000  Uiso   1.00
O506   O     0.50000   0.87292   0.23720   0.00000  Uiso   1.00
O507   O     0.50000   0.79375   0.09613   0.00000  Uiso   1.00
O508   O     0.37385   0.71361   0.15570   0.00000  Uiso   1.00
S509   S     0.44619   0.72011   0.07149   0.00000  Uiso   1.00
S510   S     0.56888   0.94605   0.24711   0.00000  Uiso   1.00
S511   S     0.56039   0.72230   0.25706   0.00000  Uiso   1.00
S512   S     0.43446   0.94421   0.08245   0.00000  Uiso   1.00
C513   C     0.75476   0.83313   0.17069   0.00000  Uiso   1.00
C514   C     0.68816   0.87360   0.17389   0.00000  Uiso   1.00
C515   C     0.95605   0.83216   0.15643   0.00000  Uiso   1.00
C516   C     0.71011   0.83205   0.17433   0.00000  Uiso   1.00
C517   C     0.80668   0.69107   0.12891   0.00000  Uiso   1.00
C518   C     0.86165   0.97515   0.20221   0.00000  Uiso   1.00
C519   C     0.86106   0.69210   0.20320   0.00000  Uiso   1.00
C520   C     0.80557   0.97429   0.13051   0.00000  Uiso   1.00
C521   C     0.71052   0.74599   0.18519   0.00000  Uiso   1.00
C522   C     0.95886   0.91504   0.12941   0.00000  Uiso   1.00
C523   C     0.95510   0.74562   0.14666   0.00000  Uiso   1.00
C524   C     0.91177   0.83315   0.16207   0.00000  Uiso   1.00
C525   C     0.70761   0.91265   0.20507   0.00000  Uiso   1.00
C526   C     0.83354   0.83321   0.07373   0.00000  Uiso   1.00
C527   C     0.83287   0.83346   0.25955   0.00000  Uiso   1.00
C528   C     0.83332   0.83320   0.02189   0.00000  Uiso   1.00
C529   C     0.83305   0.83354   0.31138   0.00000  Uiso   1.00
C530   C     0.68817   0.78975   0.17095   0.00000  Uiso   1.00
C531   C     0.97834   0.87381   0.15659   0.00000  Uiso   1.00
C532   C     0.97775   0.78977   0.15928   0.00000  Uiso   1.00
Cu533  Cu    0.83333   0.88022   0.16667   0.00000  Uiso   1.00
Cu534  Cu    0.83333   0.78645   0.16667   0.00000  Uiso   1.00
H535   H     0.75149   0.71242   0.23754   0.00000  Uiso   1.00
H536   H     0.96423   0.98165   0.11267   0.00000  Uiso   1.00
H537   H     0.91284   0.71003   0.09683   0.00000  Uiso   1.00
H538   H     0.74255   0.97004   0.21062   0.00000  Uiso   1.00
H539   H     0.72959   0.76729   0.07994   0.00000  Uiso   1.00
H540   H     0.93280   0.88434   0.27871   0.00000  Uiso   1.00
H541   H     0.91953   0.78680   0.28886   0.00000  Uiso   1.00
H542   H     0.73733   0.88229   0.04932   0.00000  Uiso   1.00
N543   N     0.83333   0.95069   0.16667   0.00000  Uiso   1.00
N544   N     0.83333   0.71598   0.16667   0.00000  Uiso   1.00
O545   O     0.77321   0.87291   0.16666   0.00000  Uiso   1.00
O546   O     0.73631   0.74279   0.23234   0.00000  Uiso   1.00
O547   O     0.92762   0.91073   0.09683   0.00000  Uiso   1.00
O548   O     0.97818   0.95797   0.13728   0.00000  Uiso   1.00
O549   O     0.95905   0.71450   0.17703   0.00000  Uiso   1.00
O550   O     0.92812   0.74057   0.10041   0.00000  Uiso   1.00
O551   O     0.70522   0.91425   0.24949   0.00000  Uiso   1.00
O552   O     0.72881   0.94702   0.18452   0.00000  Uiso   1.00
O553   O     0.81137   0.72463   0.03820   0.00000  Uiso   1.00
O554   O     0.74298   0.69619   0.04003   0.00000  Uiso   1.00
O555   O     0.75955   0.77219   0.07901   0.00000  Uiso   1.00
O556   O     0.89345   0.79375   0.16667   0.00000  Uiso   1.00
O557   O     0.94322   0.95941   0.23341   0.00000  Uiso   1.00
O558   O     0.90002   0.96348   0.29886   0.00000  Uiso   1.00
O559   O     0.90621   0.88919   0.25488   0.00000  Uiso   1.00
O560   O     0.87061   0.71821   0.29992   0.00000  Uiso   1.00
O561   O     0.93595   0.70124   0.27285   0.00000  Uiso   1.00
O562   O     0.90688   0.77765   0.25408   0.00000  Uiso   1.00
O563   O     0.72543   0.96333   0.08521   0.00000  Uiso   1.00
O564   O     0.77946   0.95510   0.03271   0.00000  Uiso   1.00
O565   O     0.75929   0.88745   0.07939   0.00000  Uiso   1.00
O566   O     0.89345   0.87291   0.16667   0.00000  Uiso   1.00
O567   O     0.77321   0.79375   0.16666   0.00000  Uiso   1.00
O568   O     0.83333   0.87292   0.09613   0.00000  Uiso   1.00
O569   O     0.83333   0.79375   0.23720   0.00000  Uiso   1.00
O570   O     0.83333   0.87292   0.23720   0.00000  Uiso   1.00
O571   O     0.83333   0.79375   0.09613   0.00000  Uiso   1.00
O572   O     0.70718   0.71361   0.15570   0.00000  Uiso   1.00
S573   S     0.77953   0.72011   0.07149   0.00000  Uiso   1.00
S574   S     0.90221   0.94605   0.24711   0.00000  Uiso   1.00
S575   S     0.89372   0.72230   0.25706   0.00000  Uiso   1.00
S576   S     0.76779   0.94421   0.08245   0.00000  Uiso   1.00
C577   C     0.08809   0.16647   0.50403   0.00000  Uiso   1.00
C578   C     0.02149   0.20693   0.50722   0.00000  Uiso   1.00
C579   C     0.28938   0.16549   0.48977   0.00000  Uiso   1.00
C580   C     0.04345   0.16538   0.50766   0.00000  Uiso   1.00
C581   C     0.14002   0.02440   0.46224   0.00000  Uiso   1.00
C582   C     0.19498   0.30848   0.53554   0.00000  Uiso   1.00
C583   C     0.19439   0.02544   0.53653   0.00000  Uiso   1.00
C584   C     0.13890   0.30762   0.46384   0.00000  Uiso   1.00
C585   C     0.04385   0.07932   0.51852   0.00000  Uiso   1.00
C586   C     0.29219   0.24837   0.46274   0.00000  Uiso   1.00
C587   C     0.28843   0.07895   0.47999   0.00000  Uiso   1.00
C588   C     0.24511   0.16648   0.49541   0.00000  Uiso   1.00
C589   C     0.04094   0.24599   0.53841   0.00000  Uiso   1.00
C590   C     0.16687   0.16654   0.40707   0.00000  Uiso   1.00
C591   C     0.16620   0.16680   0.59288   0.00000  Uiso   1.00
C592   C     0.16666   0.16653   0.35522   0.00000  Uiso   1.00
C593   C     0.16639   0.16687   0.64471   0.00000  Uiso   1.00
C594   C     0.02150   0.12308   0.50428   0.00000  Uiso   1.00
C595   C     0.31167   0.20715   0.48992   0.00000  Uiso   1.00
C596   C     0.31109   0.12310   0.49261   0.00000  Uiso   1.00
Cu597  Cu    0.16667   0.21355   0.50000   0.00000  Uiso   1.00
Cu598  Cu    0.16667   0.11978   0.50000   0.00000  Uiso   1.00
H599   H     0.08482   0.04576   0.57087   0.00000  Uiso   1.00
H600   H     0.29757   0.31498   0.44600   0.00000  Uiso   1.00
H601   H     0.24617   0.04336   0.43017   0.00000  Uiso   1.00
H602   H     0.07588   0.30337   0.54395   0.00000  Uiso   1.00
H603   H     0.06292   0.10062   0.41327   0.00000  Uiso   1.00
H604   H     0.26613   0.21767   0.61204   0.00000  Uiso   1.00
H605   H     0.25286   0.12013   0.62219   0.00000  Uiso   1.00
H606   H     0.07067   0.21563   0.38265   0.00000  Uiso   1.00
N607   N     0.16667   0.28402   0.50000   0.00000  Uiso   1.00
N608   N     0.16667   0.04931   0.50000   0.00000  Uiso   1.00
O609   O     0.10655   0.20625   0.50000   0.00000  Uiso   1.00
O610   O     0.06965   0.07613   0.56568   0.00000  Uiso   1.00
O611   O     0.26095   0.24406   0.43016   0.00000  Uiso   1.00
O612   O     0.31152   0.29130   0.47061   0.00000  Uiso   1.00
O613   O     0.29239   0.04783   0.51036   0.00000  Uiso   1.00
O614   O     0.26146   0.07391   0.43374   0.00000  Uiso   1.00
O615   O     0.03855   0.24759   0.58282   0.00000  Uiso   1.00
O616   O     0.06215   0.28035   0.51785   0.00000  Uiso   1.00
O617   O     0.14470   0.05796   0.37153   0.00000  Uiso   1.00
O618   O     0.07632   0.02952   0.37336   0.00000  Uiso   1.00
O619   O     0.09288   0.10552   0.41235   0.00000  Uiso   1.00
O620   O     0.22679   0.12709   0.50000   0.00000  Uiso   1.00
O621   O     0.27656   0.29274   0.56675   0.00000  Uiso   1.00
O622   O     0.23335   0.29682   0.63219   0.00000  Uiso   1.00
O623   O     0.23954   0.22252   0.58822   0.00000  Uiso   1.00
O624   O     0.20395   0.05154   0.63325   0.00000  Uiso   1.00
O625   O     0.26928   0.03458   0.60619   0.00000  Uiso   1.00
O626   O     0.24021   0.11098   0.58741   0.00000  Uiso   1.00
O627   O     0.05877   0.29666   0.41854   0.00000  Uiso   1.00
O628   O     0.11279   0.28843   0.36604   0.00000  Uiso   1.00
O629   O     0.09262   0.22078   0.41273   0.00000  Uiso   1.00
O630   O     0.22679   0.20625   0.50000   0.00000  Uiso   1.00
O631   O     0.10655   0.12709   0.50000   0.00000  Uiso   1.00
O632   O     0.16667   0.20625   0.42946   0.00000  Uiso   1.00
O633   O     0.16667   0.12708   0.57054   0.00000  Uiso   1.00
O634   O     0.16667   0.20625   0.57054   0.00000  Uiso   1.00
O635   O     0.16667   0.12708   0.42946   0.00000  Uiso   1.00
O636   O     0.04051   0.04694   0.48903   0.00000  Uiso   1.00
S637   S     0.11286   0.05344   0.40482   0.00000  Uiso   1.00
S638   S     0.23554   0.27938   0.58044   0.00000  Uiso   1.00
S639   S     0.22706   0.05564   0.59040   0.00000  Uiso   1.00
S640   S     0.10112   0.27754   0.41578   0.00000  Uiso   1.00
C641   C     0.42142   0.16647   0.50403   0.00000  Uiso   1.00
C642   C     0.35483   0.20693   0.50722   0.00000  Uiso   1.00
C643   C     0.62271   0.16549   0.48977   0.00000  Uiso   1.00
C644   C     0.37678   0.16538   0.50766   0.00000  Uiso   1.00
C645   C     0.47335   0.02440   0.46224   0.00000  Uiso   1.00
C646   C     0.52831   0.30848   0.53554   0.00000  Uiso   1.00
C647   C     0.52773   0.02544   0.53653   0.00000  Uiso   1.00
C648   C     0.47224   0.30762   0.46384   0.00000  Uiso   1.00
C649   C     0.37719   0.07932   0.51852   0.00000  Uiso   1.00
C650   C     0.62552   0.24837   0.46274   0.00000  Uiso   1.00
C651   C     0.62177   0.07895   0.47999   0.00000  Uiso   1.00
C652   C     0.57844   0.16648   0.49541   0.00000  Uiso   1.00
C653   C     0.37427   0.24599   0.53841   0.00000  Uiso   1.00
C654   C     0.50020   0.16654   0.40707   0.00000  Uiso   1.00
C655   C     0.49953   0.16680   0.59288   0.00000  Uiso   1.00
C656   C     0.49999   0.16653   0.35522   0.00000  Uiso   1.00
C657   C     0.49972   0.16687   0.64471   0.00000  Uiso   1.00
C658   C     0.35483   0.12308   0.50428   0.00000  Uiso   1.00
C659   C     0.64500   0.20715   0.48992   0.00000  Uiso   1.00
C660   C     0.64442   0.12310   0.49261   0.00000  Uiso   1.00
Cu661  Cu    0.50000   0.21355   0.50000   0.00000  Uiso   1.00
Cu662  Cu    0.50000   0.11978   0.50000   0.00000  Uiso   1.00
H663   H     0.41815   0.04576   0.57087   0.00000  Uiso   1.00
H664   H     0.63090   0.31498   0.44600   0.00000  Uiso   1.00
H665   H     0.57951   0.04336   0.43017   0.00000  Uiso   1.00
H666   H     0.40922   0.30337   0.54395   0.00000  Uiso   1.00
H667   H     0.39626   0.10062   0.41327   0.00000  Uiso   1.00
H668   H     0.59946   0.21767   0.61204   0.00000  Uiso   1.00
H669   H     0.58620   0.12013   0.62219   0.00000  Uiso   1.00
H670   H     0.40400   0.21563   0.38265   0.00000  Uiso   1.00
N671   N     0.50000   0.28402   0.50000   0.00000  Uiso   1.00
N672   N     0.50000   0.04931   0.50000   0.00000  Uiso   1.00
O673   O     0.43988   0.20625   0.50000   0.00000  Uiso   1.00
O674   O     0.40298   0.07613   0.56568   0.00000  Uiso   1.00
O675   O     0.59428   0.24406   0.43016   0.00000  Uiso   1.00
O676   O     0.64485   0.29130   0.47061   0.00000  Uiso   1.00
O677   O     0.62572   0.04783   0.51036   0.00000  Uiso   1.00
O678   O     0.59479   0.07391   0.43374   0.00000  Uiso   1.00
O679   O     0.37188   0.24759   0.58282   0.00000  Uiso   1.00
O680   O     0.39548   0.28035   0.51785   0.00000  Uiso   1.00
O681   O     0.47804   0.05796   0.37153   0.00000  Uiso   1.00
O682   O     0.40965   0.02952   0.37336   0.00000  Uiso   1.00
O683   O     0.42621   0.10552   0.41235   0.00000  Uiso   1.00
O684   O     0.56012   0.12709   0.50000   0.00000  Uiso   1.00
O685   O     0.60989   0.29274   0.56675   0.00000  Uiso   1.00
O686   O     0.56669   0.29682   0.63219   0.00000  Uiso   1.00
O687   O     0.57288   0.22252   0.58822   0.00000  Uiso   1.00
O688   O     0.53728   0.05154   0.63325   0.00000  Uiso   1.00
O689   O     0.60262   0.03458   0.60619   0.00000  Uiso   1.00
O690   O     0.57355   0.11098   0.58741   0.00000  Uiso   1.00
O691   O     0.39210   0.29666   0.41854   0.00000  Uiso   1.00
O692   O     0.44613   0.28843   0.36604   0.00000  Uiso   1.00
O693   O     0.42595   0.22078   0.41273   0.00000  Uiso   1.00
O694   O     0.56012   0.20625   0.50000   0.00000  Uiso   1.00
O695   O     0.43988   0.12709   0.50000   0.00000  Uiso   1.00
O696   O     0.50000   0.20625   0.42946   0.00000  Uiso   1.00
O697   O     0.50000   0.12708   0.57054   0.00000  Uiso   1.00
O698   O     0.50000   0.20625   0.57054   0.00000  Uiso   1.00
O699   O     0.50000   0.12708   0.42946   0.00000  Uiso   1.00
O700   O     0.37385   0.04694   0.48903   0.00000  Uiso   1.00
S701   S     0.44619   0.05344   0.40482   0.00000  Uiso   1.00
S702   S     0.56888   0.27938   0.58044   0.00000  Uiso   1.00
S703   S     0.56039   0.05564   0.59040   0.00000  Uiso   1.00
S704   S     0.43446   0.27754   0.41578   0.00000  Uiso   1.00
C705   C     0.75476   0.16647   0.50403   0.00000  Uiso   1.00
C706   C     0.68816   0.20693   0.50722   0.00000  Uiso   1.00
C707   C     0.95605   0.16549   0.48977   0.00000  Uiso   1.00
C708   C     0.71011   0.16538   0.50766   0.00000  Uiso   1.00
C709   C     0.80668   0.02440   0.46224   0.00000  Uiso   1.00
C710   C     0.86165   0.30848   0.53554   0.00000  Uiso   1.00
C711   C     0.86106   0.02544   0.53653   0.00000  Uiso   1.00
C712   C     0.80557   0.30762   0.46384   0.00000  Uiso   1.00
C713   C     0.71052   0.07932   0.51852   0.00000  Uiso   1.00
C714   C     0.95886   0.24837   0.46274   0.00000  Uiso   1.00
C715   C     0.95510   0.07895   0.47999   0.00000  Uiso   1.00
C716   C     0.91177   0.16648   0.49541   0.00000  Uiso   1.00
C717   C     0.70761   0.24599   0.53841   0.00000  Uiso   1.00
C718   C     0.83354   0.16654   0.40707   0.00000  Uiso   1.00
C719   C     0.83287   0.16680   0.59288   0.00000  Uiso   1.00
C720   C     0.83332   0.16653   0.35522   0.00000  Uiso   1.00
C721   C     0.83305   0.16687   0.64471   0.00000  Uiso   1.00
C722   C     0.68817   0.12308   0.50428   0.00000  Uiso   1.00
C723   C     0.97834   0.20715   0.48992   0.00000  Uiso   1.00
C724   C     0.97775   0.12310   0.49261   0.00000  Uiso   1.00
Cu725  Cu    0.83333   0.21355   0.50000   0.00000  Uiso   1.00
Cu726  Cu    0.83333   0.11978   0.50000   0.00000  Uiso   1.00
H727   H     0.75149   0.04576   0.57087   0.00000  Uiso   1.00
H728   H     0.96423   0.31498   0.44600   0.00000  Uiso   1.00
H729   H     0.91284   0.04336   0.43017   0.00000  Uiso   1.00
H730   H     0.74255   0.30337   0.54395   0.00000  Uiso   1.00
H731   H     0.72959   0.10062   0.41327   0.00000  Uiso   1.00
H732   H     0.93280   0.21767   0.61204   0.00000  Uiso   1.00
H733   H     0.91953   0.12013   0.62219   0.00000  Uiso   1.00
H734   H     0.73733   0.21563   0.38265   0.00000  Uiso   1.00
N735   N     0.83333   0.28402   0.50000   0.00000  Uiso   1.00
N736   N     0.83333   0.04931   0.50000   0.00000  Uiso   1.00
O737   O     0.77321   0.20625   0.50000   0.00000  Uiso   1.00
O738   O     0.73631   0.07613   0.56568   0.00000  Uiso   1.00
O739   O     0.92762   0.24406   0.43016   0.00000  Uiso   1.00
O740   O     0.97818   0.29130   0.47061   0.00000  Uiso   1.00
O741   O     0.95905   0.04783   0.51036   0.00000  Uiso   1.00
O742   O     0.92812   0.07391   0.43374   0.00000  Uiso   1.00
O743   O     0.70522   0.24759   0.58282   0.00000  Uiso   1.00
O744   O     0.72881   0.28035   0.51785   0.00000  Uiso   1.00
O745   O     0.81137   0.05796   0.37153   0.00000  Uiso   1.00
O746   O     0.74298   0.02952   0.37336   0.00000  Uiso   1.00
O747   O     0.75955   0.10552   0.41235   0.00000  Uiso   1.00
O748   O     0.89345   0.12709   0.50000   0.00000  Uiso   1.00
O749   O     0.94322   0.29274   0.56675   0.00000  Uiso   1.00
O750   O     0.90002   0.29682   0.63219   0.00000  Uiso   1.00
O751   O     0.90621   0.22252   0.58822   0.00000  Uiso   1.00
O752   O     0.87061   0.05154   0.63325   0.00000  Uiso   1.00
O753   O     0.93595   0.03458   0.60619   0.00000  Uiso   1.00
O754   O     0.90688   0.11098   0.58741   0.00000  Uiso   1.00
O755   O     0.72543   0.29666   0.41854   0.00000  Uiso   1.00
O756   O     0.77946   0.28843   0.36604   0.00000  Uiso   1.00
O757   O     0.75929   0.22078   0.41273   0.00000  Uiso   1.00
O758   O     0.89345   0.20625   0.50000   0.00000  Uiso   1.00
O759   O     0.77321   0.12709   0.50000   0.00000  Uiso   1.00
O760   O     0.83333   0.20625   0.42946   0.00000  Uiso   1.00
O761   O     0.83333   0.12708   0.57054   0.00000  Uiso   1.00
O762   O     0.83333   0.20625   0.57054   0.00000  Uiso   1.00
O763   O     0.83333   0.12708   0.42946   0.00000  Uiso   1.00
O764   O     0.70718   0.04694   0.48903   0.00000  Uiso   1.00
S765   S     0.77953   0.05344   0.40482   0.00000  Uiso   1.00
S766   S     0.90221   0.27938   0.58044   0.00000  Uiso   1.00
S767   S     0.89372   0.05564   0.59040   0.00000  Uiso   1.00
S768   S     0.76779   0.27754   0.41578   0.00000  Uiso   1.00
C769   C     0.08809   0.49980   0.50403   0.00000  Uiso   1.00
C770   C     0.02149   0.54027   0.50722   0.00000  Uiso   1.00
C771   C     0.28938   0.49882   0.48977   0.00000  Uiso   1.00
C772   C     0.04345   0.49872   0.50766   0.00000  Uiso   1.00
C773   C     0.14002   0.35774   0.46224   0.00000  Uiso   1.00
C774   C     0.19498   0.64182   0.53554   0.00000  Uiso   1.00
C775   C     0.19439   0.35877   0.53653   0.00000  Uiso   1.00
C776   C     0.13890   0.64096   0.46384   0.00000  Uiso   1.00
C777   C     0.04385   0.41266   0.51852   0.00000  Uiso   1.00
C778   C     0.29219   0.58170   0.46274   0.00000  Uiso   1.00
C779   C     0.28843   0.41229   0.47999   0.00000  Uiso   1.00
C780   C     0.24511   0.49981   0.49541   0.00000  Uiso   1.00
C781   C     0.04094   0.57932   0.53841   0.00000  Uiso   1.00
C782   C     0.16687   0.49988   0.40707   0.00000  Uiso   1.00
C783   C     0.16620   0.50013   0.59288   0.00000  Uiso   1.00
C784   C     0.16666   0.49986   0.35522   0.00000  Uiso   1.00
C785   C     0.16639   0.50021   0.64471   0.00000  Uiso   1.00
C786   C     0.02150   0.45641   0.50428   0.00000  Uiso   1.00
C787   C     0.31167   0.54048   0.48992   0.00000  Uiso   1.00
C788   C     0.31109   0.45644   0.49261   0.00000  Uiso   1.00
Cu789  Cu    0.16667   0.54689   0.50000   0.00000  Uiso   1.00
Cu790  Cu    0.16667   0.45311   0.50000   0.00000  Uiso   1.00
H791   H     0.08482   0.37909   0.57087   0.00000  Uiso   1.00
H792   H     0.29757   0.64831   0.44600   0.00000  Uiso   1.00
H793   H     0.24617   0.37669   0.43017   0.00000  Uiso   1.00
H794   H     0.07588   0.63671   0.54395   0.00000  Uiso   1.00
H795   H     0.06292   0.43395   0.41327   0.00000  Uiso   1.00
H796   H     0.26613   0.55101   0.61204   0.00000  Uiso   1.00
H797   H     0.25286   0.45346   0.62219   0.00000  Uiso   1.00
H798   H     0.07067   0.54896   0.38265   0.00000  Uiso   1.00
N799   N     0.16667   0.61736   0.50000   0.00000  Uiso   1.00
N800   N     0.16667   0.38264   0.50000   0.00000  Uiso   1.00
O801   O     0.10655   0.53958   0.50000   0.00000  Uiso   1.00
O802   O     0.06965   0.40946   0.56568   0.00000  Uiso   1.00
O803   O     0.26095   0.57739   0.43016   0.00000  Uiso   1.00
O804   O     0.31152   0.62464   0.47061   0.00000  Uiso   1.00
O805   O     0.29239   0.38117   0.51036   0.00000  Uiso   1.00
O806   O     0.26146   0.40724   0.43374   0.00000  Uiso   1.00
O807   O     0.03855   0.58092   0.58282   0.00000  Uiso   1.00
O808   O     0.06215   0.61369   0.51785   0.00000  Uiso   1.00
O809   O     0.14470   0.39130   0.37153   0.00000  Uiso   1.00
O810   O     0.07632   0.36285   0.37336   0.00000  Uiso   1.00
O811   O     0.09288   0.43886   0.41235   0.00000  Uiso   1.00
O812   O     0.22679   0.46042   0.50000   0.00000  Uiso   1.00
O813   O     0.27656   0.62607   0.56675   0.00000  Uiso   1.00
O814   O     0.23335   0.63015   0.63219   0.00000  Uiso   1.00
O815   O     0.23954   0.55585   0.58822   0.00000  Uiso   1.00
O816   O     0.20395   0.38488   0.63325   0.00000  Uiso   1.00
O817   O     0.26928   0.36791   0.60619   0.00000  Uiso   1.00
O818   O     0.24021   0.44432   0.58741   0.00000  Uiso   1.00
O819   O     0.05877   0.63000   0.41854   0.00000  Uiso   1.00
O820   O     0.11279   0.62177   0.36604   0.00000  Uiso   1.00
O821   O     0.09262   0.55411   0.41273   0.00000  Uiso   1.00
O822   O     0.22679   0.53958   0.50000   0.00000  Uiso   1.00
O823   O     0.10655   0.46042   0.50000   0.00000  Uiso   1.00
O824   O     0.16667   0.53959   0.42946   0.00000  Uiso   1.00
O825   O     0.16667   0.46041   0.57054   0.00000  Uiso   1.00
O826   O     0.16667   0.53959   0.57054   0.00000  Uiso   1.00
O827   O     0.16667   0.46041   0.42946   0.00000  Uiso   1.00
O828   O     0.04051   0.38027   0.48903   0.00000  Uiso   1.00
S829   S     0.11286   0.38677   0.40482   0.00000  Uiso   1.00
S830   S     0.23554   0.61271   0.58044   0.00000  Uiso   1.00
S831   S     0.22706   0.38897   0.59040   0.00000  Uiso   1.00
S832   S     0.10112   0.61088   0.41578   0.00000  Uiso   1.00
C833   C     0.42142   0.49980   0.50403   0.00000  Uiso   1.00
C834   C     0.35483   0.54027   0.50722   0.00000  Uiso   1.00
C835   C     0.62271   0.49882   0.48977   0.00000  Uiso   1.00
C836   C     0.37678   0.49872   0.50766   0.00000  Uiso   1.00
C837   C     0.47335   0.35774   0.46224   0.00000  Uiso   1.00
C838   C     0.52831   0.64182   0.53554   0.00000  Uiso   1.00
C839   C     0.52773   0.35877   0.53653   0.00000  Uiso   1.00
C840   C     0.47224   0.64096   0.46384   0.00000  Uiso   1.00
C841   C     0.37719   0.41266   0.51852   0.00000  Uiso   1.00
C842   C     0.62552   0.58170   0.46274   0.00000  Uiso   1.00
C843   C     0.62177   0.41229   0.47999   0.00000  Uiso   1.00
C844   C     0.57844   0.49981   0.49541   0.00000  Uiso   1.00
C845   C     0.37427   0.57932   0.53841   0.00000  Uiso   1.00
C846   C     0.50020   0.49988   0.40707   0.00000  Uiso   1.00
C847   C     0.49953   0.50013   0.59288   0.00000  Uiso   1.00
C848   C     0.49999   0.49986   0.35522   0.00000  Uiso   1.00
C849   C     0.49972   0.50021   0.64471   0.00000  Uiso   1.00
C850   C     0.35483   0.45641   0.50428   0.00000  Uiso   1.00
C851   C     0.64500   0.54048   0.48992   0.00000  Uiso   1.00
C852   C     0.64442   0.45644   0.49261   0.00000  Uiso   1.00
Cu853  Cu    0.50000   0.54689   0.50000   0.00000  Uiso   1.00
Cu854  Cu    0.50000   0.45311   0.50000   0.00000  Uiso   1.00
H855   H     0.41815   0.37909   0.57087   0.00000  Uiso   1.00
H856   H     0.63090   0.64831   0.44600   0.00000  Uiso   1.00
H857   H     0.57951   0.37669   0.43017   0.00000  Uiso   1.00
H858   H     0.40922   0.63671   0.54395   0.00000  Uiso   1.00
H859   H     0.39626   0.43395   0.41327   0.00000  Uiso   1.00
H860   H     0.59946   0.55101   0.61204   0.00000  Uiso   1.00
H861   H     0.58620   0.45346   0.62219   0.00000  Uiso   1.00
H862   H     0.40400   0.54896   0.38265   0.00000  Uiso   1.00
N863   N     0.50000   0.61736   0.50000   0.00000  Uiso   1.00
N864   N     0.50000   0.38264   0.50000   0.00000  Uiso   1.00
O865   O     0.43988   0.53958   0.50000   0.00000  Uiso   1.00
O866   O     0.40298   0.40946   0.56568   0.00000  Uiso   1.00
O867   O     0.59428   0.57739   0.43016   0.00000  Uiso   1.00
O868   O     0.64485   0.62464   0.47061   0.00000  Uiso   1.00
O869   O     0.62572   0.38117   0.51036   0.00000  Uiso   1.00
O870   O     0.59479   0.40724   0.43374   0.00000  Uiso   1.00
O871   O     0.37188   0.58092   0.58282   0.00000  Uiso   1.00
O872   O     0.39548   0.61369   0.51785   0.00000  Uiso   1.00
O873   O     0.47804   0.39130   0.37153   0.00000  Uiso   1.00
O874   O     0.40965   0.36285   0.37336   0.00000  Uiso   1.00
O875   O     0.42621   0.43886   0.41235   0.00000  Uiso   1.00
O876   O     0.56012   0.46042   0.50000   0.00000  Uiso   1.00
O877   O     0.60989   0.62607   0.56675   0.00000  Uiso   1.00
O878   O     0.56669   0.63015   0.63219   0.00000  Uiso   1.00
O879   O     0.57288   0.55585   0.58822   0.00000  Uiso   1.00
O880   O     0.53728   0.38488   0.63325   0.00000  Uiso   1.00
O881   O     0.60262   0.36791   0.60619   0.00000  Uiso   1.00
O882   O     0.57355   0.44432   0.58741   0.00000  Uiso   1.00
O883   O     0.39210   0.63000   0.41854   0.00000  Uiso   1.00
O884   O     0.44613   0.62177   0.36604   0.00000  Uiso   1.00
O885   O     0.42595   0.55411   0.41273   0.00000  Uiso   1.00
O886   O     0.56012   0.53958   0.50000   0.00000  Uiso   1.00
O887   O     0.43988   0.46042   0.50000   0.00000  Uiso   1.00
O888   O     0.50000   0.53959   0.42946   0.00000  Uiso   1.00
O889   O     0.50000   0.46041   0.57054   0.00000  Uiso   1.00
O890   O     0.50000   0.53959   0.57054   0.00000  Uiso   1.00
O891   O     0.50000   0.46041   0.42946   0.00000  Uiso   1.00
O892   O     0.37385   0.38027   0.48903   0.00000  Uiso   1.00
S893   S     0.44619   0.38677   0.40482   0.00000  Uiso   1.00
S894   S     0.56888   0.61271   0.58044   0.00000  Uiso   1.00
S895   S     0.56039   0.38897   0.59040   0.00000  Uiso   1.00
S896   S     0.43446   0.61088   0.41578   0.00000  Uiso   1.00
C897   C     0.75476   0.49980   0.50403   0.00000  Uiso   1.00
C898   C     0.68816   0.54027   0.50722   0.00000  Uiso   1.00
C899   C     0.95605   0.49882   0.48977   0.00000  Uiso   1.00
C900   C     0.71011   0.49872   0.50766   0.00000  Uiso   1.00
C901   C     0.80668   0.35774   0.46224   0.00000  Uiso   1.00
C902   C     0.86165   0.64182   0.53554   0.00000  Uiso   1.00
C903   C     0.86106   0.35877   0.53653   0.00000  Uiso   1.00
C904   C     0.80557   0.64096   0.46384   0.00000  Uiso   1.00
C905   C     0.71052   0.41266   0.51852   0.00000  Uiso   1.00
C906   C     0.95886   0.58170   0.46274   0.00000  Uiso   1.00
C907   C     0.95510   0.41229   0.47999   0.00000  Uiso   1.00
C908   C     0.91177   0.49981   0.49541   0.00000  Uiso   1.00
C909   C     0.70761   0.57932   0.53841   0.00000  Uiso   1.00
C910   C     0.83354   0.49988   0.40707   0.00000  Uiso   1.00
C911   C     0.83287   0.50013   0.59288   0.00000  Uiso   1.00
C912   C     0.83332   0.49986   0.35522   0.00000  Uiso   1.00
C913   C     0.83305   0.50021   0.64471   0.00000  Uiso   1.00
C914   C     0.68817   0.45641   0.50428   0.00000  Uiso   1.00
C915   C     0.97834   0.54048   0.48992   0.00000  Uiso   1.00
C916   C     0.97775   0.45644   0.49261   0.00000  Uiso   1.00
Cu917  Cu    0.83333   0.54689   0.50000   0.00000  Uiso   1.00
Cu918  Cu    0.83333   0.45311   0.50000   0.00000  Uiso   1.00
H919   H     0.75149   0.37909   0.57087   0.00000  Uiso   1.00
H920   H     0.96423   0.64831   0.44600   0.00000  Uiso   1.00
H921   H     0.91284   0.37669   0.43017   0.00000  Uiso   1.00
H922   H     0.74255   0.63671   0.54395   0.00000  Uiso   1.00
H923   H     0.72959   0.43395   0.41327   0.00000  Uiso   1.00
H924   H     0.93280   0.55101   0.61204   0.00000  Uiso   1.00
H925   H     0.91953   0.45346   0.62219   0.00000  Uiso   1.00
H926   H     0.73733   0.54896   0.38265   0.00000  Uiso   1.00
N927   N     0.83333   0.61736   0.50000   0.00000  Uiso   1.00
N928   N     0.83333   0.38264   0.50000   0.00000  Uiso   1.00
O929   O     0.77321   0.53958   0.50000   0.00000  Uiso   1.00
O930   O     0.73631   0.40946   0.56568   0.00000  Uiso   1.00
O931   O     0.92762   0.57739   0.43016   0.00000  Uiso   1.00
O932   O     0.97818   0.62464   0.47061   0.00000  Uiso   1.00
O933   O     0.95905   0.38117   0.51036   0.00000  Uiso   1.00
O934   O     0.92812   0.40724   0.43374   0.00000  Uiso   1.00
O935   O     0.70522   0.58092   0.58282   0.00000  Uiso   1.00
O936   O     0.72881   0.61369   0.51785   0.00000  Uiso   1.00
O937   O     0.81137   0.39130   0.37153   0.00000  Uiso   1.00
O938   O     0.74298   0.36285   0.37336   0.00000  Uiso   1.00
O939   O     0.75955   0.43886   0.41235   0.00000  Uiso   1.00
O940   O     0.89345   0.46042   0.50000   0.00000  Uiso   1.00
O941   O     0.94322   0.62607   0.56675   0.00000  Uiso   1.00
O942   O     0.90002   0.63015   0.63219   0.00000  Uiso   1.00
O943   O     0.90621   0.55585   0.58822   0.00000  Uiso   1.00
O944   O     0.87061   0.38488   0.63325   0.00000  Uiso   1.00
O945   O     0.93595   0.36791   0.60619   0.00000  Uiso   1.00
O946   O     0.90688   0.44432   0.58741   0.00000  Uiso   1.00
O947   O     0.72543   0.63000   0.41854   0.00000  Uiso   1.00
O948   O     0.77946   0.62177   0.36604   0.00000  Uiso   1.00
O949   O     0.75929   0.55411   0.41273   0.00000  Uiso   1.00
O950   O     0.89345   0.53958   0.50000   0.00000  Uiso   1.00
O951   O     0.77321   0.46042   0.50000   0.00000  Uiso   1.00
O952   O     0.83333   0.53959   0.42946   0.00000  Uiso   1.00
O953   O     0.83333   0.46041   0.57054   0.00000  Uiso   1.00
O954   O     0.83333   0.53959   0.57054   0.00000  Uiso   1.00
O955   O     0.83333   0.46041   0.42946   0.00000  Uiso   1.00
O956   O     0.70718   0.38027   0.48903   0.00000  Uiso   1.00
S957   S     0.77953   0.38677   0.40482   0.00000  Uiso   1.00
S958   S     0.90221   0.61271   0.58044   0.00000  Uiso   1.00
S959   S     0.89372   0.38897   0.59040   0.00000  Uiso   1.00
S960   S     0.76779   0.61088   0.41578   0.00000  Uiso   1.00
C961   C     0.08809   0.83313   0.50403   0.00000  Uiso   1.00
C962   C     0.02149   0.87360   0.50722   0.00000  Uiso   1.00
C963   C     0.28938   0.83216   0.48977   0.00000  Uiso   1.00
C964   C     0.04345   0.83205   0.50766   0.00000  Uiso   1.00
C965   C     0.14002   0.69107   0.46224   0.00000  Uiso   1.00
C966   C     0.19498   0.97515   0.53554   0.00000  Uiso   1.00
C967   C     0.19439   0.69210   0.53653   0.00000  Uiso   1.00
C968   C     0.13890   0.97429   0.46384   0.00000  Uiso   1.00
C969   C     0.04385   0.74599   0.51852   0.00000  Uiso   1.00
C970   C     0.29219   0.91504   0.46274   0.00000  Uiso   1.00
C971   C     0.28843   0.74562   0.47999   0.00000  Uiso   1.00
C972   C     0.24511   0.83315   0.49541   0.00000  Uiso   1.00
C973   C     0.04094   0.91265   0.53841   0.00000  Uiso   1.00
C974   C     0.16687   0.83321   0.40707   0.00000  Uiso   1.00
C975   C     0.16620   0.83346   0.59288   0.00000  Uiso   1.00
C976   C     0.16666   0.83320   0.35522   0.00000  Uiso   1.00
C977   C     0.16639   0.83354   0.64471   0.00000  Uiso   1.00
C978   C     0.02150   0.78975   0.50428   0.00000  Uiso   1.00
C979   C     0.31167   0.87381   0.48992   0.00000  Uiso   1.00
C980   C     0.31109   0.78977   0.49261   0.00000  Uiso   1.00
Cu981  Cu    0.16667   0.88022   0.50000   0.00000  Uiso   1.00
Cu982  Cu    0.16667   0.78645   0.50000   0.00000  Uiso   1.00
H983   H     0.08482   0.71242   0.57087   0.00000  Uiso   1.00
H984   H     0.29757   0.98165   0.44600   0.00000  Uiso   1.00
H985   H     0.24617   0.71003   0.43017   0.00000  Uiso   1.00
H986   H     0.07588   0.97004   0.54395   0.00000  Uiso   1.00
H987   H     0.06292   0.76729   0.41327   0.00000  Uiso   1.00
H988   H     0.26613   0.88434   0.61204   0.00000  Uiso   1.00
H989   H     0.25286   0.78680   0.62219   0.00000  Uiso   1.00
H990   H     0.07067   0.88229   0.38265   0.00000  Uiso   1.00
N991   N     0.16667   0.95069   0.50000   0.00000  Uiso   1.00
N992   N     0.16667   0.71598   0.50000   0.00000  Uiso   1.00
O993   O     0.10655   0.87291   0.50000   0.00000  Uiso   1.00
O994   O     0.06965   0.74279   0.56568   0.00000  Uiso   1.00
O995   O     0.26095   0.91073   0.43016   0.00000  Uiso   1.00
O996   O     0.31152   0.95797   0.47061   0.00000  Uiso   1.00
O997   O     0.29239   0.71450   0.51036   0.00000  Uiso   1.00
O998   O     0.26146   0.74057   0.43374   0.00000  Uiso   1.00
O999   O     0.03855   0.91425   0.58282   0.00000  Uiso   1.00
O1000  O     0.06215   0.94702   0.51785   0.00000  Uiso   1.00
O1001  O     0.14470   0.72463   0.37153   0.00000  Uiso   1.00
O1002  O     0.07632   0.69619   0.37336   0.00000  Uiso   1.00
O1003  O     0.09288   0.77219   0.41235   0.00000  Uiso   1.00
O1004  O     0.22679   0.79375   0.50000   0.00000  Uiso   1.00
O1005  O     0.27656   0.95941   0.56675   0.00000  Uiso   1.00
O1006  O     0.23335   0.96348   0.63219   0.00000  Uiso   1.00
O1007  O     0.23954   0.88919   0.58822   0.00000  Uiso   1.00
O1008  O     0.20395   0.71821   0.63325   0.00000  Uiso   1.00
O1009  O     0.26928   0.70124   0.60619   0.00000  Uiso   1.00
O1010  O     0.24021   0.77765   0.58741   0.00000  Uiso   1.00
O1011  O     0.05877   0.96333   0.41854   0.00000  Uiso   1.00
O1012  O     0.11279   0.95510   0.36604   0.00000  Uiso   1.00
O1013  O     0.09262   0.88745   0.41273   0.00000  Uiso   1.00
O1014  O     0.22679   0.87291   0.50000   0.00000  Uiso   1.00
O1015  O     0.10655   0.79375   0.50000   0.00000  Uiso   1.00
O1016  O     0.16667   0.87292   0.42946   0.00000  Uiso   1.00
O1017  O     0.16667   0.79375   0.57054   0.00000  Uiso   1.00
O1018  O     0.16667   0.87292   0.57054   0.00000  Uiso   1.00
O1019  O     0.16667   0.79375   0.42946   0.00000  Uiso   1.00
O1020  O     0.04051   0.71361   0.48903   0.00000  Uiso   1.00
S1021  S     0.11286   0.72011   0.40482   0.00000  Uiso   1.00
S1022  S     0.23554   0.94605   0.58044   0.00000  Uiso   1.00
S1023  S     0.22706   0.72230   0.59040   0.00000  Uiso   1.00
S1024  S     0.10112   0.94421   0.41578   0.00000  Uiso   1.00
C1025  C     0.42142   0.83313   0.50403   0.00000  Uiso   1.00
C1026  C     0.35483   0.87360   0.50722   0.00000  Uiso   1.00
C1027  C     0.62271   0.83216   0.48977   0.00000  Uiso   1.00
C1028  C     0.37678   0.83205   0.50766   0.00000  Uiso   1.00
C1029  C     0.47335   0.69107   0.46224   0.00000  Uiso   1.00
C1030  C     0.52831   0.97515   0.53554   0.00000  Uiso   1.00
C1031  C     0.52773   0.69210   0.53653   0.00000  Uiso   1.00
C1032  C     0.47224   0.97429   0.46384   0.00000  Uiso   1.00
C1033  C     0.37719   0.74599   0.51852   0.00000  Uiso   1.00
C1034  C     0.62552   0.91504   0.46274   0.00000  Uiso   1.00
C1035  C     0.62177   0.74562   0.47999   0.00000  Uiso   1.00
C1036  C     0.57844   0.83315   0.49541   0.00000  Uiso   1.00
C1037  C     0.37427   0.91265   0.53841   0.00000  Uiso   1.00
C1038  C     0.50020   0.83321   0.40707   0.00000  Uiso   1.00
C1039  C     0.49953   0.83346   0.59288   0.00000  Uiso   1.00
C1040  C     0.49999   0.83320   0.35522   0.00000  Uiso   1.00
C1041  C     0.49972   0.83354   0.64471   0.00000  Uiso   1.00
C1042  C     0.35483   0.78975   0.50428   0.00000  Uiso   1.00
C1043  C     0.64500   0.87381   0.48992   0.00000  Uiso   1.00
C1044  C     0.64442   0.78977   0.49261   0.00000  Uiso   1.00
Cu1045 Cu    0.50000   0.88022   0.50000   0.00000  Uiso   1.00
Cu1046 Cu    0.50000   0.78645   0.50000   0.00000  Uiso   1.00
H1047  H     0.41815   0.71242   0.57087   0.00000  Uiso   1.00
H1048  H     0.63090   0.98165   0.44600   0.00000  Uiso   1.00
H1049  H     0.57951   0.71003   0.43017   0.00000  Uiso   1.00
H1050  H     0.40922   0.97004   0.54395   0.00000  Uiso   1.00
H1051  H     0.39626   0.76729   0.41327   0.00000  Uiso   1.00
H1052  H     0.59946   0.88434   0.61204   0.00000  Uiso   1.00
H1053  H     0.58620   0.78680   0.62219   0.00000  Uiso   1.00
H1054  H     0.40400   0.88229   0.38265   0.00000  Uiso   1.00
N1055  N     0.50000   0.95069   0.50000   0.00000  Uiso   1.00
N1056  N     0.50000   0.71598   0.50000   0.00000  Uiso   1.00
O1057  O     0.43988   0.87291   0.50000   0.00000  Uiso   1.00
O1058  O     0.40298   0.74279   0.56568   0.00000  Uiso   1.00
O1059  O     0.59428   0.91073   0.43016   0.00000  Uiso   1.00
O1060  O     0.64485   0.95797   0.47061   0.00000  Uiso   1.00
O1061  O     0.62572   0.71450   0.51036   0.00000  Uiso   1.00
O1062  O     0.59479   0.74057   0.43374   0.00000  Uiso   1.00
O1063  O     0.37188   0.91425   0.58282   0.00000  Uiso   1.00
O1064  O     0.39548   0.94702   0.51785   0.00000  Uiso   1.00
O1065  O     0.47804   0.72463   0.37153   0.00000  Uiso   1.00
O1066  O     0.40965   0.69619   0.37336   0.00000  Uiso   1.00
O1067  O     0.42621   0.77219   0.41235   0.00000  Uiso   1.00
O1068  O     0.56012   0.79375   0.50000   0.00000  Uiso   1.00
O1069  O     0.60989   0.95941   0.56675   0.00000  Uiso   1.00
O1070  O     0.56669   0.96348   0.63219   0.00000  Uiso   1.00
O1071  O     0.57288   0.88919   0.58822   0.00000  Uiso   1.00
O1072  O     0.53728   0.71821   0.63325   0.00000  Uiso   1.00
O1073  O     0.60262   0.70124   0.60619   0.00000  Uiso   1.00
O1074  O     0.57355   0.77765   0.58741   0.00000  Uiso   1.00
O1075  O     0.39210   0.96333   0.41854   0.00000  Uiso   1.00
O1076  O     0.44613   0.95510   0.36604   0.00000  Uiso   1.00
O1077  O     0.42595   0.88745   0.41273   0.00000  Uiso   1.00
O1078  O     0.56012   0.87291   0.50000   0.00000  Uiso   1.00
O1079  O     0.43988   0.79375   0.50000   0.00000  Uiso   1.00
O1080  O     0.50000   0.87292   0.42946   0.00000  Uiso   1.00
O1081  O     0.50000   0.79375   0.57054   0.00000  Uiso   1.00
O1082  O     0.50000   0.87292   0.57054   0.00000  Uiso   1.00
O1083  O     0.50000   0.79375   0.42946   0.00000  Uiso   1.00
O1084  O     0.37385   0.71361   0.48903   0.00000  Uiso   1.00
S1085  S     0.44619   0.72011   0.40482   0.00000  Uiso   1.00
S1086  S     0.56888   0.94605   0.58044   0.00000  Uiso   1.00
S1087  S     0.56039   0.72230   0.59040   0.00000  Uiso   1.00
S1088  S     0.43446   0.94421   0.41578   0.00000  Uiso   1.00
C1089  C     0.75476   0.83313   0.50403   0.00000  Uiso   1.00
C1090  C     0.68816   0.87360   0.50722   0.00000  Uiso   1.00
C1091  C     0.95605   0.83216   0.48977   0.00000  Uiso   1.00
C1092  C     0.71011   0.83205   0.50766   0.00000  Uiso   1.00
C1093  C     0.80668   0.69107   0.46224   0.00000  Uiso   1.00
C1094  C     0.86165   0.97515   0.53554   0.00000  Uiso   1.00
C1095  C     0.86106   0.69210   0.53653   0.00000  Uiso   1.00
C1096  C     0.80557   0.97429   0.46384   0.00000  Uiso   1.00
C1097  C     0.71052   0.74599   0.51852   0.00000  Uiso   1.00
C1098  C     0.95886   0.91504   0.46274   0.00000  Uiso   1.00
C1099  C     0.95510   0.74562   0.47999   0.00000  Uiso   1.00
C1100  C     0.91177   0.83315   0.49541   0.00000  Uiso   1.00
C1101  C     0.70761   0.91265   0.53841   0.00000  Uiso   1.00
C1102  C     0.83354   0.83321   0.40707   0.00000  Uiso   1.00
C1103  C     0.83287   0.83346   0.59288   0.00000  Uiso   1.00
C1104  C     0.83332   0.83320   0.35522   0.00000  Uiso   1.00
C1105  C     0.83305   0.83354   0.64471   0.00000  Uiso   1.00
C1106  C     0.68817   0.78975   0.50428   0.00000  Uiso   1.00
C1107  C     0.97834   0.87381   0.48992   0.00000  Uiso   1.00
C1108  C     0.97775   0.78977   0.49261   0.00000  Uiso   1.00
Cu1109 Cu    0.83333   0.88022   0.50000   0.00000  Uiso   1.00
Cu1110 Cu    0.83333   0.78645   0.50000   0.00000  Uiso   1.00
H1111  H     0.75149   0.71242   0.57087   0.00000  Uiso   1.00
H1112  H     0.96423   0.98165   0.44600   0.00000  Uiso   1.00
H1113  H     0.91284   0.71003   0.43017   0.00000  Uiso   1.00
H1114  H     0.74255   0.97004   0.54395   0.00000  Uiso   1.00
H1115  H     0.72959   0.76729   0.41327   0.00000  Uiso   1.00
H1116  H     0.93280   0.88434   0.61204   0.00000  Uiso   1.00
H1117  H     0.91953   0.78680   0.62219   0.00000  Uiso   1.00
H1118  H     0.73733   0.88229   0.38265   0.00000  Uiso   1.00
N1119  N     0.83333   0.95069   0.50000   0.00000  Uiso   1.00
N1120  N     0.83333   0.71598   0.50000   0.00000  Uiso   1.00
O1121  O     0.77321   0.87291   0.50000   0.00000  Uiso   1.00
O1122  O     0.73631   0.74279   0.56568   0.00000  Uiso   1.00
O1123  O     0.92762   0.91073   0.43016   0.00000  Uiso   1.00
O1124  O     0.97818   0.95797   0.47061   0.00000  Uiso   1.00
O1125  O     0.95905   0.71450   0.51036   0.00000  Uiso   1.00
O1126  O     0.92812   0.74057   0.43374   0.00000  Uiso   1.00
O1127  O     0.70522   0.91425   0.58282   0.00000  Uiso   1.00
O1128  O     0.72881   0.94702   0.51785   0.00000  Uiso   1.00
O1129  O     0.81137   0.72463   0.37153   0.00000  Uiso   1.00
O1130  O     0.74298   0.69619   0.37336   0.00000  Uiso   1.00
O1131  O     0.75955   0.77219   0.41235   0.00000  Uiso   1.00
O1132  O     0.89345   0.79375   0.50000   0.00000  Uiso   1.00
O1133  O     0.94322   0.95941   0.56675   0.00000  Uiso   1.00
O1134  O     0.90002   0.96348   0.63219   0.00000  Uiso   1.00
O1135  O     0.90621   0.88919   0.58822   0.00000  Uiso   1.00
O1136  O     0.87061   0.71821   0.63325   0.00000  Uiso   1.00
O1137  O     0.93595   0.70124   0.60619   0.00000  Uiso   1.00
O1138  O     0.90688   0.77765   0.58741   0.00000  Uiso   1.00
O1139  O     0.72543   0.96333   0.41854   0.00000  Uiso   1.00
O1140  O     0.77946   0.95510   0.36604   0.00000  Uiso   1.00
O1141  O     0.75929   0.88745   0.41273   0.00000  Uiso   1.00
O1142  O     0.89345   0.87291   0.50000   0.00000  Uiso   1.00
O1143  O     0.77321   0.79375   0.50000   0.00000  Uiso   1.00
O1144  O     0.83333   0.87292   0.42946   0.00000  Uiso   1.00
O1145  O     0.83333   0.79375   0.57054   0.00000  Uiso   1.00
O1146  O     0.83333   0.87292   0.57054   0.00000  Uiso   1.00
O1147  O     0.83333   0.79375   0.42946   0.00000  Uiso   1.00
O1148  O     0.70718   0.71361   0.48903   0.00000  Uiso   1.00
S1149  S     0.77953   0.72011   0.40482   0.00000  Uiso   1.00
S1150  S     0.90221   0.94605   0.58044   0.00000  Uiso   1.00
S1151  S     0.89372   0.72230   0.59040   0.00000  Uiso   1.00
S1152  S     0.76779   0.94421   0.41578   0.00000  Uiso   1.00
C1153  C     0.08809   0.16647   0.83736   0.00000  Uiso   1.00
C1154  C     0.02149   0.20693   0.84056   0.00000  Uiso   1.00
C1155  C     0.28938   0.16549   0.82310   0.00000  Uiso   1.00
C1156  C     0.04345   0.16538   0.84100   0.00000  Uiso   1.00
C1157  C     0.14002   0.02440   0.79558   0.00000  Uiso   1.00
C1158  C     0.19498   0.30848   0.86888   0.00000  Uiso   1.00
C1159  C     0.19439   0.02544   0.86987   0.00000  Uiso   1.00
C1160  C     0.13890   0.30762   0.79717   0.00000  Uiso   1.00
C1161  C     0.04385   0.07932   0.85185   0.00000  Uiso   1.00
C1162  C     0.29219   0.24837   0.79607   0.00000  Uiso   1.00
C1163  C     0.28843   0.07895   0.81333   0.00000  Uiso   1.00
C1164  C     0.24511   0.16648   0.82874   0.00000  Uiso   1.00
C1165  C     0.04094   0.24599   0.87174   0.00000  Uiso   1.00
C1166  C     0.16687   0.16654   0.74040   0.00000  Uiso   1.00
C1167  C     0.16620   0.16680   0.92621   0.00000  Uiso   1.00
C1168  C     0.16666   0.16653   0.68856   0.00000  Uiso   1.00
C1169  C     0.16639   0.16687   0.97805   0.00000  Uiso   1.00
C1170  C     0.02150   0.12308   0.83762   0.00000  Uiso   1.00
C1171  C     0.31167   0.20715   0.82326   0.00000  Uiso   1.00
C1172  C     0.31109   0.12310   0.82595   0.00000  Uiso   1.00
Cu1173 Cu    0.16667   0.21355   0.83333   0.00000  Uiso   1.00
Cu1174 Cu    0.16667   0.11978   0.83333   0.00000  Uiso   1.00
H1175  H     0.08482   0.04576   0.90420   0.00000  Uiso   1.00
H1176  H     0.29757   0.31498   0.77933   0.00000  Uiso   1.00
H1177  H     0.24617   0.04336   0.76350   0.00000  Uiso   1.00
H1178  H     0.07588   0.30337   0.87729   0.00000  Uiso   1.00
H1179  H     0.06292   0.10062   0.74660   0.00000  Uiso   1.00
H1180  H     0.26613   0.21767   0.94537   0.00000  Uiso   1.00
H1181  H     0.25286   0.12013   0.95553   0.00000  Uiso   1.00
H1182  H     0.07067   0.21563   0.71598   0.00000  Uiso   1.00
N1183  N     0.16667   0.28402   0.83333   0.00000  Uiso   1.00
N1184  N     0.16667   0.04931   0.83333   0.00000  Uiso   1.00
O1185  O     0.10655   0.20625   0.83333   0.00000  Uiso   1.00
O1186  O     0.06965   0.07613   0.89901   0.00000  Uiso   1.00
O1187  O     0.26095   0.24406   0.76349   0.00000  Uiso   1.00
O1188  O     0.31152   0.29130   0.80395   0.00000  Uiso   1.00
O1189  O     0.29239   0.04783   0.84369   0.00000  Uiso   1.00
O1190  O     0.26146   0.07391   0.76707   0.00000  Uiso   1.00
O1191  O     0.03855   0.24759   0.91616   0.00000  Uiso   1.00
O1192  O     0.06215   0.28035   0.85119   0.00000  Uiso   1.00
O1193  O     0.14470   0.05796   0.70487   0.00000  Uiso   1.00
O1194  O     0.07632   0.02952   0.70670   0.00000  Uiso   1.00
O1195  O     0.09288   0.10552   0.74568   0.00000  Uiso   1.00
O1196  O     0.22679   0.12709   0.83334   0.00000  Uiso   1.00
O1197  O     0.27656   0.29274   0.90008   0.00000  Uiso   1.00
O1198  O     0.23335   0.29682   0.96553   0.00000  Uiso   1.00
O1199  O     0.23954   0.22252   0.92155   0.00000  Uiso   1.00
O1200  O     0.20395   0.05154   0.96658   0.00000  Uiso   1.00
O1201  O     0.26928   0.03458   0.93952   0.00000  Uiso   1.00
O1202  O     0.24021   0.11098   0.92075   0.00000  Uiso   1.00
O1203  O     0.05877   0.29666   0.75188   0.00000  Uiso   1.00
O1204  O     0.11279   0.28843   0.69938   0.00000  Uiso   1.00
O1205  O     0.09262   0.22078   0.74606   0.00000  Uiso   1.00
O1206  O     0.22679   0.20625   0.83334   0.00000  Uiso   1.00
O1207  O     0.10655   0.12709   0.83333   0.00000  Uiso   1.00
O1208  O     0.16667   0.20625   0.76280   0.00000  Uiso   1.00
O1209  O     0.16667   0.12708   0.90387   0.00000  Uiso   1.00
O1210  O     0.16667   0.20625   0.90387   0.00000  Uiso   1.00
O1211  O     0.16667   0.12708   0.76280   0.00000  Uiso   1.00
O1212  O     0.04051   0.04694   0.82237   0.00000  Uiso   1.00
S1213  S     0.11286   0.05344   0.73815   0.00000  Uiso   1.00
S1214  S     0.23554   0.27938   0.91377   0.00000  Uiso   1.00
S1215  S     0.22706   0.05564   0.92373   0.00000  Uiso   1.00
S1216  S     0.10112   0.27754   0.74911   0.00000  Uiso   1.00
C1217  C     0.42142   0.16647   0.83736   0.00000  Uiso   1.00
C1218  C     0.35483   0.20693   0.84056   0.00000  Uiso   1.00
C1219  C     0.62271   0.16549   0.82310   0.00000  Uiso   1.00
C1220  C     0.37678   0.16538   0.84100   0.00000  Uiso   1.00
C1221  C     0.47335   0.02440   0.79558   0.00000  Uiso   1.00
C1222  C     0.52831   0.30848   0.86888   0.00000  Uiso   1.00
C1223  C     0.52773   0.02544   0.86987   0.00000  Uiso   1.00
C1224  C     0.47224   0.30762   0.79717   0.00000  Uiso   1.00
C1225  C     0.37719   0.07932   0.85185   0.00000  Uiso   1.00
C1226  C     0.62552   0.24837   0.79607   0.00000  Uiso   1.00
C1227  C     0.62177   0.07895   0.81333   0.00000  Uiso   1.00
C1228  C     0.57844   0.16648   0.82874   0.00000  Uiso   1.00
C1229  C     0.37427   0.24599   0.87174   0.00000  Uiso   1.00
C1230  C     0.50020   0.16654   0.74040   0.00000  Uiso   1.00
C1231  C     0.49953   0.16680   0.92621   0.00000  Uiso   1.00
C1232  C     0.49999   0.16653   0.68856   0.00000  Uiso   1.00
C1233  C     0.49972   0.16687   0.97805   0.00000  Uiso   1.00
C1234  C     0.35483   0.12308   0.83762   0.00000  Uiso   1.00
C1235  C     0.64500   0.20715   0.82326   0.00000  Uiso   1.00
C1236  C     0.64442   0.12310   0.82595   0.00000  Uiso   1.00
Cu1237 Cu    0.50000   0.21355   0.83333   0.00000  Uiso   1.00
Cu1238 Cu    0.50000   0.11978   0.83333   0.00000  Uiso   1.00
H1239  H     0.41815   0.04576   0.90420   0.00000  Uiso   1.00
H1240  H     0.63090   0.31498   0.77933   0.00000  Uiso   1.00
H1241  H     0.57951   0.04336   0.76350   0.00000  Uiso   1.00
H1242  H     0.40922   0.30337   0.87729   0.00000  Uiso   1.00
H1243  H     0.39626   0.10062   0.74660   0.00000  Uiso   1.00
H1244  H     0.59946   0.21767   0.94537   0.00000  Uiso   1.00
H1245  H     0.58620   0.12013   0.95553   0.00000  Uiso   1.00
H1246  H     0.40400   0.21563   0.71598   0.00000  Uiso   1.00
N1247  N     0.50000   0.28402   0.83333   0.00000  Uiso   1.00
N1248  N     0.50000   0.04931   0.83333   0.00000  Uiso   1.00
O1249  O     0.43988   0.20625   0.83333   0.00000  Uiso   1.00
O1250  O     0.40298   0.07613   0.89901   0.00000  Uiso   1.00
O1251  O     0.59428   0.24406   0.76349   0.00000  Uiso   1.00
O1252  O     0.64485   0.29130   0.80395   0.00000  Uiso   1.00
O1253  O     0.62572   0.04783   0.84369   0.00000  Uiso   1.00
O1254  O     0.59479   0.07391   0.76707   0.00000  Uiso   1.00
O1255  O     0.37188   0.24759   0.91616   0.00000  Uiso   1.00
O1256  O     0.39548   0.28035   0.85119   0.00000  Uiso   1.00
O1257  O     0.47804   0.05796   0.70487   0.00000  Uiso   1.00
O1258  O     0.40965   0.02952   0.70670   0.00000  Uiso   1.00
O1259  O     0.42621   0.10552   0.74568   0.00000  Uiso   1.00
O1260  O     0.56012   0.12709   0.83334   0.00000  Uiso   1.00
O1261  O     0.60989   0.29274   0.90008   0.00000  Uiso   1.00
O1262  O     0.56669   0.29682   0.96553   0.00000  Uiso   1.00
O1263  O     0.57288   0.22252   0.92155   0.00000  Uiso   1.00
O1264  O     0.53728   0.05154   0.96658   0.00000  Uiso   1.00
O1265  O     0.60262   0.03458   0.93952   0.00000  Uiso   1.00
O1266  O     0.57355   0.11098   0.92075   0.00000  Uiso   1.00
O1267  O     0.39210   0.29666   0.75188   0.00000  Uiso   1.00
O1268  O     0.44613   0.28843   0.69938   0.00000  Uiso   1.00
O1269  O     0.42595   0.22078   0.74606   0.00000  Uiso   1.00
O1270  O     0.56012   0.20625   0.83334   0.00000  Uiso   1.00
O1271  O     0.43988   0.12709   0.83333   0.00000  Uiso   1.00
O1272  O     0.50000   0.20625   0.76280   0.00000  Uiso   1.00
O1273  O     0.50000   0.12708   0.90387   0.00000  Uiso   1.00
O1274  O     0.50000   0.20625   0.90387   0.00000  Uiso   1.00
O1275  O     0.50000   0.12708   0.76280   0.00000  Uiso   1.00
O1276  O     0.37385   0.04694   0.82237   0.00000  Uiso   1.00
S1277  S     0.44619   0.05344   0.73815   0.00000  Uiso   1.00
S1278  S     0.56888   0.27938   0.91377   0.00000  Uiso   1.00
S1279  S     0.56039   0.05564   0.92373   0.00000  Uiso   1.00
S1280  S     0.43446   0.27754   0.74911   0.00000  Uiso   1.00
C1281  C     0.75476   0.16647   0.83736   0.00000  Uiso   1.00
C1282  C     0.68816   0.20693   0.84056   0.00000  Uiso   1.00
C1283  C     0.95605   0.16549   0.82310   0.00000  Uiso   1.00
C1284  C     0.71011   0.16538   0.84100   0.00000  Uiso   1.00
C1285  C     0.80668   0.02440   0.79558   0.00000  Uiso   1.00
C1286  C     0.86165   0.30848   0.86888   0.00000  Uiso   1.00
C1287  C     0.86106   0.02544   0.86987   0.00000  Uiso   1.00
C1288  C     0.80557   0.30762   0.79717   0.00000  Uiso   1.00
C1289  C     0.71052   0.07932   0.85185   0.00000  Uiso   1.00
C1290  C     0.95886   0.24837   0.79607   0.00000  Uiso   1.00
C1291  C     0.95510   0.07895   0.81333   0.00000  Uiso   1.00
C1292  C     0.91177   0.16648   0.82874   0.00000  Uiso   1.00
C1293  C     0.70761   0.24599   0.87174   0.00000  Uiso   1.00
C1294  C     0.83354   0.16654   0.74040   0.00000  Uiso   1.00
C1295  C     0.83287   0.16680   0.92621   0.00000  Uiso   1.00
C1296  C     0.83332   0.16653   0.68856   0.00000  Uiso   1.00
C1297  C     0.83305   0.16687   0.97805   0.00000  Uiso   1.00
C1298  C     0.68817   0.12308   0.83762   0.00000  Uiso   1.00
C1299  C     0.97834   0.20715   0.82326   0.00000  Uiso   1.00
C1300  C     0.97775   0.12310   0.82595   0.00000  Uiso   1.00
Cu1301 Cu    0.83333   0.21355   0.83333   0.00000  Uiso   1.00
Cu1302 Cu    0.83333   0.11978   0.83333   0.00000  Uiso   1.00
H1303  H     0.75149   0.04576   0.90420   0.00000  Uiso   1.00
H1304  H     0.96423   0.31498   0.77933   0.00000  Uiso   1.00
H1305  H     0.91284   0.04336   0.76350   0.00000  Uiso   1.00
H1306  H     0.74255   0.30337   0.87729   0.00000  Uiso   1.00
H1307  H     0.72959   0.10062   0.74660   0.00000  Uiso   1.00
H1308  H     0.93280   0.21767   0.94537   0.00000  Uiso   1.00
H1309  H     0.91953   0.12013   0.95553   0.00000  Uiso   1.00
H1310  H     0.73733   0.21563   0.71598   0.00000  Uiso   1.00
N1311  N     0.83333   0.28402   0.83333   0.00000  Uiso   1.00
N1312  N     0.83333   0.04931   0.83333   0.00000  Uiso   1.00
O1313  O     0.77321   0.20625   0.83333   0.00000  Uiso   1.00
O1314  O     0.73631   0.07613   0.89901   0.00000  Uiso   1.00
O1315  O     0.92762   0.24406   0.76349   0.00000  Uiso   1.00
O1316  O     0.97818   0.29130   0.80395   0.00000  Uiso   1.00
O1317  O     0.95905   0.04783   0.84369   0.00000  Uiso   1.00
O1318  O     0.92812   0.07391   0.76707   0.00000  Uiso   1.00
O1319  O     0.70522   0.24759   0.91616   0.00000  Uiso   1.00
O1320  O     0.72881   0.28035   0.85119   0.00000  Uiso   1.00
O1321  O     0.81137   0.05796   0.70487   0.00000  Uiso   1.00
O1322  O     0.74298   0.02952   0.70670   0.00000  Uiso   1.00
O1323  O     0.75955   0.10552   0.74568   0.00000  Uiso   1.00
O1324  O     0.89345   0.12709   0.83334   0.00000  Uiso   1.00
O1325  O     0.94322   0.29274   0.90008   0.00000  Uiso   1.00
O1326  O     0.90002   0.29682   0.96553   0.00000  Uiso   1.00
O1327  O     0.90621   0.22252   0.92155   0.00000  Uiso   1.00
O1328  O     0.87061   0.05154   0.96658   0.00000  Uiso   1.00
O1329  O     0.93595   0.03458   0.93952   0.00000  Uiso   1.00
O1330  O     0.90688   0.11098   0.92075   0.00000  Uiso   1.00
O1331  O     0.72543   0.29666   0.75188   0.00000  Uiso   1.00
O1332  O     0.77946   0.28843   0.69938   0.00000  Uiso   1.00
O1333  O     0.75929   0.22078   0.74606   0.00000  Uiso   1.00
O1334  O     0.89345   0.20625   0.83334   0.00000  Uiso   1.00
O1335  O     0.77321   0.12709   0.83333   0.00000  Uiso   1.00
O1336  O     0.83333   0.20625   0.76280   0.00000  Uiso   1.00
O1337  O     0.83333   0.12708   0.90387   0.00000  Uiso   1.00
O1338  O     0.83333   0.20625   0.90387   0.00000  Uiso   1.00
O1339  O     0.83333   0.12708   0.76280   0.00000  Uiso   1.00
O1340  O     0.70718   0.04694   0.82237   0.00000  Uiso   1.00
S1341  S     0.77953   0.05344   0.73815   0.00000  Uiso   1.00
S1342  S     0.90221   0.27938   0.91377   0.00000  Uiso   1.00
S1343  S     0.89372   0.05564   0.92373   0.00000  Uiso   1.00
S1344  S     0.76779   0.27754   0.74911   0.00000  Uiso   1.00
C1345  C     0.08809   0.49980   0.83736   0.00000  Uiso   1.00
C1346  C     0.02149   0.54027   0.84056   0.00000  Uiso   1.00
C1347  C     0.28938   0.49882   0.82310   0.00000  Uiso   1.00
C1348  C     0.04345   0.49872   0.84100   0.00000  Uiso   1.00
C1349  C     0.14002   0.35774   0.79558   0.00000  Uiso   1.00
C1350  C     0.19498   0.64182   0.86888   0.00000  Uiso   1.00
C1351  C     0.19439   0.35877   0.86987   0.00000  Uiso   1.00
C1352  C     0.13890   0.64096   0.79717   0.00000  Uiso   1.00
C1353  C     0.04385   0.41266   0.85185   0.00000  Uiso   1.00
C1354  C     0.29219   0.58170   0.79607   0.00000  Uiso   1.00
C1355  C     0.28843   0.41229   0.81333   0.00000  Uiso   1.00
C1356  C     0.24511   0.49981   0.82874   0.00000  Uiso   1.00
C1357  C     0.04094   0.57932   0.87174   0.00000  Uiso   1.00
C1358  C     0.16687   0.49988   0.74040   0.00000  Uiso   1.00
C1359  C     0.16620   0.50013   0.92621   0.00000  Uiso   1.00
C1360  C     0.16666   0.49986   0.68856   0.00000  Uiso   1.00
C1361  C     0.16639   0.50021   0.97805   0.00000  Uiso   1.00
C1362  C     0.02150   0.45641   0.83762   0.00000  Uiso   1.00
C1363  C     0.31167   0.54048   0.82326   0.00000  Uiso   1.00
C1364  C     0.31109   0.45644   0.82595   0.00000  Uiso   1.00
Cu1365 Cu    0.16667   0.54689   0.83333   0.00000  Uiso   1.00
Cu1366 Cu    0.16667   0.45311   0.83333   0.00000  Uiso   1.00
H1367  H     0.08482   0.37909   0.90420   0.00000  Uiso   1.00
H1368  H     0.29757   0.64831   0.77933   0.00000  Uiso   1.00
H1369  H     0.24617   0.37669   0.76350   0.00000  Uiso   1.00
H1370  H     0.07588   0.63671   0.87729   0.00000  Uiso   1.00
H1371  H     0.06292   0.43395   0.74660   0.00000  Uiso   1.00
H1372  H     0.26613   0.55101   0.94537   0.00000  Uiso   1.00
H1373  H     0.25286   0.45346   0.95553   0.00000  Uiso   1.00
H1374  H     0.07067   0.54896   0.71598   0.00000  Uiso   1.00
N1375  N     0.16667   0.61736   0.83333   0.00000  Uiso   1.00
N1376  N     0.16667   0.38264   0.83333   0.00000  Uiso   1.00
O1377  O     0.10655   0.53958   0.83333   0.00000  Uiso   1.00
O1378  O     0.06965   0.40946   0.89901   0.00000  Uiso   1.00
O1379  O     0.26095   0.57739   0.76349   0.00000  Uiso   1.00
O1380  O     0.31152   0.62464   0.80395   0.00000  Uiso   1.00
O1381  O     0.29239   0.38117   0.84369   0.00000  Uiso   1.00
O1382  O     0.26146   0.40724   0.76707   0.00000  Uiso   1.00
O1383  O     0.03855   0.58092   0.91616   0.00000  Uiso   1.00
O1384  O     0.06215   0.61369   0.85119   0.00000  Uiso   1.00
O1385  O     0.14470   0.39130   0.70487   0.00000  Uiso   1.00
O1386  O     0.07632   0.36285   0.70670   0.00000  Uiso   1.00
O1387  O     0.09288   0.43886   0.74568   0.00000  Uiso   1.00
O1388  O     0.22679   0.46042   0.83334   0.00000  Uiso   1.00
O1389  O     0.27656   0.62607   0.90008   0.00000  Uiso   1.00
O1390  O     0.23335   0.63015   0.96553   0.00000  Uiso   1.00
O1391  O     0.23954   0.55585   0.92155   0.00000  Uiso   1.00
O1392  O     0.20395   0.38488   0.96658   0.00000  Uiso   1.00
O1393  O     0.26928   0.36791   0.93952   0.00000  Uiso   1.00
O1394  O     0.24021   0.44432   0.92075   0.00000  Uiso   1.00
O1395  O     0.05877   0.63000   0.75188   0.00000  Uiso   1.00
O1396  O     0.11279   0.62177   0.69938   0.00000  Uiso   1.00
O1397  O     0.09262   0.55411   0.74606   0.00000  Uiso   1.00
O1398  O     0.22679   0.53958   0.83334   0.00000  Uiso   1.00
O1399  O     0.10655   0.46042   0.83333   0.00000  Uiso   1.00
O1400  O     0.16667   0.53959   0.76280   0.00000  Uiso   1.00
O1401  O     0.16667   0.46041   0.90387   0.00000  Uiso   1.00
O1402  O     0.16667   0.53959   0.90387   0.00000  Uiso   1.00
O1403  O     0.16667   0.46041   0.76280   0.00000  Uiso   1.00
O1404  O     0.04051   0.38027   0.82237   0.00000  Uiso   1.00
S1405  S     0.11286   0.38677   0.73815   0.00000  Uiso   1.00
S1406  S     0.23554   0.61271   0.91377   0.00000  Uiso   1.00
S1407  S     0.22706   0.38897   0.92373   0.00000  Uiso   1.00
S1408  S     0.10112   0.61088   0.74911   0.00000  Uiso   1.00
C1409  C     0.42142   0.49980   0.83736   0.00000  Uiso   1.00
C1410  C     0.35483   0.54027   0.84056   0.00000  Uiso   1.00
C1411  C     0.62271   0.49882   0.82310   0.00000  Uiso   1.00
C1412  C     0.37678   0.49872   0.84100   0.00000  Uiso   1.00
C1413  C     0.47335   0.35774   0.79558   0.00000  Uiso   1.00
C1414  C     0.52831   0.64182   0.86888   0.00000  Uiso   1.00
C1415  C     0.52773   0.35877   0.86987   0.00000  Uiso   1.00
C1416  C     0.47224   0.64096   0.79717   0.00000  Uiso   1.00
C1417  C     0.37719   0.41266   0.85185   0.00000  Uiso   1.00
C1418  C     0.62552   0.58170   0.79607   0.00000  Uiso   1.00
C1419  C     0.62177   0.41229   0.81333   0.00000  Uiso   1.00
C1420  C     0.57844   0.49981   0.82874   0.00000  Uiso   1.00
C1421  C     0.37427   0.57932   0.87174   0.00000  Uiso   1.00
C1422  C     0.50020   0.49988   0.74040   0.00000  Uiso   1.00
C1423  C     0.49953   0.50013   0.92621   0.00000  Uiso   1.00
C1424  C     0.49999   0.49986   0.68856   0.00000  Uiso   1.00
C1425  C     0.49972   0.50021   0.97805   0.00000  Uiso   1.00
C1426  C     0.35483   0.45641   0.83762   0.00000  Uiso   1.00
C1427  C     0.64500   0.54048   0.82326   0.00000  Uiso   1.00
C1428  C     0.64442   0.45644   0.82595   0.00000  Uiso   1.00
Cu1429 Cu    0.50000   0.54689   0.83333   0.00000  Uiso   1.00
Cu1430 Cu    0.50000   0.45311   0.83333   0.00000  Uiso   1.00
H1431  H     0.41815   0.37909   0.90420   0.00000  Uiso   1.00
H1432  H     0.63090   0.64831   0.77933   0.00000  Uiso   1.00
H1433  H     0.57951   0.37669   0.76350   0.00000  Uiso   1.00
H1434  H     0.40922   0.63671   0.87729   0.00000  Uiso   1.00
H1435  H     0.39626   0.43395   0.74660   0.00000  Uiso   1.00
H1436  H     0.59946   0.55101   0.94537   0.00000  Uiso   1.00
H1437  H     0.58620   0.45346   0.95553   0.00000  Uiso   1.00
H1438  H     0.40400   0.54896   0.71598   0.00000  Uiso   1.00
N1439  N     0.50000   0.61736   0.83333   0.00000  Uiso   1.00
N1440  N     0.50000   0.38264   0.83333   0.00000  Uiso   1.00
O1441  O     0.43988   0.53958   0.83333   0.00000  Uiso   1.00
O1442  O     0.40298   0.40946   0.89901   0.00000  Uiso   1.00
O1443  O     0.59428   0.57739   0.76349   0.00000  Uiso   1.00
O1444  O     0.64485   0.62464   0.80395   0.00000  Uiso   1.00
O1445  O     0.62572   0.38117   0.84369   0.00000  Uiso   1.00
O1446  O     0.59479   0.40724   0.76707   0.00000  Uiso   1.00
O1447  O     0.37188   0.58092   0.91616   0.00000  Uiso   1.00
O1448  O     0.39548   0.61369   0.85119   0.00000  Uiso   1.00
O1449  O     0.47804   0.39130   0.70487   0.00000  Uiso   1.00
O1450  O     0.40965   0.36285   0.70670   0.00000  Uiso   1.00
O1451  O     0.42621   0.43886   0.74568   0.00000  Uiso   1.00
O1452  O     0.56012   0.46042   0.83334   0.00000  Uiso   1.00
O1453  O     0.60989   0.62607   0.90008   0.00000  Uiso   1.00
O1454  O     0.56669   0.63015   0.96553   0.00000  Uiso   1.00
O1455  O     0.57288   0.55585   0.92155   0.00000  Uiso   1.00
O1456  O     0.53728   0.38488   0.96658   0.00000  Uiso   1.00
O1457  O     0.60262   0.36791   0.93952   0.00000  Uiso   1.00
O1458  O     0.57355   0.44432   0.92075   0.00000  Uiso   1.00
O1459  O     0.39210   0.63000   0.75188   0.00000  Uiso   1.00
O1460  O     0.44613   0.62177   0.69938   0.00000  Uiso   1.00
O1461  O     0.42595   0.55411   0.74606   0.00000  Uiso   1.00
O1462  O     0.56012   0.53958   0.83334   0.00000  Uiso   1.00
O1463  O     0.43988   0.46042   0.83333   0.00000  Uiso   1.00
O1464  O     0.50000   0.53959   0.76280   0.00000  Uiso   1.00
O1465  O     0.50000   0.46041   0.90387   0.00000  Uiso   1.00
O1466  O     0.50000   0.53959   0.90387   0.00000  Uiso   1.00
O1467  O     0.50000   0.46041   0.76280   0.00000  Uiso   1.00
O1468  O     0.37385   0.38027   0.82237   0.00000  Uiso   1.00
S1469  S     0.44619   0.38677   0.73815   0.00000  Uiso   1.00
S1470  S     0.56888   0.61271   0.91377   0.00000  Uiso   1.00
S1471  S     0.56039   0.38897   0.92373   0.00000  Uiso   1.00
S1472  S     0.43446   0.61088   0.74911   0.00000  Uiso   1.00
C1473  C     0.75476   0.49980   0.83736   0.00000  Uiso   1.00
C1474  C     0.68816   0.54027   0.84056   0.00000  Uiso   1.00
C1475  C     0.95605   0.49882   0.82310   0.00000  Uiso   1.00
C1476  C     0.71011   0.49872   0.84100   0.00000  Uiso   1.00
C1477  C     0.80668   0.35774   0.79558   0.00000  Uiso   1.00
C1478  C     0.86165   0.64182   0.86888   0.00000  Uiso   1.00
C1479  C     0.86106   0.35877   0.86987   0.00000  Uiso   1.00
C1480  C     0.80557   0.64096   0.79717   0.00000  Uiso   1.00
C1481  C     0.71052   0.41266   0.85185   0.00000  Uiso   1.00
C1482  C     0.95886   0.58170   0.79607   0.00000  Uiso   1.00
C1483  C     0.95510   0.41229   0.81333   0.00000  Uiso   1.00
C1484  C     0.91177   0.49981   0.82874   0.00000  Uiso   1.00
C1485  C     0.70761   0.57932   0.87174   0.00000  Uiso   1.00
C1486  C     0.83354   0.49988   0.74040   0.00000  Uiso   1.00
C1487  C     0.83287   0.50013   0.92621   0.00000  Uiso   1.00
C1488  C     0.83332   0.49986   0.68856   0.00000  Uiso   1.00
C1489  C     0.83305   0.50021   0.97805   0.00000  Uiso   1.00
C1490  C     0.68817   0.45641   0.83762   0.00000  Uiso   1.00
C1491  C     0.97834   0.54048   0.82326   0.00000  Uiso   1.00
C1492  C     0.97775   0.45644   0.82595   0.00000  Uiso   1.00
Cu1493 Cu    0.83333   0.54689   0.83333   0.00000  Uiso   1.00
Cu1494 Cu    0.83333   0.45311   0.83333   0.00000  Uiso   1.00
H1495  H     0.75149   0.37909   0.90420   0.00000  Uiso   1.00
H1496  H     0.96423   0.64831   0.77933   0.00000  Uiso   1.00
H1497  H     0.91284   0.37669   0.76350   0.00000  Uiso   1.00
H1498  H     0.74255   0.63671   0.87729   0.00000  Uiso   1.00
H1499  H     0.72959   0.43395   0.74660   0.00000  Uiso   1.00
H1500  H     0.93280   0.55101   0.94537   0.00000  Uiso   1.00
H1501  H     0.91953   0.45346   0.95553   0.00000  Uiso   1.00
H1502  H     0.73733   0.54896   0.71598   0.00000  Uiso   1.00
N1503  N     0.83333   0.61736   0.83333   0.00000  Uiso   1.00
N1504  N     0.83333   0.38264   0.83333   0.00000  Uiso   1.00
O1505  O     0.77321   0.53958   0.83333   0.00000  Uiso   1.00
O1506  O     0.73631   0.40946   0.89901   0.00000  Uiso   1.00
O1507  O     0.92762   0.57739   0.76349   0.00000  Uiso   1.00
O1508  O     0.97818   0.62464   0.80395   0.00000  Uiso   1.00
O1509  O     0.95905   0.38117   0.84369   0.00000  Uiso   1.00
O1510  O     0.92812   0.40724   0.76707   0.00000  Uiso   1.00
O1511  O     0.70522   0.58092   0.91616   0.00000  Uiso   1.00
O1512  O     0.72881   0.61369   0.85119   0.00000  Uiso   1.00
O1513  O     0.81137   0.39130   0.70487   0.00000  Uiso   1.00
O1514  O     0.74298   0.36285   0.70670   0.00000  Uiso   1.00
O1515  O     0.75955   0.43886   0.74568   0.00000  Uiso   1.00
O1516  O     0.89345   0.46042   0.83334   0.00000  Uiso   1.00
O1517  O     0.94322   0.62607   0.90008   0.00000  Uiso   1.00
O1518  O     0.90002   0.63015   0.96553   0.00000  Uiso   1.00
O1519  O     0.90621   0.55585   0.92155   0.00000  Uiso   1.00
O1520  O     0.87061   0.38488   0.96658   0.00000  Uiso   1.00
O1521  O     0.93595   0.36791   0.93952   0.00000  Uiso   1.00
O1522  O     0.90688   0.44432   0.92075   0.00000  Uiso   1.00
O1523  O     0.72543   0.63000   0.75188   0.00000  Uiso   1.00
O1524  O     0.77946   0.62177   0.69938   0.00000  Uiso   1.00
O1525  O     0.75929   0.55411   0.74606   0.00000  Uiso   1.00
O1526  O     0.89345   0.53958   0.83334   0.00000  Uiso   1.00
O1527  O     0.77321   0.46042   0.83333   0.00000  Uiso   1.00
O1528  O     0.83333   0.53959   0.76280   0.00000  Uiso   1.00
O1529  O     0.83333   0.46041   0.90387   0.00000  Uiso   1.00
O1530  O     0.83333   0.53959   0.90387   0.00000  Uiso   1.00
O1531  O     0.83333   0.46041   0.76280   0.00000  Uiso   1.00
O1532  O     0.70718   0.38027   0.82237   0.00000  Uiso   1.00
S1533  S     0.77953   0.38677   0.73815   0.00000  Uiso   1.00
S1534  S     0.90221   0.61271   0.91377   0.00000  Uiso   1.00
S1535  S     0.89372   0.38897   0.92373   0.00000  Uiso   1.00
S1536  S     0.76779   0.61088   0.74911   0.00000  Uiso   1.00
C1537  C     0.08809   0.83313   0.83736   0.00000  Uiso   1.00
C1538  C     0.02149   0.87360   0.84056   0.00000  Uiso   1.00
C1539  C     0.28938   0.83216   0.82310   0.00000  Uiso   1.00
C1540  C     0.04345   0.83205   0.84100   0.00000  Uiso   1.00
C1541  C     0.14002   0.69107   0.79558   0.00000  Uiso   1.00
C1542  C     0.19498   0.97515   0.86888   0.00000  Uiso   1.00
C1543  C     0.19439   0.69210   0.86987   0.00000  Uiso   1.00
C1544  C     0.13890   0.97429   0.79717   0.00000  Uiso   1.00
C1545  C     0.04385   0.74599   0.85185   0.00000  Uiso   1.00
C1546  C     0.29219   0.91504   0.79607   0.00000  Uiso   1.00
C1547  C     0.28843   0.74562   0.81333   0.00000  Uiso   1.00
C1548  C     0.24511   0.83315   0.82874   0.00000  Uiso   1.00
C1549  C     0.04094   0.91265   0.87174   0.00000  Uiso   1.00
C1550  C     0.16687   0.83321   0.74040   0.00000  Uiso   1.00
C1551  C     0.16620   0.83346   0.92621   0.00000  Uiso   1.00
C1552  C     0.16666   0.83320   0.68856   0.00000  Uiso   1.00
C1553  C     0.16639   0.83354   0.97805   0.00000  Uiso   1.00
C1554  C     0.02150   0.78975   0.83762   0.00000  Uiso   1.00
C1555  C     0.31167   0.87381   0.82326   0.00000  Uiso   1.00
C1556  C     0.31109   0.78977   0.82595   0.00000  Uiso   1.00
Cu1557 Cu    0.16667   0.88022   0.83333   0.00000  Uiso   1.00
Cu1558 Cu    0.16667   0.78645   0.83333   0.00000  Uiso   1.00
H1559  H     0.08482   0.71242   0.90420   0.00000  Uiso   1.00
H1560  H     0.29757   0.98165   0.77933   0.00000  Uiso   1.00
H1561  H     0.24617   0.71003   0.76350   0.00000  Uiso   1.00
H1562  H     0.07588   0.97004   0.87729   0.00000  Uiso   1.00
H1563  H     0.06292   0.76729   0.74660   0.00000  Uiso   1.00
H1564  H     0.26613   0.88434   0.94537   0.00000  Uiso   1.00
H1565  H     0.25286   0.78680   0.95553   0.00000  Uiso   1.00
H1566  H     0.07067   0.88229   0.71598   0.00000  Uiso   1.00
N1567  N     0.16667   0.95069   0.83333   0.00000  Uiso   1.00
N1568  N     0.16667   0.71598   0.83333   0.00000  Uiso   1.00
O1569  O     0.10655   0.87291   0.83333   0.00000  Uiso   1.00
O1570  O     0.06965   0.74279   0.89901   0.00000  Uiso   1.00
O1571  O     0.26095   0.91073   0.76349   0.00000  Uiso   1.00
O1572  O     0.31152   0.95797   0.80395   0.00000  Uiso   1.00
O1573  O     0.29239   0.71450   0.84369   0.00000  Uiso   1.00
O1574  O     0.26146   0.74057   0.76707   0.00000  Uiso   1.00
O1575  O     0.03855   0.91425   0.91616   0.00000  Uiso   1.00
O1576  O     0.06215   0.94702   0.85119   0.00000  Uiso   1.00
O1577  O     0.14470   0.72463   0.70487   0.00000  Uiso   1.00
O1578  O     0.07632   0.69619   0.70670   0.00000  Uiso   1.00
O1579  O     0.09288   0.77219   0.74568   0.00000  Uiso   1.00
O1580  O     0.22679   0.79375   0.83334   0.00000  Uiso   1.00
O1581  O     0.27656   0.95941   0.90008   0.00000  Uiso   1.00
O1582  O     0.23335   0.96348   0.96553   0.00000  Uiso   1.00
O1583  O     0.23954   0.88919   0.92155   0.00000  Uiso   1.00
O1584  O     0.20395   0.71821   0.96658   0.00000  Uiso   1.00
O1585  O     0.26928   0.70124   0.93952   0.00000  Uiso   1.00
O1586  O     0.24021   0.77765   0.92075   0.00000  Uiso   1.00
O1587  O     0.05877   0.96333   0.75188   0.00000  Uiso   1.00
O1588  O     0.11279   0.95510   0.69938   0.00000  Uiso   1.00
O1589  O     0.09262   0.88745   0.74606   0.00000  Uiso   1.00
O1590  O     0.22679   0.87291   0.83334   0.00000  Uiso   1.00
O1591  O     0.10655   0.79375   0.83333   0.00000  Uiso   1.00
O1592  O     0.16667   0.87292   0.76280   0.00000  Uiso   1.00
O1593  O     0.16667   0.79375   0.90387   0.00000  Uiso   1.00
O1594  O     0.16667   0.87292   0.90387   0.00000  Uiso   1.00
O1595  O     0.16667   0.79375   0.76280   0.00000  Uiso   1.00
O1596  O     0.04051   0.71361   0.82237   0.00000  Uiso   1.00
S1597  S     0.11286   0.72011   0.73815   0.00000  Uiso   1.00
S1598  S     0.23554   0.94605   0.91377   0.00000  Uiso   1.00
S1599  S     0.22706   0.72230   0.92373   0.00000  Uiso   1.00
S1600  S     0.10112   0.94421   0.74911   0.00000  Uiso   1.00
C1601  C     0.42142   0.83313   0.83736   0.00000  Uiso   1.00
C1602  C     0.35483   0.87360   0.84056   0.00000  Uiso   1.00
C1603  C     0.62271   0.83216   0.82310   0.00000  Uiso   1.00
C1604  C     0.37678   0.83205   0.84100   0.00000  Uiso   1.00
C1605  C     0.47335   0.69107   0.79558   0.00000  Uiso   1.00
C1606  C     0.52831   0.97515   0.86888   0.00000  Uiso   1.00
C1607  C     0.52773   0.69210   0.86987   0.00000  Uiso   1.00
C1608  C     0.47224   0.97429   0.79717   0.00000  Uiso   1.00
C1609  C     0.37719   0.74599   0.85185   0.00000  Uiso   1.00
C1610  C     0.62552   0.91504   0.79607   0.00000  Uiso   1.00
C1611  C     0.62177   0.74562   0.81333   0.00000  Uiso   1.00
C1612  C     0.57844   0.83315   0.82874   0.00000  Uiso   1.00
C1613  C     0.37427   0.91265   0.87174   0.00000  Uiso   1.00
C1614  C     0.50020   0.83321   0.74040   0.00000  Uiso   1.00
C1615  C     0.49953   0.83346   0.92621   0.00000  Uiso   1.00
C1616  C     0.49999   0.83320   0.68856   0.00000  Uiso   1.00
C1617  C     0.49972   0.83354   0.97805   0.00000  Uiso   1.00
C1618  C     0.35483   0.78975   0.83762   0.00000  Uiso   1.00
C1619  C     0.64500   0.87381   0.82326   0.00000  Uiso   1.00
C1620  C     0.64442   0.78977   0.82595   0.00000  Uiso   1.00
Cu1621 Cu    0.50000   0.88022   0.83333   0.00000  Uiso   1.00
Cu1622 Cu    0.50000   0.78645   0.83333   0.00000  Uiso   1.00
H1623  H     0.41815   0.71242   0.90420   0.00000  Uiso   1.00
H1624  H     0.63090   0.98165   0.77933   0.00000  Uiso   1.00
H1625  H     0.57951   0.71003   0.76350   0.00000  Uiso   1.00
H1626  H     0.40922   0.97004   0.87729   0.00000  Uiso   1.00
H1627  H     0.39626   0.76729   0.74660   0.00000  Uiso   1.00
H1628  H     0.59946   0.88434   0.94537   0.00000  Uiso   1.00
H1629  H     0.58620   0.78680   0.95553   0.00000  Uiso   1.00
H1630  H     0.40400   0.88229   0.71598   0.00000  Uiso   1.00
N1631  N     0.50000   0.95069   0.83333   0.00000  Uiso   1.00
N1632  N     0.50000   0.71598   0.83333   0.00000  Uiso   1.00
O1633  O     0.43988   0.87291   0.83333   0.00000  Uiso   1.00
O1634  O     0.40298   0.74279   0.89901   0.00000  Uiso   1.00
O1635  O     0.59428   0.91073   0.76349   0.00000  Uiso   1.00
O1636  O     0.64485   0.95797   0.80395   0.00000  Uiso   1.00
O1637  O     0.62572   0.71450   0.84369   0.00000  Uiso   1.00
O1638  O     0.59479   0.74057   0.76707   0.00000  Uiso   1.00
O1639  O     0.37188   0.91425   0.91616   0.00000  Uiso   1.00
O1640  O     0.39548   0.94702   0.85119   0.00000  Uiso   1.00
O1641  O     0.47804   0.72463   0.70487   0.00000  Uiso   1.00
O1642  O     0.40965   0.69619   0.70670   0.00000  Uiso   1.00
O1643  O     0.42621   0.77219   0.74568   0.00000  Uiso   1.00
O1644  O     0.56012   0.79375   0.83334   0.00000  Uiso   1.00
O1645  O     0.60989   0.95941   0.90008   0.00000  Uiso   1.00
O1646  O     0.56669   0.96348   0.96553   0.00000  Uiso   1.00
O1647  O     0.57288   0.88919   0.92155   0.00000  Uiso   1.00
O1648  O     0.53728   0.71821   0.96658   0.00000  Uiso   1.00
O1649  O     0.60262   0.70124   0.93952   0.00000  Uiso   1.00
O1650  O     0.57355   0.77765   0.92075   0.00000  Uiso   1.00
O1651  O     0.39210   0.96333   0.75188   0.00000  Uiso   1.00
O1652  O     0.44613   0.95510   0.69938   0.00000  Uiso   1.00
O1653  O     0.42595   0.88745   0.74606   0.00000  Uiso   1.00
O1654  O     0.56012   0.87291   0.83334   0.00000  Uiso   1.00
O1655  O     0.43988   0.79375   0.83333   0.00000  Uiso   1.00
O1656  O     0.50000   0.87292   0.76280   0.00000  Uiso   1.00
O1657  O     0.50000   0.79375   0.90387   0.00000  Uiso   1.00
O1658  O     0.50000   0.87292   0.90387   0.00000  Uiso   1.00
O1659  O     0.50000   0.79375   0.76280   0.00000  Uiso   1.00
O1660  O     0.37385   0.71361   0.82237   0.00000  Uiso   1.00
S1661  S     0.44619   0.72011   0.73815   0.00000  Uiso   1.00
S1662  S     0.56888   0.94605   0.91377   0.00000  Uiso   1.00
S1663  S     0.56039   0.72230   0.92373   0.00000  Uiso   1.00
S1664  S     0.43446   0.94421   0.74911   0.00000  Uiso   1.00
C1665  C     0.75476   0.83313   0.83736   0.00000  Uiso   1.00
C1666  C     0.68816   0.87360   0.84056   0.00000  Uiso   1.00
C1667  C     0.95605   0.83216   0.82310   0.00000  Uiso   1.00
C1668  C     0.71011   0.83205   0.84100   0.00000  Uiso   1.00
C1669  C     0.80668   0.69107   0.79558   0.00000  Uiso   1.00
C1670  C     0.86165   0.97515   0.86888   0.00000  Uiso   1.00
C1671  C     0.86106   0.69210   0.86987   0.00000  Uiso   1.00
C1672  C     0.80557   0.97429   0.79717   0.00000  Uiso   1.00
C1673  C     0.71052   0.74599   0.85185   0.00000  Uiso   1.00
C1674  C     0.95886   0.91504   0.79607   0.00000  Uiso   1.00
C1675  C     0.95510   0.74562   0.81333   0.00000  Uiso   1.00
C1676  C     0.91177   0.83315   0.82874   0.00000  Uiso   1.00
C1677  C     0.70761   0.91265   0.87174   0.00000  Uiso   1.00
C1678  C     0.83354   0.83321   0.74040   0.00000  Uiso   1.00
C1679  C     0.83287   0.83346   0.92621   0.00000  Uiso   1.00
C1680  C     0.83332   0.83320   0.68856   0.00000  Uiso   1.00
C1681  C     0.83305   0.83354   0.97805   0.00000  Uiso   1.00
C1682  C     0.68817   0.78975   0.83762   0.00000  Uiso   1.00
C1683  C     0.97834   0.87381   0.82326   0.00000  Uiso   1.00
C1684  C     0.97775   0.78977   0.82595   0.00000  Uiso   1.00
Cu1685 Cu    0.83333   0.88022   0.83333   0.00000  Uiso   1.00
Cu1686 Cu    0.83333   0.78645   0.83333   0.00000  Uiso   1.00
H1687  H     0.75149   0.71242   0.90420   0.00000  Uiso   1.00
H1688  H     0.96423   0.98165   0.77933   0.00000  Uiso   1.00
H1689  H     0.91284   0.71003   0.76350   0.00000  Uiso   1.00
H1690  H     0.74255   0.97004   0.87729   0.00000  Uiso   1.00
H1691  H     0.72959   0.76729   0.74660   0.00000  Uiso   1.00
H1692  H     0.93280   0.88434   0.94537   0.00000  Uiso   1.00
H1693  H     0.91953   0.78680   0.95553   0.00000  Uiso   1.00
H1694  H     0.73733   0.88229   0.71598   0.00000  Uiso   1.00
N1695  N     0.83333   0.95069   0.83333   0.00000  Uiso   1.00
N1696  N     0.83333   0.71598   0.83333   0.00000  Uiso   1.00
O1697  O     0.77321   0.87291   0.83333   0.00000  Uiso   1.00
O1698  O     0.73631   0.74279   0.89901   0.00000  Uiso   1.00
O1699  O     0.92762   0.91073   0.76349   0.00000  Uiso   1.00
O1700  O     0.97818   0.95797   0.80395   0.00000  Uiso   1.00
O1701  O     0.95905   0.71450   0.84369   0.00000  Uiso   1.00
O1702  O     0.92812   0.74057   0.76707   0.00000  Uiso   1.00
O1703  O     0.70522   0.91425   0.91616   0.00000  Uiso   1.00
O1704  O     0.72881   0.94702   0.85119   0.00000  Uiso   1.00
O1705  O     0.81137   0.72463   0.70487   0.00000  Uiso   1.00
O1706  O     0.74298   0.69619   0.70670   0.00000  Uiso   1.00
O1707  O     0.75955   0.77219   0.74568   0.00000  Uiso   1.00
O1708  O     0.89345   0.79375   0.83334   0.00000  Uiso   1.00
O1709  O     0.94322   0.95941   0.90008   0.00000  Uiso   1.00
O1710  O     0.90002   0.96348   0.96553   0.00000  Uiso   1.00
O1711  O     0.90621   0.88919   0.92155   0.00000  Uiso   1.00
O1712  O     0.87061   0.71821   0.96658   0.00000  Uiso   1.00
O1713  O     0.93595   0.70124   0.93952   0.00000  Uiso   1.00
O1714  O     0.90688   0.77765   0.92075   0.00000  Uiso   1.00
O1715  O     0.72543   0.96333   0.75188   0.00000  Uiso   1.00
O1716  O     0.77946   0.95510   0.69938   0.00000  Uiso   1.00
O1717  O     0.75929   0.88745   0.74606   0.00000  Uiso   1.00
O1718  O     0.89345   0.87291   0.83334   0.00000  Uiso   1.00
O1719  O     0.77321   0.79375   0.83333   0.00000  Uiso   1.00
O1720  O     0.83333   0.87292   0.76280   0.00000  Uiso   1.00
O1721  O     0.83333   0.79375   0.90387   0.00000  Uiso   1.00
O1722  O     0.83333   0.87292   0.90387   0.00000  Uiso   1.00
O1723  O     0.83333   0.79375   0.76280   0.00000  Uiso   1.00
O1724  O     0.70718   0.71361   0.82237   0.00000  Uiso   1.00
S1725  S     0.77953   0.72011   0.73815   0.00000  Uiso   1.00
S1726  S     0.90221   0.94605   0.91377   0.00000  Uiso   1.00
S1727  S     0.89372   0.72230   0.92373   0.00000  Uiso   1.00
S1728  S     0.76779   0.94421   0.74911   0.00000  Uiso   1.00
loop_
_geom_bond_atom_site_label_1
_geom_bond_atom_site_label_2
_geom_bond_distance
_geom_bond_site_symmetry_2
_ccdc_geom_bond_type
C1     O55     1.309   .     A
C1     C4      1.476   .     S
C1     O33     1.319   .     A
C2     C4      1.406   .     A
C2     C13     1.481   .     S
C2     C147    1.398   1_455 S
C3     C19     1.412   .     A
C3     C20     1.420   .     A
C3     C12     1.479   .     S
C4     C18     1.417   .     A
C5     S61     1.856   .     S
C5     N32     1.409   .     A
C5     C392    1.461   1_545 S
C6     S62     1.838   .     S
C6     N31     1.394   .     A
C6     C199    1.465   .     S
C7     S63     1.855   .     S
C7     N32     1.402   .     A
C7     C390    1.465   1_545 S
C8     S64     1.834   .     S
C8     N31     1.393   .     A
C8     C197    1.461   .     S
C9     O60     1.223   .     D
C9     O34     1.399   .     S
C9     C18     1.487   .     S
C10    C19     1.495   .     S
C10    O35     1.224   .     D
C10    O36     1.396   .     S
C11    O38     1.399   .     S
C11    C20     1.487   .     S
C11    O37     1.222   .     D
C12    O44     1.310   .     A
C12    O54     1.319   .     A
C13    O40     1.393   .     S
C13    O39     1.223   .     D
C14    O56     1.302   .     A
C14    C16     1.406   .     S
C14    O59     1.306   .     A
C15    O57     1.303   .     A
C15    O58     1.306   .     A
C15    C17     1.405   .     S
C16    C1169   1.188   1_554 S
C17    C592    1.188   .     S
C18    C148    1.402   1_455 S
C19    C66     1.398   .     S
C20    C82     1.402   .     S
Cu21   O56     1.924   .     S
Cu21   O54     1.971   .     S
Cu21   Cu22    2.731   .     S
Cu21   N31     2.053   .     S
Cu21   O33     1.970   .     S
Cu21   O58     1.928   .     S
Cu22   O55     1.971   .     S
Cu22   N32     2.053   .     S
Cu22   O57     1.924   .     S
Cu22   O59     1.928   .     S
Cu22   O44     1.970   .     S
H23    O34     1.012   .     S
H24    O36     1.013   .     S
H25    O38     1.014   .     S
H26    O40     1.012   .     S
H27    O43     0.991   .     S
H28    O47     0.991   .     S
H29    O50     0.991   .     S
H30    O53     0.991   .     S
O41    S61     1.503   .     D
O42    S61     1.497   .     D
O43    S61     1.678   .     S
O45    S62     1.503   .     D
O46    S62     1.503   .     D
O47    S62     1.674   .     S
O48    S63     1.503   .     D
O49    S63     1.498   .     D
O50    S63     1.674   .     S
O51    S64     1.504   .     D
O52    S64     1.505   .     D
O53    S64     1.675   .     S
C65    O119    1.309   .     A
C65    C68     1.476   .     S
C65    O97     1.319   .     A
C66    C68     1.406   .     A
C66    C77     1.481   .     S
C67    C83     1.412   .     A
C67    C84     1.420   .     A
C67    C76     1.479   .     S
C68    C82     1.417   .     A
C69    S125    1.856   .     S
C69    N96     1.409   .     A
C69    C456    1.461   1_545 S
C70    S126    1.838   .     S
C70    N95     1.394   .     A
C70    C263    1.465   .     S
C71    S127    1.855   .     S
C71    N96     1.402   .     A
C71    C454    1.465   1_545 S
C72    S128    1.834   .     S
C72    N95     1.393   .     A
C72    C261    1.461   .     S
C73    O124    1.223   .     D
C73    O98     1.399   .     S
C73    C82     1.487   .     S
C74    C83     1.495   .     S
C74    O99     1.224   .     D
C74    O100    1.396   .     S
C75    O102    1.399   .     S
C75    C84     1.487   .     S
C75    O101    1.222   .     D
C76    O108    1.310   .     A
C76    O118    1.319   .     A
C77    O104    1.393   .     S
C77    O103    1.223   .     D
C78    O120    1.302   .     A
C78    C80     1.406   .     S
C78    O123    1.306   .     A
C79    O121    1.303   .     A
C79    O122    1.306   .     A
C79    C81     1.405   .     S
C80    C1233   1.188   1_554 S
C81    C656    1.188   .     S
C83    C130    1.398   .     S
C84    C146    1.402   .     S
Cu85   O120    1.924   .     S
Cu85   O118    1.971   .     S
Cu85   Cu86    2.731   .     S
Cu85   N95     2.053   .     S
Cu85   O97     1.970   .     S
Cu85   O122    1.928   .     S
Cu86   O119    1.971   .     S
Cu86   N96     2.053   .     S
Cu86   O121    1.924   .     S
Cu86   O123    1.928   .     S
Cu86   O108    1.970   .     S
H87    O98     1.012   .     S
H88    O100    1.013   .     S
H89    O102    1.014   .     S
H90    O104    1.012   .     S
H91    O107    0.991   .     S
H92    O111    0.991   .     S
H93    O114    0.991   .     S
H94    O117    0.991   .     S
O105   S125    1.503   .     D
O106   S125    1.497   .     D
O107   S125    1.678   .     S
O109   S126    1.503   .     D
O110   S126    1.503   .     D
O111   S126    1.674   .     S
O112   S127    1.503   .     D
O113   S127    1.498   .     D
O114   S127    1.674   .     S
O115   S128    1.504   .     D
O116   S128    1.505   .     D
O117   S128    1.675   .     S
C129   O183    1.309   .     A
C129   C132    1.476   .     S
C129   O161    1.319   .     A
C130   C132    1.406   .     A
C130   C141    1.481   .     S
C131   C147    1.412   .     A
C131   C148    1.420   .     A
C131   C140    1.479   .     S
C132   C146    1.417   .     A
C133   S189    1.856   .     S
C133   N160    1.409   .     A
C133   C520    1.461   1_545 S
C134   S190    1.838   .     S
C134   N159    1.394   .     A
C134   C327    1.465   .     S
C135   S191    1.855   .     S
C135   N160    1.402   .     A
C135   C518    1.465   1_545 S
C136   S192    1.834   .     S
C136   N159    1.393   .     A
C136   C325    1.461   .     S
C137   O188    1.223   .     D
C137   O162    1.399   .     S
C137   C146    1.487   .     S
C138   C147    1.495   .     S
C138   O163    1.224   .     D
C138   O164    1.396   .     S
C139   O166    1.399   .     S
C139   C148    1.487   .     S
C139   O165    1.222   .     D
C140   O172    1.310   .     A
C140   O182    1.319   .     A
C141   O168    1.393   .     S
C141   O167    1.223   .     D
C142   O184    1.302   .     A
C142   C144    1.406   .     S
C142   O187    1.306   .     A
C143   O185    1.303   .     A
C143   O186    1.306   .     A
C143   C145    1.405   .     S
C144   C1297   1.188   1_554 S
C145   C720    1.188   .     S
C147   C2      1.398   1_655 S
C148   C18     1.402   1_655 S
Cu149  O184    1.924   .     S
Cu149  O182    1.971   .     S
Cu149  Cu150   2.731   .     S
Cu149  N159    2.053   .     S
Cu149  O161    1.970   .     S
Cu149  O186    1.928   .     S
Cu150  O183    1.971   .     S
Cu150  N160    2.053   .     S
Cu150  O185    1.924   .     S
Cu150  O187    1.928   .     S
Cu150  O172    1.970   .     S
H151   O162    1.012   .     S
H152   O164    1.013   .     S
H153   O166    1.014   .     S
H154   O168    1.012   .     S
H155   O171    0.991   .     S
H156   O175    0.991   .     S
H157   O178    0.991   .     S
H158   O181    0.991   .     S
O169   S189    1.503   .     D
O170   S189    1.497   .     D
O171   S189    1.678   .     S
O173   S190    1.503   .     D
O174   S190    1.503   .     D
O175   S190    1.674   .     S
O176   S191    1.503   .     D
O177   S191    1.498   .     D
O178   S191    1.674   .     S
O179   S192    1.504   .     D
O180   S192    1.505   .     D
O181   S192    1.675   .     S
C193   O247    1.309   .     A
C193   C196    1.476   .     S
C193   O225    1.319   .     A
C194   C196    1.406   .     A
C194   C205    1.481   .     S
C194   C339    1.398   1_455 S
C195   C211    1.412   .     A
C195   C212    1.420   .     A
C195   C204    1.479   .     S
C196   C210    1.417   .     A
C197   S253    1.856   .     S
C197   N224    1.409   .     A
C198   S254    1.838   .     S
C198   N223    1.394   .     A
C198   C391    1.465   .     S
C199   S255    1.855   .     S
C199   N224    1.402   .     A
C200   S256    1.834   .     S
C200   N223    1.393   .     A
C200   C389    1.461   .     S
C201   O252    1.223   .     D
C201   O226    1.399   .     S
C201   C210    1.487   .     S
C202   C211    1.495   .     S
C202   O227    1.224   .     D
C202   O228    1.396   .     S
C203   O230    1.399   .     S
C203   C212    1.487   .     S
C203   O229    1.222   .     D
C204   O236    1.310   .     A
C204   O246    1.319   .     A
C205   O232    1.393   .     S
C205   O231    1.223   .     D
C206   O248    1.302   .     A
C206   C208    1.406   .     S
C206   O251    1.306   .     A
C207   O249    1.303   .     A
C207   O250    1.306   .     A
C207   C209    1.405   .     S
C208   C1361   1.188   1_554 S
C209   C784    1.188   .     S
C210   C340    1.402   1_455 S
C211   C258    1.398   .     S
C212   C274    1.402   .     S
Cu213  O248    1.924   .     S
Cu213  O246    1.971   .     S
Cu213  Cu214   2.731   .     S
Cu213  N223    2.053   .     S
Cu213  O225    1.970   .     S
Cu213  O250    1.928   .     S
Cu214  O247    1.971   .     S
Cu214  N224    2.053   .     S
Cu214  O249    1.924   .     S
Cu214  O251    1.928   .     S
Cu214  O236    1.970   .     S
H215   O226    1.012   .     S
H216   O228    1.013   .     S
H217   O230    1.014   .     S
H218   O232    1.012   .     S
H219   O235    0.991   .     S
H220   O239    0.991   .     S
H221   O242    0.991   .     S
H222   O245    0.991   .     S
O233   S253    1.503   .     D
O234   S253    1.497   .     D
O235   S253    1.678   .     S
O237   S254    1.503   .     D
O238   S254    1.503   .     D
O239   S254    1.674   .     S
O240   S255    1.503   .     D
O241   S255    1.498   .     D
O242   S255    1.674   .     S
O243   S256    1.504   .     D
O244   S256    1.505   .     D
O245   S256    1.675   .     S
C257   O311    1.309   .     A
C257   C260    1.476   .     S
C257   O289    1.319   .     A
C258   C260    1.406   .     A
C258   C269    1.481   .     S
C259   C275    1.412   .     A
C259   C276    1.420   .     A
C259   C268    1.479   .     S
C260   C274    1.417   .     A
C261   S317    1.856   .     S
C261   N288    1.409   .     A
C262   S318    1.838   .     S
C262   N287    1.394   .     A
C262   C455    1.465   .     S
C263   S319    1.855   .     S
C263   N288    1.402   .     A
C264   S320    1.834   .     S
C264   N287    1.393   .     A
C264   C453    1.461   .     S
C265   O316    1.223   .     D
C265   O290    1.399   .     S
C265   C274    1.487   .     S
C266   C275    1.495   .     S
C266   O291    1.224   .     D
C266   O292    1.396   .     S
C267   O294    1.399   .     S
C267   C276    1.487   .     S
C267   O293    1.222   .     D
C268   O300    1.310   .     A
C268   O310    1.319   .     A
C269   O296    1.393   .     S
C269   O295    1.223   .     D
C270   O312    1.302   .     A
C270   C272    1.406   .     S
C270   O315    1.306   .     A
C271   O313    1.303   .     A
C271   O314    1.306   .     A
C271   C273    1.405   .     S
C272   C1425   1.188   1_554 S
C273   C848    1.188   .     S
C275   C322    1.398   .     S
C276   C338    1.402   .     S
Cu277  O312    1.924   .     S
Cu277  O310    1.971   .     S
Cu277  Cu278   2.731   .     S
Cu277  N287    2.053   .     S
Cu277  O289    1.970   .     S
Cu277  O314    1.928   .     S
Cu278  O311    1.971   .     S
Cu278  N288    2.053   .     S
Cu278  O313    1.924   .     S
Cu278  O315    1.928   .     S
Cu278  O300    1.970   .     S
H279   O290    1.012   .     S
H280   O292    1.013   .     S
H281   O294    1.014   .     S
H282   O296    1.012   .     S
H283   O299    0.991   .     S
H284   O303    0.991   .     S
H285   O306    0.991   .     S
H286   O309    0.991   .     S
O297   S317    1.503   .     D
O298   S317    1.497   .     D
O299   S317    1.678   .     S
O301   S318    1.503   .     D
O302   S318    1.503   .     D
O303   S318    1.674   .     S
O304   S319    1.503   .     D
O305   S319    1.498   .     D
O306   S319    1.674   .     S
O307   S320    1.504   .     D
O308   S320    1.505   .     D
O309   S320    1.675   .     S
C321   O375    1.309   .     A
C321   C324    1.476   .     S
C321   O353    1.319   .     A
C322   C324    1.406   .     A
C322   C333    1.481   .     S
C323   C339    1.412   .     A
C323   C340    1.420   .     A
C323   C332    1.479   .     S
C324   C338    1.417   .     A
C325   S381    1.856   .     S
C325   N352    1.409   .     A
C326   S382    1.838   .     S
C326   N351    1.394   .     A
C326   C519    1.465   .     S
C327   S383    1.855   .     S
C327   N352    1.402   .     A
C328   S384    1.834   .     S
C328   N351    1.393   .     A
C328   C517    1.461   .     S
C329   O380    1.223   .     D
C329   O354    1.399   .     S
C329   C338    1.487   .     S
C330   C339    1.495   .     S
C330   O355    1.224   .     D
C330   O356    1.396   .     S
C331   O358    1.399   .     S
C331   C340    1.487   .     S
C331   O357    1.222   .     D
C332   O364    1.310   .     A
C332   O374    1.319   .     A
C333   O360    1.393   .     S
C333   O359    1.223   .     D
C334   O376    1.302   .     A
C334   C336    1.406   .     S
C334   O379    1.306   .     A
C335   O377    1.303   .     A
C335   O378    1.306   .     A
C335   C337    1.405   .     S
C336   C1489   1.188   1_554 S
C337   C912    1.188   .     S
C339   C194    1.398   1_655 S
C340   C210    1.402   1_655 S
Cu341  O376    1.924   .     S
Cu341  O374    1.971   .     S
Cu341  Cu342   2.731   .     S
Cu341  N351    2.053   .     S
Cu341  O353    1.970   .     S
Cu341  O378    1.928   .     S
Cu342  O375    1.971   .     S
Cu342  N352    2.053   .     S
Cu342  O377    1.924   .     S
Cu342  O379    1.928   .     S
Cu342  O364    1.970   .     S
H343   O354    1.012   .     S
H344   O356    1.013   .     S
H345   O358    1.014   .     S
H346   O360    1.012   .     S
H347   O363    0.991   .     S
H348   O367    0.991   .     S
H349   O370    0.991   .     S
H350   O373    0.991   .     S
O361   S381    1.503   .     D
O362   S381    1.497   .     D
O363   S381    1.678   .     S
O365   S382    1.503   .     D
O366   S382    1.503   .     D
O367   S382    1.674   .     S
O368   S383    1.503   .     D
O369   S383    1.498   .     D
O370   S383    1.674   .     S
O371   S384    1.504   .     D
O372   S384    1.505   .     D
O373   S384    1.675   .     S
C385   O439    1.309   .     A
C385   C388    1.476   .     S
C385   O417    1.319   .     A
C386   C388    1.406   .     A
C386   C397    1.481   .     S
C386   C531    1.398   1_455 S
C387   C403    1.412   .     A
C387   C404    1.420   .     A
C387   C396    1.479   .     S
C388   C402    1.417   .     A
C389   S445    1.856   .     S
C389   N416    1.409   .     A
C390   S446    1.838   .     S
C390   N415    1.394   .     A
C390   C7      1.465   1_565 S
C391   S447    1.855   .     S
C391   N416    1.402   .     A
C392   S448    1.834   .     S
C392   N415    1.393   .     A
C392   C5      1.461   1_565 S
C393   O444    1.223   .     D
C393   O418    1.399   .     S
C393   C402    1.487   .     S
C394   C403    1.495   .     S
C394   O419    1.224   .     D
C394   O420    1.396   .     S
C395   O422    1.399   .     S
C395   C404    1.487   .     S
C395   O421    1.222   .     D
C396   O428    1.310   .     A
C396   O438    1.319   .     A
C397   O424    1.393   .     S
C397   O423    1.223   .     D
C398   O440    1.302   .     A
C398   C400    1.406   .     S
C398   O443    1.306   .     A
C399   O441    1.303   .     A
C399   O442    1.306   .     A
C399   C401    1.405   .     S
C400   C1553   1.188   1_554 S
C401   C976    1.188   .     S
C402   C532    1.402   1_455 S
C403   C450    1.398   .     S
C404   C466    1.402   .     S
Cu405  O440    1.924   .     S
Cu405  O438    1.971   .     S
Cu405  Cu406   2.731   .     S
Cu405  N415    2.053   .     S
Cu405  O417    1.970   .     S
Cu405  O442    1.928   .     S
Cu406  O439    1.971   .     S
Cu406  N416    2.053   .     S
Cu406  O441    1.924   .     S
Cu406  O443    1.928   .     S
Cu406  O428    1.970   .     S
H407   O418    1.012   .     S
H408   O420    1.013   .     S
H409   O422    1.014   .     S
H410   O424    1.012   .     S
H411   O427    0.991   .     S
H412   O431    0.991   .     S
H413   O434    0.991   .     S
H414   O437    0.991   .     S
O425   S445    1.503   .     D
O426   S445    1.497   .     D
O427   S445    1.678   .     S
O429   S446    1.503   .     D
O430   S446    1.503   .     D
O431   S446    1.674   .     S
O432   S447    1.503   .     D
O433   S447    1.498   .     D
O434   S447    1.674   .     S
O435   S448    1.504   .     D
O436   S448    1.505   .     D
O437   S448    1.675   .     S
C449   O503    1.309   .     A
C449   C452    1.476   .     S
C449   O481    1.319   .     A
C450   C452    1.406   .     A
C450   C461    1.481   .     S
C451   C467    1.412   .     A
C451   C468    1.420   .     A
C451   C460    1.479   .     S
C452   C466    1.417   .     A
C453   S509    1.856   .     S
C453   N480    1.409   .     A
C454   S510    1.838   .     S
C454   N479    1.394   .     A
C454   C71     1.465   1_565 S
C455   S511    1.855   .     S
C455   N480    1.402   .     A
C456   S512    1.834   .     S
C456   N479    1.393   .     A
C456   C69     1.461   1_565 S
C457   O508    1.223   .     D
C457   O482    1.399   .     S
C457   C466    1.487   .     S
C458   C467    1.495   .     S
C458   O483    1.224   .     D
C458   O484    1.396   .     S
C459   O486    1.399   .     S
C459   C468    1.487   .     S
C459   O485    1.222   .     D
C460   O492    1.310   .     A
C460   O502    1.319   .     A
C461   O488    1.393   .     S
C461   O487    1.223   .     D
C462   O504    1.302   .     A
C462   C464    1.406   .     S
C462   O507    1.306   .     A
C463   O505    1.303   .     A
C463   O506    1.306   .     A
C463   C465    1.405   .     S
C464   C1617   1.188   1_554 S
C465   C1040   1.188   .     S
C467   C514    1.398   .     S
C468   C530    1.402   .     S
Cu469  O504    1.924   .     S
Cu469  O502    1.971   .     S
Cu469  Cu470   2.731   .     S
Cu469  N479    2.053   .     S
Cu469  O481    1.970   .     S
Cu469  O506    1.928   .     S
Cu470  O503    1.971   .     S
Cu470  N480    2.053   .     S
Cu470  O505    1.924   .     S
Cu470  O507    1.928   .     S
Cu470  O492    1.970   .     S
H471   O482    1.012   .     S
H472   O484    1.013   .     S
H473   O486    1.014   .     S
H474   O488    1.012   .     S
H475   O491    0.991   .     S
H476   O495    0.991   .     S
H477   O498    0.991   .     S
H478   O501    0.991   .     S
O489   S509    1.503   .     D
O490   S509    1.497   .     D
O491   S509    1.678   .     S
O493   S510    1.503   .     D
O494   S510    1.503   .     D
O495   S510    1.674   .     S
O496   S511    1.503   .     D
O497   S511    1.498   .     D
O498   S511    1.674   .     S
O499   S512    1.504   .     D
O500   S512    1.505   .     D
O501   S512    1.675   .     S
C513   O567    1.309   .     A
C513   C516    1.476   .     S
C513   O545    1.319   .     A
C514   C516    1.406   .     A
C514   C525    1.481   .     S
C515   C531    1.412   .     A
C515   C532    1.420   .     A
C515   C524    1.479   .     S
C516   C530    1.417   .     A
C517   S573    1.856   .     S
C517   N544    1.409   .     A
C518   S574    1.838   .     S
C518   N543    1.394   .     A
C518   C135    1.465   1_565 S
C519   S575    1.855   .     S
C519   N544    1.402   .     A
C520   S576    1.834   .     S
C520   N543    1.393   .     A
C520   C133    1.461   1_565 S
C521   O572    1.223   .     D
C521   O546    1.399   .     S
C521   C530    1.487   .     S
C522   C531    1.495   .     S
C522   O547    1.224   .     D
C522   O548    1.396   .     S
C523   O550    1.399   .     S
C523   C532    1.487   .     S
C523   O549    1.222   .     D
C524   O556    1.310   .     A
C524   O566    1.319   .     A
C525   O552    1.393   .     S
C525   O551    1.223   .     D
C526   O568    1.302   .     A
C526   C528    1.406   .     S
C526   O571    1.306   .     A
C527   O569    1.303   .     A
C527   O570    1.306   .     A
C527   C529    1.405   .     S
C528   C1681   1.188   1_554 S
C529   C1104   1.188   .     S
C531   C386    1.398   1_655 S
C532   C402    1.402   1_655 S
Cu533  O568    1.924   .     S
Cu533  O566    1.971   .     S
Cu533  Cu534   2.731   .     S
Cu533  N543    2.053   .     S
Cu533  O545    1.970   .     S
Cu533  O570    1.928   .     S
Cu534  O567    1.971   .     S
Cu534  N544    2.053   .     S
Cu534  O569    1.924   .     S
Cu534  O571    1.928   .     S
Cu534  O556    1.970   .     S
H535   O546    1.012   .     S
H536   O548    1.013   .     S
H537   O550    1.014   .     S
H538   O552    1.012   .     S
H539   O555    0.991   .     S
H540   O559    0.991   .     S
H541   O562    0.991   .     S
H542   O565    0.991   .     S
O553   S573    1.503   .     D
O554   S573    1.497   .     D
O555   S573    1.678   .     S
O557   S574    1.503   .     D
O558   S574    1.503   .     D
O559   S574    1.674   .     S
O560   S575    1.503   .     D
O561   S575    1.498   .     D
O562   S575    1.674   .     S
O563   S576    1.504   .     D
O564   S576    1.505   .     D
O565   S576    1.675   .     S
C577   O631    1.309   .     A
C577   C580    1.476   .     S
C577   O609    1.319   .     A
C578   C580    1.406   .     A
C578   C589    1.481   .     S
C578   C723    1.398   1_455 S
C579   C595    1.412   .     A
C579   C596    1.420   .     A
C579   C588    1.479   .     S
C580   C594    1.417   .     A
C581   S637    1.856   .     S
C581   N608    1.409   .     A
C581   C968    1.461   1_545 S
C582   S638    1.838   .     S
C582   N607    1.394   .     A
C582   C775    1.465   .     S
C583   S639    1.855   .     S
C583   N608    1.402   .     A
C583   C966    1.465   1_545 S
C584   S640    1.834   .     S
C584   N607    1.393   .     A
C584   C773    1.461   .     S
C585   O636    1.223   .     D
C585   O610    1.399   .     S
C585   C594    1.487   .     S
C586   C595    1.495   .     S
C586   O611    1.224   .     D
C586   O612    1.396   .     S
C587   O614    1.399   .     S
C587   C596    1.487   .     S
C587   O613    1.222   .     D
C588   O620    1.310   .     A
C588   O630    1.319   .     A
C589   O616    1.393   .     S
C589   O615    1.223   .     D
C590   O632    1.302   .     A
C590   C592    1.406   .     S
C590   O635    1.306   .     A
C591   O633    1.303   .     A
C591   O634    1.306   .     A
C591   C593    1.405   .     S
C593   C1168   1.188   .     S
C594   C724    1.402   1_455 S
C595   C642    1.398   .     S
C596   C658    1.402   .     S
Cu597  O632    1.924   .     S
Cu597  O630    1.971   .     S
Cu597  Cu598   2.731   .     S
Cu597  N607    2.053   .     S
Cu597  O609    1.970   .     S
Cu597  O634    1.928   .     S
Cu598  O631    1.971   .     S
Cu598  N608    2.053   .     S
Cu598  O633    1.924   .     S
Cu598  O635    1.928   .     S
Cu598  O620    1.970   .     S
H599   O610    1.012   .     S
H600   O612    1.013   .     S
H601   O614    1.014   .     S
H602   O616    1.012   .     S
H603   O619    0.991   .     S
H604   O623    0.991   .     S
H605   O626    0.991   .     S
H606   O629    0.991   .     S
O617   S637    1.503   .     D
O618   S637    1.497   .     D
O619   S637    1.678   .     S
O621   S638    1.503   .     D
O622   S638    1.503   .     D
O623   S638    1.674   .     S
O624   S639    1.503   .     D
O625   S639    1.498   .     D
O626   S639    1.674   .     S
O627   S640    1.504   .     D
O628   S640    1.505   .     D
O629   S640    1.675   .     S
C641   O695    1.309   .     A
C641   C644    1.476   .     S
C641   O673    1.319   .     A
C642   C644    1.406   .     A
C642   C653    1.481   .     S
C643   C659    1.412   .     A
C643   C660    1.420   .     A
C643   C652    1.479   .     S
C644   C658    1.417   .     A
C645   S701    1.856   .     S
C645   N672    1.409   .     A
C645   C1032   1.461   1_545 S
C646   S702    1.838   .     S
C646   N671    1.394   .     A
C646   C839    1.465   .     S
C647   S703    1.855   .     S
C647   N672    1.402   .     A
C647   C1030   1.465   1_545 S
C648   S704    1.834   .     S
C648   N671    1.393   .     A
C648   C837    1.461   .     S
C649   O700    1.223   .     D
C649   O674    1.399   .     S
C649   C658    1.487   .     S
C650   C659    1.495   .     S
C650   O675    1.224   .     D
C650   O676    1.396   .     S
C651   O678    1.399   .     S
C651   C660    1.487   .     S
C651   O677    1.222   .     D
C652   O684    1.310   .     A
C652   O694    1.319   .     A
C653   O680    1.393   .     S
C653   O679    1.223   .     D
C654   O696    1.302   .     A
C654   C656    1.406   .     S
C654   O699    1.306   .     A
C655   O697    1.303   .     A
C655   O698    1.306   .     A
C655   C657    1.405   .     S
C657   C1232   1.188   .     S
C659   C706    1.398   .     S
C660   C722    1.402   .     S
Cu661  O696    1.924   .     S
Cu661  O694    1.971   .     S
Cu661  Cu662   2.731   .     S
Cu661  N671    2.053   .     S
Cu661  O673    1.970   .     S
Cu661  O698    1.928   .     S
Cu662  O695    1.971   .     S
Cu662  N672    2.053   .     S
Cu662  O697    1.924   .     S
Cu662  O699    1.928   .     S
Cu662  O684    1.970   .     S
H663   O674    1.012   .     S
H664   O676    1.013   .     S
H665   O678    1.014   .     S
H666   O680    1.012   .     S
H667   O683    0.991   .     S
H668   O687    0.991   .     S
H669   O690    0.991   .     S
H670   O693    0.991   .     S
O681   S701    1.503   .     D
O682   S701    1.497   .     D
O683   S701    1.678   .     S
O685   S702    1.503   .     D
O686   S702    1.503   .     D
O687   S702    1.674   .     S
O688   S703    1.503   .     D
O689   S703    1.498   .     D
O690   S703    1.674   .     S
O691   S704    1.504   .     D
O692   S704    1.505   .     D
O693   S704    1.675   .     S
C705   O759    1.309   .     A
C705   C708    1.476   .     S
C705   O737    1.319   .     A
C706   C708    1.406   .     A
C706   C717    1.481   .     S
C707   C723    1.412   .     A
C707   C724    1.420   .     A
C707   C716    1.479   .     S
C708   C722    1.417   .     A
C709   S765    1.856   .     S
C709   N736    1.409   .     A
C709   C1096   1.461   1_545 S
C710   S766    1.838   .     S
C710   N735    1.394   .     A
C710   C903    1.465   .     S
C711   S767    1.855   .     S
C711   N736    1.402   .     A
C711   C1094   1.465   1_545 S
C712   S768    1.834   .     S
C712   N735    1.393   .     A
C712   C901    1.461   .     S
C713   O764    1.223   .     D
C713   O738    1.399   .     S
C713   C722    1.487   .     S
C714   C723    1.495   .     S
C714   O739    1.224   .     D
C714   O740    1.396   .     S
C715   O742    1.399   .     S
C715   C724    1.487   .     S
C715   O741    1.222   .     D
C716   O748    1.310   .     A
C716   O758    1.319   .     A
C717   O744    1.393   .     S
C717   O743    1.223   .     D
C718   O760    1.302   .     A
C718   C720    1.406   .     S
C718   O763    1.306   .     A
C719   O761    1.303   .     A
C719   O762    1.306   .     A
C719   C721    1.405   .     S
C721   C1296   1.188   .     S
C723   C578    1.398   1_655 S
C724   C594    1.402   1_655 S
Cu725  O760    1.924   .     S
Cu725  O758    1.971   .     S
Cu725  Cu726   2.731   .     S
Cu725  N735    2.053   .     S
Cu725  O737    1.970   .     S
Cu725  O762    1.928   .     S
Cu726  O759    1.971   .     S
Cu726  N736    2.053   .     S
Cu726  O761    1.924   .     S
Cu726  O763    1.928   .     S
Cu726  O748    1.970   .     S
H727   O738    1.012   .     S
H728   O740    1.013   .     S
H729   O742    1.014   .     S
H730   O744    1.012   .     S
H731   O747    0.991   .     S
H732   O751    0.991   .     S
H733   O754    0.991   .     S
H734   O757    0.991   .     S
O745   S765    1.503   .     D
O746   S765    1.497   .     D
O747   S765    1.678   .     S
O749   S766    1.503   .     D
O750   S766    1.503   .     D
O751   S766    1.674   .     S
O752   S767    1.503   .     D
O753   S767    1.498   .     D
O754   S767    1.674   .     S
O755   S768    1.504   .     D
O756   S768    1.505   .     D
O757   S768    1.675   .     S
C769   O823    1.309   .     A
C769   C772    1.476   .     S
C769   O801    1.319   .     A
C770   C772    1.406   .     A
C770   C781    1.481   .     S
C770   C915    1.398   1_455 S
C771   C787    1.412   .     A
C771   C788    1.420   .     A
C771   C780    1.479   .     S
C772   C786    1.417   .     A
C773   S829    1.856   .     S
C773   N800    1.409   .     A
C774   S830    1.838   .     S
C774   N799    1.394   .     A
C774   C967    1.465   .     S
C775   S831    1.855   .     S
C775   N800    1.402   .     A
C776   S832    1.834   .     S
C776   N799    1.393   .     A
C776   C965    1.461   .     S
C777   O828    1.223   .     D
C777   O802    1.399   .     S
C777   C786    1.487   .     S
C778   C787    1.495   .     S
C778   O803    1.224   .     D
C778   O804    1.396   .     S
C779   O806    1.399   .     S
C779   C788    1.487   .     S
C779   O805    1.222   .     D
C780   O812    1.310   .     A
C780   O822    1.319   .     A
C781   O808    1.393   .     S
C781   O807    1.223   .     D
C782   O824    1.302   .     A
C782   C784    1.406   .     S
C782   O827    1.306   .     A
C783   O825    1.303   .     A
C783   O826    1.306   .     A
C783   C785    1.405   .     S
C785   C1360   1.188   .     S
C786   C916    1.402   1_455 S
C787   C834    1.398   .     S
C788   C850    1.402   .     S
Cu789  O824    1.924   .     S
Cu789  O822    1.971   .     S
Cu789  Cu790   2.731   .     S
Cu789  N799    2.053   .     S
Cu789  O801    1.970   .     S
Cu789  O826    1.928   .     S
Cu790  O823    1.971   .     S
Cu790  N800    2.053   .     S
Cu790  O825    1.924   .     S
Cu790  O827    1.928   .     S
Cu790  O812    1.970   .     S
H791   O802    1.012   .     S
H792   O804    1.013   .     S
H793   O806    1.014   .     S
H794   O808    1.012   .     S
H795   O811    0.991   .     S
H796   O815    0.991   .     S
H797   O818    0.991   .     S
H798   O821    0.991   .     S
O809   S829    1.503   .     D
O810   S829    1.497   .     D
O811   S829    1.678   .     S
O813   S830    1.503   .     D
O814   S830    1.503   .     D
O815   S830    1.674   .     S
O816   S831    1.503   .     D
O817   S831    1.498   .     D
O818   S831    1.674   .     S
O819   S832    1.504   .     D
O820   S832    1.505   .     D
O821   S832    1.675   .     S
C833   O887    1.309   .     A
C833   C836    1.476   .     S
C833   O865    1.319   .     A
C834   C836    1.406   .     A
C834   C845    1.481   .     S
C835   C851    1.412   .     A
C835   C852    1.420   .     A
C835   C844    1.479   .     S
C836   C850    1.417   .     A
C837   S893    1.856   .     S
C837   N864    1.409   .     A
C838   S894    1.838   .     S
C838   N863    1.394   .     A
C838   C1031   1.465   .     S
C839   S895    1.855   .     S
C839   N864    1.402   .     A
C840   S896    1.834   .     S
C840   N863    1.393   .     A
C840   C1029   1.461   .     S
C841   O892    1.223   .     D
C841   O866    1.399   .     S
C841   C850    1.487   .     S
C842   C851    1.495   .     S
C842   O867    1.224   .     D
C842   O868    1.396   .     S
C843   O870    1.399   .     S
C843   C852    1.487   .     S
C843   O869    1.222   .     D
C844   O876    1.310   .     A
C844   O886    1.319   .     A
C845   O872    1.393   .     S
C845   O871    1.223   .     D
C846   O888    1.302   .     A
C846   C848    1.406   .     S
C846   O891    1.306   .     A
C847   O889    1.303   .     A
C847   O890    1.306   .     A
C847   C849    1.405   .     S
C849   C1424   1.188   .     S
C851   C898    1.398   .     S
C852   C914    1.402   .     S
Cu853  O888    1.924   .     S
Cu853  O886    1.971   .     S
Cu853  Cu854   2.731   .     S
Cu853  N863    2.053   .     S
Cu853  O865    1.970   .     S
Cu853  O890    1.928   .     S
Cu854  O887    1.971   .     S
Cu854  N864    2.053   .     S
Cu854  O889    1.924   .     S
Cu854  O891    1.928   .     S
Cu854  O876    1.970   .     S
H855   O866    1.012   .     S
H856   O868    1.013   .     S
H857   O870    1.014   .     S
H858   O872    1.012   .     S
H859   O875    0.991   .     S
H860   O879    0.991   .     S
H861   O882    0.991   .     S
H862   O885    0.991   .     S
O873   S893    1.503   .     D
O874   S893    1.497   .     D
O875   S893    1.678   .     S
O877   S894    1.503   .     D
O878   S894    1.503   .     D
O879   S894    1.674   .     S
O880   S895    1.503   .     D
O881   S895    1.498   .     D
O882   S895    1.674   .     S
O883   S896    1.504   .     D
O884   S896    1.505   .     D
O885   S896    1.675   .     S
C897   O951    1.309   .     A
C897   C900    1.476   .     S
C897   O929    1.319   .     A
C898   C900    1.406   .     A
C898   C909    1.481   .     S
C899   C915    1.412   .     A
C899   C916    1.420   .     A
C899   C908    1.479   .     S
C900   C914    1.417   .     A
C901   S957    1.856   .     S
C901   N928    1.409   .     A
C902   S958    1.838   .     S
C902   N927    1.394   .     A
C902   C1095   1.465   .     S
C903   S959    1.855   .     S
C903   N928    1.402   .     A
C904   S960    1.834   .     S
C904   N927    1.393   .     A
C904   C1093   1.461   .     S
C905   O956    1.223   .     D
C905   O930    1.399   .     S
C905   C914    1.487   .     S
C906   C915    1.495   .     S
C906   O931    1.224   .     D
C906   O932    1.396   .     S
C907   O934    1.399   .     S
C907   C916    1.487   .     S
C907   O933    1.222   .     D
C908   O940    1.310   .     A
C908   O950    1.319   .     A
C909   O936    1.393   .     S
C909   O935    1.223   .     D
C910   O952    1.302   .     A
C910   C912    1.406   .     S
C910   O955    1.306   .     A
C911   O953    1.303   .     A
C911   O954    1.306   .     A
C911   C913    1.405   .     S
C913   C1488   1.188   .     S
C915   C770    1.398   1_655 S
C916   C786    1.402   1_655 S
Cu917  O952    1.924   .     S
Cu917  O950    1.971   .     S
Cu917  Cu918   2.731   .     S
Cu917  N927    2.053   .     S
Cu917  O929    1.970   .     S
Cu917  O954    1.928   .     S
Cu918  O951    1.971   .     S
Cu918  N928    2.053   .     S
Cu918  O953    1.924   .     S
Cu918  O955    1.928   .     S
Cu918  O940    1.970   .     S
H919   O930    1.012   .     S
H920   O932    1.013   .     S
H921   O934    1.014   .     S
H922   O936    1.012   .     S
H923   O939    0.991   .     S
H924   O943    0.991   .     S
H925   O946    0.991   .     S
H926   O949    0.991   .     S
O937   S957    1.503   .     D
O938   S957    1.497   .     D
O939   S957    1.678   .     S
O941   S958    1.503   .     D
O942   S958    1.503   .     D
O943   S958    1.674   .     S
O944   S959    1.503   .     D
O945   S959    1.498   .     D
O946   S959    1.674   .     S
O947   S960    1.504   .     D
O948   S960    1.505   .     D
O949   S960    1.675   .     S
C961   O1015   1.309   .     A
C961   C964    1.476   .     S
C961   O993    1.319   .     A
C962   C964    1.406   .     A
C962   C973    1.481   .     S
C962   C1107   1.398   1_455 S
C963   C979    1.412   .     A
C963   C980    1.420   .     A
C963   C972    1.479   .     S
C964   C978    1.417   .     A
C965   S1021   1.856   .     S
C965   N992    1.409   .     A
C966   S1022   1.838   .     S
C966   N991    1.394   .     A
C966   C583    1.465   1_565 S
C967   S1023   1.855   .     S
C967   N992    1.402   .     A
C968   S1024   1.834   .     S
C968   N991    1.393   .     A
C968   C581    1.461   1_565 S
C969   O1020   1.223   .     D
C969   O994    1.399   .     S
C969   C978    1.487   .     S
C970   C979    1.495   .     S
C970   O995    1.224   .     D
C970   O996    1.396   .     S
C971   O998    1.399   .     S
C971   C980    1.487   .     S
C971   O997    1.222   .     D
C972   O1004   1.310   .     A
C972   O1014   1.319   .     A
C973   O1000   1.393   .     S
C973   O999    1.223   .     D
C974   O1016   1.302   .     A
C974   C976    1.406   .     S
C974   O1019   1.306   .     A
C975   O1017   1.303   .     A
C975   O1018   1.306   .     A
C975   C977    1.405   .     S
C977   C1552   1.188   .     S
C978   C1108   1.402   1_455 S
C979   C1026   1.398   .     S
C980   C1042   1.402   .     S
Cu981  O1016   1.924   .     S
Cu981  O1014   1.971   .     S
Cu981  Cu982   2.731   .     S
Cu981  N991    2.053   .     S
Cu981  O993    1.970   .     S
Cu981  O1018   1.928   .     S
Cu982  O1015   1.971   .     S
Cu982  N992    2.053   .     S
Cu982  O1017   1.924   .     S
Cu982  O1019   1.928   .     S
Cu982  O1004   1.970   .     S
H983   O994    1.012   .     S
H984   O996    1.013   .     S
H985   O998    1.014   .     S
H986   O1000   1.012   .     S
H987   O1003   0.991   .     S
H988   O1007   0.991   .     S
H989   O1010   0.991   .     S
H990   O1013   0.991   .     S
O1001  S1021   1.503   .     D
O1002  S1021   1.497   .     D
O1003  S1021   1.678   .     S
O1005  S1022   1.503   .     D
O1006  S1022   1.503   .     D
O1007  S1022   1.674   .     S
O1008  S1023   1.503   .     D
O1009  S1023   1.498   .     D
O1010  S1023   1.674   .     S
O1011  S1024   1.504   .     D
O1012  S1024   1.505   .     D
O1013  S1024   1.675   .     S
C1025  O1079   1.309   .     A
C1025  C1028   1.476   .     S
C1025  O1057   1.319   .     A
C1026  C1028   1.406   .     A
C1026  C1037   1.481   .     S
C1027  C1043   1.412   .     A
C1027  C1044   1.420   .     A
C1027  C1036   1.479   .     S
C1028  C1042   1.417   .     A
C1029  S1085   1.856   .     S
C1029  N1056   1.409   .     A
C1030  S1086   1.838   .     S
C1030  N1055   1.394   .     A
C1030  C647    1.465   1_565 S
C1031  S1087   1.855   .     S
C1031  N1056   1.402   .     A
C1032  S1088   1.834   .     S
C1032  N1055   1.393   .     A
C1032  C645    1.461   1_565 S
C1033  O1084   1.223   .     D
C1033  O1058   1.399   .     S
C1033  C1042   1.487   .     S
C1034  C1043   1.495   .     S
C1034  O1059   1.224   .     D
C1034  O1060   1.396   .     S
C1035  O1062   1.399   .     S
C1035  C1044   1.487   .     S
C1035  O1061   1.222   .     D
C1036  O1068   1.310   .     A
C1036  O1078   1.319   .     A
C1037  O1064   1.393   .     S
C1037  O1063   1.223   .     D
C1038  O1080   1.302   .     A
C1038  C1040   1.406   .     S
C1038  O1083   1.306   .     A
C1039  O1081   1.303   .     A
C1039  O1082   1.306   .     A
C1039  C1041   1.405   .     S
C1041  C1616   1.188   .     S
C1043  C1090   1.398   .     S
C1044  C1106   1.402   .     S
Cu1045 O1080   1.924   .     S
Cu1045 O1078   1.971   .     S
Cu1045 Cu1046  2.731   .     S
Cu1045 N1055   2.053   .     S
Cu1045 O1057   1.970   .     S
Cu1045 O1082   1.928   .     S
Cu1046 O1079   1.971   .     S
Cu1046 N1056   2.053   .     S
Cu1046 O1081   1.924   .     S
Cu1046 O1083   1.928   .     S
Cu1046 O1068   1.970   .     S
H1047  O1058   1.012   .     S
H1048  O1060   1.013   .     S
H1049  O1062   1.014   .     S
H1050  O1064   1.012   .     S
H1051  O1067   0.991   .     S
H1052  O1071   0.991   .     S
H1053  O1074   0.991   .     S
H1054  O1077   0.991   .     S
O1065  S1085   1.503   .     D
O1066  S1085   1.497   .     D
O1067  S1085   1.678   .     S
O1069  S1086   1.503   .     D
O1070  S1086   1.503   .     D
O1071  S1086   1.674   .     S
O1072  S1087   1.503   .     D
O1073  S1087   1.498   .     D
O1074  S1087   1.674   .     S
O1075  S1088   1.504   .     D
O1076  S1088   1.505   .     D
O1077  S1088   1.675   .     S
C1089  O1143   1.309   .     A
C1089  C1092   1.476   .     S
C1089  O1121   1.319   .     A
C1090  C1092   1.406   .     A
C1090  C1101   1.481   .     S
C1091  C1107   1.412   .     A
C1091  C1108   1.420   .     A
C1091  C1100   1.479   .     S
C1092  C1106   1.417   .     A
C1093  S1149   1.856   .     S
C1093  N1120   1.409   .     A
C1094  S1150   1.838   .     S
C1094  N1119   1.394   .     A
C1094  C711    1.465   1_565 S
C1095  S1151   1.855   .     S
C1095  N1120   1.402   .     A
C1096  S1152   1.834   .     S
C1096  N1119   1.393   .     A
C1096  C709    1.461   1_565 S
C1097  O1148   1.223   .     D
C1097  O1122   1.399   .     S
C1097  C1106   1.487   .     S
C1098  C1107   1.495   .     S
C1098  O1123   1.224   .     D
C1098  O1124   1.396   .     S
C1099  O1126   1.399   .     S
C1099  C1108   1.487   .     S
C1099  O1125   1.222   .     D
C1100  O1132   1.310   .     A
C1100  O1142   1.319   .     A
C1101  O1128   1.393   .     S
C1101  O1127   1.223   .     D
C1102  O1144   1.302   .     A
C1102  C1104   1.406   .     S
C1102  O1147   1.306   .     A
C1103  O1145   1.303   .     A
C1103  O1146   1.306   .     A
C1103  C1105   1.405   .     S
C1105  C1680   1.188   .     S
C1107  C962    1.398   1_655 S
C1108  C978    1.402   1_655 S
Cu1109 O1144   1.924   .     S
Cu1109 O1142   1.971   .     S
Cu1109 Cu1110  2.731   .     S
Cu1109 N1119   2.053   .     S
Cu1109 O1121   1.970   .     S
Cu1109 O1146   1.928   .     S
Cu1110 O1143   1.971   .     S
Cu1110 N1120   2.053   .     S
Cu1110 O1145   1.924   .     S
Cu1110 O1147   1.928   .     S
Cu1110 O1132   1.970   .     S
H1111  O1122   1.012   .     S
H1112  O1124   1.013   .     S
H1113  O1126   1.014   .     S
H1114  O1128   1.012   .     S
H1115  O1131   0.991   .     S
H1116  O1135   0.991   .     S
H1117  O1138   0.991   .     S
H1118  O1141   0.991   .     S
O1129  S1149   1.503   .     D
O1130  S1149   1.497   .     D
O1131  S1149   1.678   .     S
O1133  S1150   1.503   .     D
O1134  S1150   1.503   .     D
O1135  S1150   1.674   .     S
O1136  S1151   1.503   .     D
O1137  S1151   1.498   .     D
O1138  S1151   1.674   .     S
O1139  S1152   1.504   .     D
O1140  S1152   1.505   .     D
O1141  S1152   1.675   .     S
C1153  O1207   1.309   .     A
C1153  C1156   1.476   .     S
C1153  O1185   1.319   .     A
C1154  C1156   1.406   .     A
C1154  C1165   1.481   .     S
C1154  C1299   1.398   1_455 S
C1155  C1171   1.412   .     A
C1155  C1172   1.420   .     A
C1155  C1164   1.479   .     S
C1156  C1170   1.417   .     A
C1157  S1213   1.856   .     S
C1157  N1184   1.409   .     A
C1157  C1544   1.461   1_545 S
C1158  S1214   1.838   .     S
C1158  N1183   1.394   .     A
C1158  C1351   1.465   .     S
C1159  S1215   1.855   .     S
C1159  N1184   1.402   .     A
C1159  C1542   1.465   1_545 S
C1160  S1216   1.834   .     S
C1160  N1183   1.393   .     A
C1160  C1349   1.461   .     S
C1161  O1212   1.223   .     D
C1161  O1186   1.399   .     S
C1161  C1170   1.487   .     S
C1162  C1171   1.495   .     S
C1162  O1187   1.224   .     D
C1162  O1188   1.396   .     S
C1163  O1190   1.399   .     S
C1163  C1172   1.487   .     S
C1163  O1189   1.222   .     D
C1164  O1196   1.310   .     A
C1164  O1206   1.319   .     A
C1165  O1192   1.393   .     S
C1165  O1191   1.223   .     D
C1166  O1208   1.302   .     A
C1166  C1168   1.406   .     S
C1166  O1211   1.306   .     A
C1167  O1209   1.303   .     A
C1167  O1210   1.306   .     A
C1167  C1169   1.405   .     S
C1169  C16     1.188   1_556 S
C1170  C1300   1.402   1_455 S
C1171  C1218   1.398   .     S
C1172  C1234   1.402   .     S
Cu1173 O1208   1.924   .     S
Cu1173 O1206   1.971   .     S
Cu1173 Cu1174  2.731   .     S
Cu1173 N1183   2.053   .     S
Cu1173 O1185   1.970   .     S
Cu1173 O1210   1.928   .     S
Cu1174 O1207   1.971   .     S
Cu1174 N1184   2.053   .     S
Cu1174 O1209   1.924   .     S
Cu1174 O1211   1.928   .     S
Cu1174 O1196   1.970   .     S
H1175  O1186   1.012   .     S
H1176  O1188   1.013   .     S
H1177  O1190   1.014   .     S
H1178  O1192   1.012   .     S
H1179  O1195   0.991   .     S
H1180  O1199   0.991   .     S
H1181  O1202   0.991   .     S
H1182  O1205   0.991   .     S
O1193  S1213   1.503   .     D
O1194  S1213   1.497   .     D
O1195  S1213   1.678   .     S
O1197  S1214   1.503   .     D
O1198  S1214   1.503   .     D
O1199  S1214   1.674   .     S
O1200  S1215   1.503   .     D
O1201  S1215   1.498   .     D
O1202  S1215   1.674   .     S
O1203  S1216   1.504   .     D
O1204  S1216   1.505   .     D
O1205  S1216   1.675   .     S
C1217  O1271   1.309   .     A
C1217  C1220   1.476   .     S
C1217  O1249   1.319   .     A
C1218  C1220   1.406   .     A
C1218  C1229   1.481   .     S
C1219  C1235   1.412   .     A
C1219  C1236   1.420   .     A
C1219  C1228   1.479   .     S
C1220  C1234   1.417   .     A
C1221  S1277   1.856   .     S
C1221  N1248   1.409   .     A
C1221  C1608   1.461   1_545 S
C1222  S1278   1.838   .     S
C1222  N1247   1.394   .     A
C1222  C1415   1.465   .     S
C1223  S1279   1.855   .     S
C1223  N1248   1.402   .     A
C1223  C1606   1.465   1_545 S
C1224  S1280   1.834   .     S
C1224  N1247   1.393   .     A
C1224  C1413   1.461   .     S
C1225  O1276   1.223   .     D
C1225  O1250   1.399   .     S
C1225  C1234   1.487   .     S
C1226  C1235   1.495   .     S
C1226  O1251   1.224   .     D
C1226  O1252   1.396   .     S
C1227  O1254   1.399   .     S
C1227  C1236   1.487   .     S
C1227  O1253   1.222   .     D
C1228  O1260   1.310   .     A
C1228  O1270   1.319   .     A
C1229  O1256   1.393   .     S
C1229  O1255   1.223   .     D
C1230  O1272   1.302   .     A
C1230  C1232   1.406   .     S
C1230  O1275   1.306   .     A
C1231  O1273   1.303   .     A
C1231  O1274   1.306   .     A
C1231  C1233   1.405   .     S
C1233  C80     1.188   1_556 S
C1235  C1282   1.398   .     S
C1236  C1298   1.402   .     S
Cu1237 O1272   1.924   .     S
Cu1237 O1270   1.971   .     S
Cu1237 Cu1238  2.731   .     S
Cu1237 N1247   2.053   .     S
Cu1237 O1249   1.970   .     S
Cu1237 O1274   1.928   .     S
Cu1238 O1271   1.971   .     S
Cu1238 N1248   2.053   .     S
Cu1238 O1273   1.924   .     S
Cu1238 O1275   1.928   .     S
Cu1238 O1260   1.970   .     S
H1239  O1250   1.012   .     S
H1240  O1252   1.013   .     S
H1241  O1254   1.014   .     S
H1242  O1256   1.012   .     S
H1243  O1259   0.991   .     S
H1244  O1263   0.991   .     S
H1245  O1266   0.991   .     S
H1246  O1269   0.991   .     S
O1257  S1277   1.503   .     D
O1258  S1277   1.497   .     D
O1259  S1277   1.678   .     S
O1261  S1278   1.503   .     D
O1262  S1278   1.503   .     D
O1263  S1278   1.674   .     S
O1264  S1279   1.503   .     D
O1265  S1279   1.498   .     D
O1266  S1279   1.674   .     S
O1267  S1280   1.504   .     D
O1268  S1280   1.505   .     D
O1269  S1280   1.675   .     S
C1281  O1335   1.309   .     A
C1281  C1284   1.476   .     S
C1281  O1313   1.319   .     A
C1282  C1284   1.406   .     A
C1282  C1293   1.481   .     S
C1283  C1299   1.412   .     A
C1283  C1300   1.420   .     A
C1283  C1292   1.479   .     S
C1284  C1298   1.417   .     A
C1285  S1341   1.856   .     S
C1285  N1312   1.409   .     A
C1285  C1672   1.461   1_545 S
C1286  S1342   1.838   .     S
C1286  N1311   1.394   .     A
C1286  C1479   1.465   .     S
C1287  S1343   1.855   .     S
C1287  N1312   1.402   .     A
C1287  C1670   1.465   1_545 S
C1288  S1344   1.834   .     S
C1288  N1311   1.393   .     A
C1288  C1477   1.461   .     S
C1289  O1340   1.223   .     D
C1289  O1314   1.399   .     S
C1289  C1298   1.487   .     S
C1290  C1299   1.495   .     S
C1290  O1315   1.224   .     D
C1290  O1316   1.396   .     S
C1291  O1318   1.399   .     S
C1291  C1300   1.487   .     S
C1291  O1317   1.222   .     D
C1292  O1324   1.310   .     A
C1292  O1334   1.319   .     A
C1293  O1320   1.393   .     S
C1293  O1319   1.223   .     D
C1294  O1336   1.302   .     A
C1294  C1296   1.406   .     S
C1294  O1339   1.306   .     A
C1295  O1337   1.303   .     A
C1295  O1338   1.306   .     A
C1295  C1297   1.405   .     S
C1297  C144    1.188   1_556 S
C1299  C1154   1.398   1_655 S
C1300  C1170   1.402   1_655 S
Cu1301 O1336   1.924   .     S
Cu1301 O1334   1.971   .     S
Cu1301 Cu1302  2.731   .     S
Cu1301 N1311   2.053   .     S
Cu1301 O1313   1.970   .     S
Cu1301 O1338   1.928   .     S
Cu1302 O1335   1.971   .     S
Cu1302 N1312   2.053   .     S
Cu1302 O1337   1.924   .     S
Cu1302 O1339   1.928   .     S
Cu1302 O1324   1.970   .     S
H1303  O1314   1.012   .     S
H1304  O1316   1.013   .     S
H1305  O1318   1.014   .     S
H1306  O1320   1.012   .     S
H1307  O1323   0.991   .     S
H1308  O1327   0.991   .     S
H1309  O1330   0.991   .     S
H1310  O1333   0.991   .     S
O1321  S1341   1.503   .     D
O1322  S1341   1.497   .     D
O1323  S1341   1.678   .     S
O1325  S1342   1.503   .     D
O1326  S1342   1.503   .     D
O1327  S1342   1.674   .     S
O1328  S1343   1.503   .     D
O1329  S1343   1.498   .     D
O1330  S1343   1.674   .     S
O1331  S1344   1.504   .     D
O1332  S1344   1.505   .     D
O1333  S1344   1.675   .     S
C1345  O1399   1.309   .     A
C1345  C1348   1.476   .     S
C1345  O1377   1.319   .     A
C1346  C1348   1.406   .     A
C1346  C1357   1.481   .     S
C1346  C1491   1.398   1_455 S
C1347  C1363   1.412   .     A
C1347  C1364   1.420   .     A
C1347  C1356   1.479   .     S
C1348  C1362   1.417   .     A
C1349  S1405   1.856   .     S
C1349  N1376   1.409   .     A
C1350  S1406   1.838   .     S
C1350  N1375   1.394   .     A
C1350  C1543   1.465   .     S
C1351  S1407   1.855   .     S
C1351  N1376   1.402   .     A
C1352  S1408   1.834   .     S
C1352  N1375   1.393   .     A
C1352  C1541   1.461   .     S
C1353  O1404   1.223   .     D
C1353  O1378   1.399   .     S
C1353  C1362   1.487   .     S
C1354  C1363   1.495   .     S
C1354  O1379   1.224   .     D
C1354  O1380   1.396   .     S
C1355  O1382   1.399   .     S
C1355  C1364   1.487   .     S
C1355  O1381   1.222   .     D
C1356  O1388   1.310   .     A
C1356  O1398   1.319   .     A
C1357  O1384   1.393   .     S
C1357  O1383   1.223   .     D
C1358  O1400   1.302   .     A
C1358  C1360   1.406   .     S
C1358  O1403   1.306   .     A
C1359  O1401   1.303   .     A
C1359  O1402   1.306   .     A
C1359  C1361   1.405   .     S
C1361  C208    1.188   1_556 S
C1362  C1492   1.402   1_455 S
C1363  C1410   1.398   .     S
C1364  C1426   1.402   .     S
Cu1365 O1400   1.924   .     S
Cu1365 O1398   1.971   .     S
Cu1365 Cu1366  2.731   .     S
Cu1365 N1375   2.053   .     S
Cu1365 O1377   1.970   .     S
Cu1365 O1402   1.928   .     S
Cu1366 O1399   1.971   .     S
Cu1366 N1376   2.053   .     S
Cu1366 O1401   1.924   .     S
Cu1366 O1403   1.928   .     S
Cu1366 O1388   1.970   .     S
H1367  O1378   1.012   .     S
H1368  O1380   1.013   .     S
H1369  O1382   1.014   .     S
H1370  O1384   1.012   .     S
H1371  O1387   0.991   .     S
H1372  O1391   0.991   .     S
H1373  O1394   0.991   .     S
H1374  O1397   0.991   .     S
O1385  S1405   1.503   .     D
O1386  S1405   1.497   .     D
O1387  S1405   1.678   .     S
O1389  S1406   1.503   .     D
O1390  S1406   1.503   .     D
O1391  S1406   1.674   .     S
O1392  S1407   1.503   .     D
O1393  S1407   1.498   .     D
O1394  S1407   1.674   .     S
O1395  S1408   1.504   .     D
O1396  S1408   1.505   .     D
O1397  S1408   1.675   .     S
C1409  O1463   1.309   .     A
C1409  C1412   1.476   .     S
C1409  O1441   1.319   .     A
C1410  C1412   1.406   .     A
C1410  C1421   1.481   .     S
C1411  C1427   1.412   .     A
C1411  C1428   1.420   .     A
C1411  C1420   1.479   .     S
C1412  C1426   1.417   .     A
C1413  S1469   1.856   .     S
C1413  N1440   1.409   .     A
C1414  S1470   1.838   .     S
C1414  N1439   1.394   .     A
C1414  C1607   1.465   .     S
C1415  S1471   1.855   .     S
C1415  N1440   1.402   .     A
C1416  S1472   1.834   .     S
C1416  N1439   1.393   .     A
C1416  C1605   1.461   .     S
C1417  O1468   1.223   .     D
C1417  O1442   1.399   .     S
C1417  C1426   1.487   .     S
C1418  C1427   1.495   .     S
C1418  O1443   1.224   .     D
C1418  O1444   1.396   .     S
C1419  O1446   1.399   .     S
C1419  C1428   1.487   .     S
C1419  O1445   1.222   .     D
C1420  O1452   1.310   .     A
C1420  O1462   1.319   .     A
C1421  O1448   1.393   .     S
C1421  O1447   1.223   .     D
C1422  O1464   1.302   .     A
C1422  C1424   1.406   .     S
C1422  O1467   1.306   .     A
C1423  O1465   1.303   .     A
C1423  O1466   1.306   .     A
C1423  C1425   1.405   .     S
C1425  C272    1.188   1_556 S
C1427  C1474   1.398   .     S
C1428  C1490   1.402   .     S
Cu1429 O1464   1.924   .     S
Cu1429 O1462   1.971   .     S
Cu1429 Cu1430  2.731   .     S
Cu1429 N1439   2.053   .     S
Cu1429 O1441   1.970   .     S
Cu1429 O1466   1.928   .     S
Cu1430 O1463   1.971   .     S
Cu1430 N1440   2.053   .     S
Cu1430 O1465   1.924   .     S
Cu1430 O1467   1.928   .     S
Cu1430 O1452   1.970   .     S
H1431  O1442   1.012   .     S
H1432  O1444   1.013   .     S
H1433  O1446   1.014   .     S
H1434  O1448   1.012   .     S
H1435  O1451   0.991   .     S
H1436  O1455   0.991   .     S
H1437  O1458   0.991   .     S
H1438  O1461   0.991   .     S
O1449  S1469   1.503   .     D
O1450  S1469   1.497   .     D
O1451  S1469   1.678   .     S
O1453  S1470   1.503   .     D
O1454  S1470   1.503   .     D
O1455  S1470   1.674   .     S
O1456  S1471   1.503   .     D
O1457  S1471   1.498   .     D
O1458  S1471   1.674   .     S
O1459  S1472   1.504   .     D
O1460  S1472   1.505   .     D
O1461  S1472   1.675   .     S
C1473  O1527   1.309   .     A
C1473  C1476   1.476   .     S
C1473  O1505   1.319   .     A
C1474  C1476   1.406   .     A
C1474  C1485   1.481   .     S
C1475  C1491   1.412   .     A
C1475  C1492   1.420   .     A
C1475  C1484   1.479   .     S
C1476  C1490   1.417   .     A
C1477  S1533   1.856   .     S
C1477  N1504   1.409   .     A
C1478  S1534   1.838   .     S
C1478  N1503   1.394   .     A
C1478  C1671   1.465   .     S
C1479  S1535   1.855   .     S
C1479  N1504   1.402   .     A
C1480  S1536   1.834   .     S
C1480  N1503   1.393   .     A
C1480  C1669   1.461   .     S
C1481  O1532   1.223   .     D
C1481  O1506   1.399   .     S
C1481  C1490   1.487   .     S
C1482  C1491   1.495   .     S
C1482  O1507   1.224   .     D
C1482  O1508   1.396   .     S
C1483  O1510   1.399   .     S
C1483  C1492   1.487   .     S
C1483  O1509   1.222   .     D
C1484  O1516   1.310   .     A
C1484  O1526   1.319   .     A
C1485  O1512   1.393   .     S
C1485  O1511   1.223   .     D
C1486  O1528   1.302   .     A
C1486  C1488   1.406   .     S
C1486  O1531   1.306   .     A
C1487  O1529   1.303   .     A
C1487  O1530   1.306   .     A
C1487  C1489   1.405   .     S
C1489  C336    1.188   1_556 S
C1491  C1346   1.398   1_655 S
C1492  C1362   1.402   1_655 S
Cu1493 O1528   1.924   .     S
Cu1493 O1526   1.971   .     S
Cu1493 Cu1494  2.731   .     S
Cu1493 N1503   2.053   .     S
Cu1493 O1505   1.970   .     S
Cu1493 O1530   1.928   .     S
Cu1494 O1527   1.971   .     S
Cu1494 N1504   2.053   .     S
Cu1494 O1529   1.924   .     S
Cu1494 O1531   1.928   .     S
Cu1494 O1516   1.970   .     S
H1495  O1506   1.012   .     S
H1496  O1508   1.013   .     S
H1497  O1510   1.014   .     S
H1498  O1512   1.012   .     S
H1499  O1515   0.991   .     S
H1500  O1519   0.991   .     S
H1501  O1522   0.991   .     S
H1502  O1525   0.991   .     S
O1513  S1533   1.503   .     D
O1514  S1533   1.497   .     D
O1515  S1533   1.678   .     S
O1517  S1534   1.503   .     D
O1518  S1534   1.503   .     D
O1519  S1534   1.674   .     S
O1520  S1535   1.503   .     D
O1521  S1535   1.498   .     D
O1522  S1535   1.674   .     S
O1523  S1536   1.504   .     D
O1524  S1536   1.505   .     D
O1525  S1536   1.675   .     S
C1537  O1591   1.309   .     A
C1537  C1540   1.476   .     S
C1537  O1569   1.319   .     A
C1538  C1540   1.406   .     A
C1538  C1549   1.481   .     S
C1538  C1683   1.398   1_455 S
C1539  C1555   1.412   .     A
C1539  C1556   1.420   .     A
C1539  C1548   1.479   .     S
C1540  C1554   1.417   .     A
C1541  S1597   1.856   .     S
C1541  N1568   1.409   .     A
C1542  S1598   1.838   .     S
C1542  N1567   1.394   .     A
C1542  C1159   1.465   1_565 S
C1543  S1599   1.855   .     S
C1543  N1568   1.402   .     A
C1544  S1600   1.834   .     S
C1544  N1567   1.393   .     A
C1544  C1157   1.461   1_565 S
C1545  O1596   1.223   .     D
C1545  O1570   1.399   .     S
C1545  C1554   1.487   .     S
C1546  C1555   1.495   .     S
C1546  O1571   1.224   .     D
C1546  O1572   1.396   .     S
C1547  O1574   1.399   .     S
C1547  C1556   1.487   .     S
C1547  O1573   1.222   .     D
C1548  O1580   1.310   .     A
C1548  O1590   1.319   .     A
C1549  O1576   1.393   .     S
C1549  O1575   1.223   .     D
C1550  O1592   1.302   .     A
C1550  C1552   1.406   .     S
C1550  O1595   1.306   .     A
C1551  O1593   1.303   .     A
C1551  O1594   1.306   .     A
C1551  C1553   1.405   .     S
C1553  C400    1.188   1_556 S
C1554  C1684   1.402   1_455 S
C1555  C1602   1.398   .     S
C1556  C1618   1.402   .     S
Cu1557 O1592   1.924   .     S
Cu1557 O1590   1.971   .     S
Cu1557 Cu1558  2.731   .     S
Cu1557 N1567   2.053   .     S
Cu1557 O1569   1.970   .     S
Cu1557 O1594   1.928   .     S
Cu1558 O1591   1.971   .     S
Cu1558 N1568   2.053   .     S
Cu1558 O1593   1.924   .     S
Cu1558 O1595   1.928   .     S
Cu1558 O1580   1.970   .     S
H1559  O1570   1.012   .     S
H1560  O1572   1.013   .     S
H1561  O1574   1.014   .     S
H1562  O1576   1.012   .     S
H1563  O1579   0.991   .     S
H1564  O1583   0.991   .     S
H1565  O1586   0.991   .     S
H1566  O1589   0.991   .     S
O1577  S1597   1.503   .     D
O1578  S1597   1.497   .     D
O1579  S1597   1.678   .     S
O1581  S1598   1.503   .     D
O1582  S1598   1.503   .     D
O1583  S1598   1.674   .     S
O1584  S1599   1.503   .     D
O1585  S1599   1.498   .     D
O1586  S1599   1.674   .     S
O1587  S1600   1.504   .     D
O1588  S1600   1.505   .     D
O1589  S1600   1.675   .     S
C1601  O1655   1.309   .     A
C1601  C1604   1.476   .     S
C1601  O1633   1.319   .     A
C1602  C1604   1.406   .     A
C1602  C1613   1.481   .     S
C1603  C1619   1.412   .     A
C1603  C1620   1.420   .     A
C1603  C1612   1.479   .     S
C1604  C1618   1.417   .     A
C1605  S1661   1.856   .     S
C1605  N1632   1.409   .     A
C1606  S1662   1.838   .     S
C1606  N1631   1.394   .     A
C1606  C1223   1.465   1_565 S
C1607  S1663   1.855   .     S
C1607  N1632   1.402   .     A
C1608  S1664   1.834   .     S
C1608  N1631   1.393   .     A
C1608  C1221   1.461   1_565 S
C1609  O1660   1.223   .     D
C1609  O1634   1.399   .     S
C1609  C1618   1.487   .     S
C1610  C1619   1.495   .     S
C1610  O1635   1.224   .     D
C1610  O1636   1.396   .     S
C1611  O1638   1.399   .     S
C1611  C1620   1.487   .     S
C1611  O1637   1.222   .     D
C1612  O1644   1.310   .     A
C1612  O1654   1.319   .     A
C1613  O1640   1.393   .     S
C1613  O1639   1.223   .     D
C1614  O1656   1.302   .     A
C1614  C1616   1.406   .     S
C1614  O1659   1.306   .     A
C1615  O1657   1.303   .     A
C1615  O1658   1.306   .     A
C1615  C1617   1.405   .     S
C1617  C464    1.188   1_556 S
C1619  C1666   1.398   .     S
C1620  C1682   1.402   .     S
Cu1621 O1656   1.924   .     S
Cu1621 O1654   1.971   .     S
Cu1621 Cu1622  2.731   .     S
Cu1621 N1631   2.053   .     S
Cu1621 O1633   1.970   .     S
Cu1621 O1658   1.928   .     S
Cu1622 O1655   1.971   .     S
Cu1622 N1632   2.053   .     S
Cu1622 O1657   1.924   .     S
Cu1622 O1659   1.928   .     S
Cu1622 O1644   1.970   .     S
H1623  O1634   1.012   .     S
H1624  O1636   1.013   .     S
H1625  O1638   1.014   .     S
H1626  O1640   1.012   .     S
H1627  O1643   0.991   .     S
H1628  O1647   0.991   .     S
H1629  O1650   0.991   .     S
H1630  O1653   0.991   .     S
O1641  S1661   1.503   .     D
O1642  S1661   1.497   .     D
O1643  S1661   1.678   .     S
O1645  S1662   1.503   .     D
O1646  S1662   1.503   .     D
O1647  S1662   1.674   .     S
O1648  S1663   1.503   .     D
O1649  S1663   1.498   .     D
O1650  S1663   1.674   .     S
O1651  S1664   1.504   .     D
O1652  S1664   1.505   .     D
O1653  S1664   1.675   .     S
C1665  O1719   1.309   .     A
C1665  C1668   1.476   .     S
C1665  O1697   1.319   .     A
C1666  C1668   1.406   .     A
C1666  C1677   1.481   .     S
C1667  C1683   1.412   .     A
C1667  C1684   1.420   .     A
C1667  C1676   1.479   .     S
C1668  C1682   1.417   .     A
C1669  S1725   1.856   .     S
C1669  N1696   1.409   .     A
C1670  S1726   1.838   .     S
C1670  N1695   1.394   .     A
C1670  C1287   1.465   1_565 S
C1671  S1727   1.855   .     S
C1671  N1696   1.402   .     A
C1672  S1728   1.834   .     S
C1672  N1695   1.393   .     A
C1672  C1285   1.461   1_565 S
C1673  O1724   1.223   .     D
C1673  O1698   1.399   .     S
C1673  C1682   1.487   .     S
C1674  C1683   1.495   .     S
C1674  O1699   1.224   .     D
C1674  O1700   1.396   .     S
C1675  O1702   1.399   .     S
C1675  C1684   1.487   .     S
C1675  O1701   1.222   .     D
C1676  O1708   1.310   .     A
C1676  O1718   1.319   .     A
C1677  O1704   1.393   .     S
C1677  O1703   1.223   .     D
C1678  O1720   1.302   .     A
C1678  C1680   1.406   .     S
C1678  O1723   1.306   .     A
C1679  O1721   1.303   .     A
C1679  O1722   1.306   .     A
C1679  C1681   1.405   .     S
C1681  C528    1.188   1_556 S
C1683  C1538   1.398   1_655 S
C1684  C1554   1.402   1_655 S
Cu1685 O1720   1.924   .     S
Cu1685 O1718   1.971   .     S
Cu1685 Cu1686  2.731   .     S
Cu1685 N1695   2.053   .     S
Cu1685 O1697   1.970   .     S
Cu1685 O1722   1.928   .     S
Cu1686 O1719   1.971   .     S
Cu1686 N1696   2.053   .     S
Cu1686 O1721   1.924   .     S
Cu1686 O1723   1.928   .     S
Cu1686 O1708   1.970   .     S
H1687  O1698   1.012   .     S
H1688  O1700   1.013   .     S
H1689  O1702   1.014   .     S
H1690  O1704   1.012   .     S
H1691  O1707   0.991   .     S
H1692  O1711   0.991   .     S
H1693  O1714   0.991   .     S
H1694  O1717   0.991   .     S
O1705  S1725   1.503   .     D
O1706  S1725   1.497   .     D
O1707  S1725   1.678   .     S
O1709  S1726   1.503   .     D
O1710  S1726   1.503   .     D
O1711  S1726   1.674   .     S
O1712  S1727   1.503   .     D
O1713  S1727   1.498   .     D
O1714  S1727   1.674   .     S
O1715  S1728   1.504   .     D
O1716  S1728   1.505   .     D
O1717  S1728   1.675   .     S
