data_str_m2_o1_o18_pcu_sym.88
_audit_creation_date              2020-01-03
_audit_creation_method            'Materials Studio'
_symmetry_space_group_name_H-M    'P1'
_symmetry_Int_Tables_number       1
_symmetry_cell_setting            triclinic
loop_
_symmetry_equiv_pos_as_xyz
  x,y,z
_cell_length_a                    28.9127
_cell_length_b                    32.4411
_cell_length_c                    31.5767
_cell_angle_alpha                 89.8720
_cell_angle_beta                  72.1192
_cell_angle_gamma                 89.7517
loop_
_atom_site_label
_atom_site_type_symbol
_atom_site_fract_x
_atom_site_fract_y
_atom_site_fract_z
_atom_site_U_iso_or_equiv
_atom_site_adp_type
_atom_site_occupancy
C1     C     0.33326   0.08753   0.25063   0.00000  Uiso   1.00
C2     C     0.02959   0.02061   0.27111   0.00000  Uiso   1.00
C3     C     0.33324   0.29047   0.24905   0.00000  Uiso   1.00
C4     C     0.00014   0.04285   0.25088   0.00000  Uiso   1.00
C5     C     0.18128   0.14393   0.28028   0.00000  Uiso   1.00
C6     C     0.15205   0.18941   0.21972   0.00000  Uiso   1.00
C7     C     0.13197   0.14392   0.28025   0.00000  Uiso   1.00
C8     C     0.20137   0.18941   0.21974   0.00000  Uiso   1.00
C9     C     0.30526   0.16702   0.33554   0.00000  Uiso   1.00
C10    C     0.02806   0.16695   0.16446   0.00000  Uiso   1.00
C11    C     0.28804   0.17083   0.38369   0.00000  Uiso   1.00
C12    C     0.00009   0.24580   0.24935   0.00000  Uiso   1.00
C13    C     0.04504   0.16990   0.11621   0.00000  Uiso   1.00
C14    C     0.29120   0.20587   0.45033   0.00000  Uiso   1.00
C15    C     0.03878   0.20047   0.04825   0.00000  Uiso   1.00
C16    C     0.31082   0.19821   0.40481   0.00000  Uiso   1.00
C17    C     0.02048   0.19512   0.09439   0.00000  Uiso   1.00
C18    C     0.24320   0.15396   0.40731   0.00000  Uiso   1.00
C19    C     0.09018   0.15328   0.09264   0.00000  Uiso   1.00
C20    C     0.22359   0.16108   0.45305   0.00000  Uiso   1.00
C21    C     0.10884   0.15901   0.04653   0.00000  Uiso   1.00
C22    C     0.25232   0.18101   0.47568   0.00000  Uiso   1.00
C23    C     0.19335   0.16108   0.04549   0.00000  Uiso   1.00
C24    C     0.07867   0.17646   0.02366   0.00000  Uiso   1.00
C25    C     0.17406   0.15492   0.47613   0.00000  Uiso   1.00
C26    C     0.15865   0.15494   0.02329   0.00000  Uiso   1.00
C27    C     0.13901   0.15886   0.45381   0.00000  Uiso   1.00
C28    C     0.23870   0.17721   0.02234   0.00000  Uiso   1.00
C29    C     0.09241   0.17285   0.47702   0.00000  Uiso   1.00
C30    C     0.30403   0.02217   0.23005   0.00000  Uiso   1.00
C31    C     0.02936   0.31114   0.26986   0.00000  Uiso   1.00
C32    C     0.30384   0.31270   0.22874   0.00000  Uiso   1.00
Cu33   Cu    0.04689   0.16667   0.25000   0.00000  Uiso   1.00
Cu34   Cu    0.28645   0.16666   0.25000   0.00000  Uiso   1.00
H35    H     0.11072   0.13635   0.11046   0.00000  Uiso   1.00
H36    H     0.14185   0.20779   0.19536   0.00000  Uiso   1.00
H37    H     0.10561   0.12552   0.30459   0.00000  Uiso   1.00
H38    H     0.22774   0.20780   0.19539   0.00000  Uiso   1.00
H39    H     0.25382   0.20930   0.07087   0.00000  Uiso   1.00
H40    H     0.27747   0.16123   0.06281   0.00000  Uiso   1.00
H41    H     0.07572   0.20535   0.42925   0.00000  Uiso   1.00
H42    H     0.05423   0.15667   0.43606   0.00000  Uiso   1.00
H43    H     0.00450   0.24966   0.45911   0.00000  Uiso   1.00
H44    H     0.28202   0.25055   0.49914   0.00000  Uiso   1.00
H45    H     0.33052   0.25238   0.05156   0.00000  Uiso   1.00
H46    H     0.22366   0.13564   0.38983   0.00000  Uiso   1.00
H47    H     0.05293   0.25443   0.01542   0.00000  Uiso   1.00
H48    H     0.23871   0.30090   0.22020   0.00000  Uiso   1.00
H49    H     0.28593   0.30218   0.17267   0.00000  Uiso   1.00
H50    H     0.09484   0.03241   0.27939   0.00000  Uiso   1.00
H51    H     0.04781   0.03104   0.32704   0.00000  Uiso   1.00
H52    H     0.32231   0.21260   0.11354   0.00000  Uiso   1.00
H53    H     0.00760   0.21674   0.38514   0.00000  Uiso   1.00
H54    H     0.18378   0.16029   0.08138   0.00000  Uiso   1.00
H55    H     0.14890   0.15839   0.41788   0.00000  Uiso   1.00
H56    H     0.28176   0.03925   0.21396   0.00000  Uiso   1.00
H57    H     0.05162   0.29406   0.28595   0.00000  Uiso   1.00
H58    H     0.19149   0.12556   0.30465   0.00000  Uiso   1.00
N59    N     0.11736   0.16668   0.24999   0.00000  Uiso   1.00
N60    N     0.21597   0.16666   0.25001   0.00000  Uiso   1.00
N61    N     0.27122   0.18778   0.04650   0.00000  Uiso   1.00
N62    N     0.05932   0.18305   0.45304   0.00000  Uiso   1.00
N63    N     0.30056   0.24570   0.46559   0.00000  Uiso   1.00
N64    N     0.02305   0.23498   0.02781   0.00000  Uiso   1.00
N65    N     0.27496   0.29205   0.20571   0.00000  Uiso   1.00
N66    N     0.05862   0.04124   0.29402   0.00000  Uiso   1.00
O67    O     0.03958   0.10655   0.25000   0.00000  Uiso   1.00
O68    O     0.29375   0.22678   0.25000   0.00000  Uiso   1.00
O69    O     0.29372   0.10654   0.25000   0.00000  Uiso   1.00
O70    O     0.03961   0.22679   0.24999   0.00000  Uiso   1.00
O71    O     0.01852   0.16668   0.31491   0.00000  Uiso   1.00
O72    O     0.31481   0.16666   0.18508   0.00000  Uiso   1.00
O73    O     0.27267   0.16667   0.31492   0.00000  Uiso   1.00
O74    O     0.06067   0.16667   0.18508   0.00000  Uiso   1.00
C75    C     0.66659   0.08753   0.25063   0.00000  Uiso   1.00
C76    C     0.36293   0.02061   0.27111   0.00000  Uiso   1.00
C77    C     0.66657   0.29047   0.24905   0.00000  Uiso   1.00
C78    C     0.33347   0.04285   0.25088   0.00000  Uiso   1.00
C79    C     0.51461   0.14393   0.28028   0.00000  Uiso   1.00
C80    C     0.48539   0.18941   0.21972   0.00000  Uiso   1.00
C81    C     0.46530   0.14392   0.28025   0.00000  Uiso   1.00
C82    C     0.53470   0.18941   0.21974   0.00000  Uiso   1.00
C83    C     0.63859   0.16702   0.33554   0.00000  Uiso   1.00
C84    C     0.36139   0.16695   0.16446   0.00000  Uiso   1.00
C85    C     0.62138   0.17083   0.38369   0.00000  Uiso   1.00
C86    C     0.33342   0.24580   0.24935   0.00000  Uiso   1.00
C87    C     0.37837   0.16990   0.11621   0.00000  Uiso   1.00
C88    C     0.62453   0.20587   0.45033   0.00000  Uiso   1.00
C89    C     0.37211   0.20047   0.04825   0.00000  Uiso   1.00
C90    C     0.64415   0.19821   0.40481   0.00000  Uiso   1.00
C91    C     0.35381   0.19512   0.09439   0.00000  Uiso   1.00
C92    C     0.57653   0.15396   0.40731   0.00000  Uiso   1.00
C93    C     0.42351   0.15328   0.09264   0.00000  Uiso   1.00
C94    C     0.55692   0.16108   0.45305   0.00000  Uiso   1.00
C95    C     0.44218   0.15901   0.04653   0.00000  Uiso   1.00
C96    C     0.58565   0.18101   0.47568   0.00000  Uiso   1.00
C97    C     0.52668   0.16108   0.04549   0.00000  Uiso   1.00
C98    C     0.41200   0.17646   0.02366   0.00000  Uiso   1.00
C99    C     0.50739   0.15492   0.47613   0.00000  Uiso   1.00
C100   C     0.49199   0.15494   0.02329   0.00000  Uiso   1.00
C101   C     0.47234   0.15886   0.45381   0.00000  Uiso   1.00
C102   C     0.57203   0.17721   0.02234   0.00000  Uiso   1.00
C103   C     0.42574   0.17285   0.47702   0.00000  Uiso   1.00
C104   C     0.63736   0.02217   0.23005   0.00000  Uiso   1.00
C105   C     0.36269   0.31114   0.26986   0.00000  Uiso   1.00
C106   C     0.63718   0.31270   0.22874   0.00000  Uiso   1.00
Cu107  Cu    0.38022   0.16667   0.25000   0.00000  Uiso   1.00
Cu108  Cu    0.61978   0.16666   0.25000   0.00000  Uiso   1.00
H109   H     0.44405   0.13635   0.11046   0.00000  Uiso   1.00
H110   H     0.47518   0.20779   0.19536   0.00000  Uiso   1.00
H111   H     0.43894   0.12552   0.30459   0.00000  Uiso   1.00
H112   H     0.56107   0.20780   0.19539   0.00000  Uiso   1.00
H113   H     0.58716   0.20930   0.07087   0.00000  Uiso   1.00
H114   H     0.61081   0.16123   0.06281   0.00000  Uiso   1.00
H115   H     0.40905   0.20535   0.42925   0.00000  Uiso   1.00
H116   H     0.38756   0.15667   0.43606   0.00000  Uiso   1.00
H117   H     0.33783   0.24966   0.45911   0.00000  Uiso   1.00
H118   H     0.61535   0.25055   0.49914   0.00000  Uiso   1.00
H119   H     0.66385   0.25238   0.05156   0.00000  Uiso   1.00
H120   H     0.55699   0.13564   0.38983   0.00000  Uiso   1.00
H121   H     0.38627   0.25443   0.01542   0.00000  Uiso   1.00
H122   H     0.57204   0.30090   0.22020   0.00000  Uiso   1.00
H123   H     0.61927   0.30218   0.17267   0.00000  Uiso   1.00
H124   H     0.42818   0.03241   0.27939   0.00000  Uiso   1.00
H125   H     0.38114   0.03104   0.32704   0.00000  Uiso   1.00
H126   H     0.65565   0.21260   0.11354   0.00000  Uiso   1.00
H127   H     0.34093   0.21674   0.38514   0.00000  Uiso   1.00
H128   H     0.51711   0.16029   0.08138   0.00000  Uiso   1.00
H129   H     0.48224   0.15839   0.41788   0.00000  Uiso   1.00
H130   H     0.61510   0.03925   0.21396   0.00000  Uiso   1.00
H131   H     0.38495   0.29406   0.28595   0.00000  Uiso   1.00
H132   H     0.52482   0.12556   0.30465   0.00000  Uiso   1.00
N133   N     0.45069   0.16668   0.24999   0.00000  Uiso   1.00
N134   N     0.54931   0.16666   0.25001   0.00000  Uiso   1.00
N135   N     0.60455   0.18778   0.04650   0.00000  Uiso   1.00
N136   N     0.39266   0.18305   0.45304   0.00000  Uiso   1.00
N137   N     0.63389   0.24570   0.46559   0.00000  Uiso   1.00
N138   N     0.35638   0.23498   0.02781   0.00000  Uiso   1.00
N139   N     0.60829   0.29205   0.20571   0.00000  Uiso   1.00
N140   N     0.39195   0.04124   0.29402   0.00000  Uiso   1.00
O141   O     0.37291   0.10655   0.25000   0.00000  Uiso   1.00
O142   O     0.62709   0.22678   0.25000   0.00000  Uiso   1.00
O143   O     0.62706   0.10654   0.25000   0.00000  Uiso   1.00
O144   O     0.37294   0.22679   0.24999   0.00000  Uiso   1.00
O145   O     0.35186   0.16668   0.31491   0.00000  Uiso   1.00
O146   O     0.64814   0.16666   0.18508   0.00000  Uiso   1.00
O147   O     0.60600   0.16667   0.31492   0.00000  Uiso   1.00
O148   O     0.39400   0.16667   0.18508   0.00000  Uiso   1.00
C149   C     0.99992   0.08753   0.25063   0.00000  Uiso   1.00
C150   C     0.69626   0.02061   0.27111   0.00000  Uiso   1.00
C151   C     0.99990   0.29047   0.24905   0.00000  Uiso   1.00
C152   C     0.66681   0.04285   0.25088   0.00000  Uiso   1.00
C153   C     0.84795   0.14393   0.28028   0.00000  Uiso   1.00
C154   C     0.81872   0.18941   0.21972   0.00000  Uiso   1.00
C155   C     0.79863   0.14392   0.28025   0.00000  Uiso   1.00
C156   C     0.86804   0.18941   0.21974   0.00000  Uiso   1.00
C157   C     0.97192   0.16702   0.33554   0.00000  Uiso   1.00
C158   C     0.69472   0.16695   0.16446   0.00000  Uiso   1.00
C159   C     0.95471   0.17083   0.38369   0.00000  Uiso   1.00
C160   C     0.66675   0.24580   0.24935   0.00000  Uiso   1.00
C161   C     0.71170   0.16990   0.11621   0.00000  Uiso   1.00
C162   C     0.95787   0.20587   0.45033   0.00000  Uiso   1.00
C163   C     0.70545   0.20047   0.04825   0.00000  Uiso   1.00
C164   C     0.97748   0.19821   0.40481   0.00000  Uiso   1.00
C165   C     0.68715   0.19512   0.09439   0.00000  Uiso   1.00
C166   C     0.90986   0.15396   0.40731   0.00000  Uiso   1.00
C167   C     0.75684   0.15328   0.09264   0.00000  Uiso   1.00
C168   C     0.89026   0.16108   0.45305   0.00000  Uiso   1.00
C169   C     0.77551   0.15901   0.04653   0.00000  Uiso   1.00
C170   C     0.91898   0.18101   0.47568   0.00000  Uiso   1.00
C171   C     0.86001   0.16108   0.04549   0.00000  Uiso   1.00
C172   C     0.74534   0.17646   0.02366   0.00000  Uiso   1.00
C173   C     0.84073   0.15492   0.47613   0.00000  Uiso   1.00
C174   C     0.82532   0.15494   0.02329   0.00000  Uiso   1.00
C175   C     0.80568   0.15886   0.45381   0.00000  Uiso   1.00
C176   C     0.90537   0.17721   0.02234   0.00000  Uiso   1.00
C177   C     0.75908   0.17285   0.47702   0.00000  Uiso   1.00
C178   C     0.97070   0.02217   0.23005   0.00000  Uiso   1.00
C179   C     0.69603   0.31114   0.26986   0.00000  Uiso   1.00
C180   C     0.97051   0.31270   0.22874   0.00000  Uiso   1.00
Cu181  Cu    0.71355   0.16667   0.25000   0.00000  Uiso   1.00
Cu182  Cu    0.95311   0.16666   0.25000   0.00000  Uiso   1.00
H183   H     0.77738   0.13635   0.11046   0.00000  Uiso   1.00
H184   H     0.80851   0.20779   0.19536   0.00000  Uiso   1.00
H185   H     0.77227   0.12552   0.30459   0.00000  Uiso   1.00
H186   H     0.89440   0.20780   0.19539   0.00000  Uiso   1.00
H187   H     0.92049   0.20930   0.07087   0.00000  Uiso   1.00
H188   H     0.94414   0.16123   0.06281   0.00000  Uiso   1.00
H189   H     0.74238   0.20535   0.42925   0.00000  Uiso   1.00
H190   H     0.72089   0.15667   0.43606   0.00000  Uiso   1.00
H191   H     0.67117   0.24966   0.45911   0.00000  Uiso   1.00
H192   H     0.94868   0.25055   0.49914   0.00000  Uiso   1.00
H193   H     0.99719   0.25238   0.05156   0.00000  Uiso   1.00
H194   H     0.89033   0.13564   0.38983   0.00000  Uiso   1.00
H195   H     0.71960   0.25443   0.01542   0.00000  Uiso   1.00
H196   H     0.90538   0.30090   0.22020   0.00000  Uiso   1.00
H197   H     0.95260   0.30218   0.17267   0.00000  Uiso   1.00
H198   H     0.76151   0.03241   0.27939   0.00000  Uiso   1.00
H199   H     0.71448   0.03104   0.32704   0.00000  Uiso   1.00
H200   H     0.98898   0.21260   0.11354   0.00000  Uiso   1.00
H201   H     0.67426   0.21674   0.38514   0.00000  Uiso   1.00
H202   H     0.85044   0.16029   0.08138   0.00000  Uiso   1.00
H203   H     0.81557   0.15839   0.41788   0.00000  Uiso   1.00
H204   H     0.94843   0.03925   0.21396   0.00000  Uiso   1.00
H205   H     0.71828   0.29406   0.28595   0.00000  Uiso   1.00
H206   H     0.85815   0.12556   0.30465   0.00000  Uiso   1.00
N207   N     0.78403   0.16668   0.24999   0.00000  Uiso   1.00
N208   N     0.88264   0.16666   0.25001   0.00000  Uiso   1.00
N209   N     0.93788   0.18778   0.04650   0.00000  Uiso   1.00
N210   N     0.72599   0.18305   0.45304   0.00000  Uiso   1.00
N211   N     0.96722   0.24570   0.46559   0.00000  Uiso   1.00
N212   N     0.68971   0.23498   0.02781   0.00000  Uiso   1.00
N213   N     0.94162   0.29205   0.20571   0.00000  Uiso   1.00
N214   N     0.72528   0.04124   0.29402   0.00000  Uiso   1.00
O215   O     0.70625   0.10655   0.25000   0.00000  Uiso   1.00
O216   O     0.96042   0.22678   0.25000   0.00000  Uiso   1.00
O217   O     0.96039   0.10654   0.25000   0.00000  Uiso   1.00
O218   O     0.70628   0.22679   0.24999   0.00000  Uiso   1.00
O219   O     0.68519   0.16668   0.31491   0.00000  Uiso   1.00
O220   O     0.98148   0.16666   0.18508   0.00000  Uiso   1.00
O221   O     0.93933   0.16667   0.31492   0.00000  Uiso   1.00
O222   O     0.72733   0.16667   0.18508   0.00000  Uiso   1.00
C223   C     0.33326   0.42086   0.25063   0.00000  Uiso   1.00
C224   C     0.02959   0.35394   0.27111   0.00000  Uiso   1.00
C225   C     0.33324   0.62380   0.24905   0.00000  Uiso   1.00
C226   C     0.00014   0.37618   0.25088   0.00000  Uiso   1.00
C227   C     0.18128   0.47726   0.28028   0.00000  Uiso   1.00
C228   C     0.15205   0.52274   0.21972   0.00000  Uiso   1.00
C229   C     0.13197   0.47725   0.28025   0.00000  Uiso   1.00
C230   C     0.20137   0.52274   0.21974   0.00000  Uiso   1.00
C231   C     0.30526   0.50036   0.33554   0.00000  Uiso   1.00
C232   C     0.02806   0.50028   0.16446   0.00000  Uiso   1.00
C233   C     0.28804   0.50416   0.38369   0.00000  Uiso   1.00
C234   C     0.00009   0.57913   0.24935   0.00000  Uiso   1.00
C235   C     0.04504   0.50323   0.11621   0.00000  Uiso   1.00
C236   C     0.29120   0.53920   0.45033   0.00000  Uiso   1.00
C237   C     0.03878   0.53381   0.04825   0.00000  Uiso   1.00
C238   C     0.31082   0.53154   0.40481   0.00000  Uiso   1.00
C239   C     0.02048   0.52846   0.09439   0.00000  Uiso   1.00
C240   C     0.24320   0.48730   0.40731   0.00000  Uiso   1.00
C241   C     0.09018   0.48661   0.09264   0.00000  Uiso   1.00
C242   C     0.22359   0.49441   0.45305   0.00000  Uiso   1.00
C243   C     0.10884   0.49234   0.04653   0.00000  Uiso   1.00
C244   C     0.25232   0.51434   0.47568   0.00000  Uiso   1.00
C245   C     0.19335   0.49441   0.04549   0.00000  Uiso   1.00
C246   C     0.07867   0.50979   0.02366   0.00000  Uiso   1.00
C247   C     0.17406   0.48825   0.47613   0.00000  Uiso   1.00
C248   C     0.15865   0.48827   0.02329   0.00000  Uiso   1.00
C249   C     0.13901   0.49219   0.45381   0.00000  Uiso   1.00
C250   C     0.23870   0.51054   0.02234   0.00000  Uiso   1.00
C251   C     0.09241   0.50618   0.47702   0.00000  Uiso   1.00
C252   C     0.30403   0.35551   0.23005   0.00000  Uiso   1.00
C253   C     0.02936   0.64447   0.26986   0.00000  Uiso   1.00
C254   C     0.30384   0.64603   0.22874   0.00000  Uiso   1.00
Cu255  Cu    0.04689   0.50001   0.25000   0.00000  Uiso   1.00
Cu256  Cu    0.28645   0.49999   0.25000   0.00000  Uiso   1.00
H257   H     0.11072   0.46968   0.11046   0.00000  Uiso   1.00
H258   H     0.14185   0.54112   0.19536   0.00000  Uiso   1.00
H259   H     0.10561   0.45885   0.30459   0.00000  Uiso   1.00
H260   H     0.22774   0.54114   0.19539   0.00000  Uiso   1.00
H261   H     0.25382   0.54263   0.07087   0.00000  Uiso   1.00
H262   H     0.27747   0.49456   0.06281   0.00000  Uiso   1.00
H263   H     0.07572   0.53868   0.42925   0.00000  Uiso   1.00
H264   H     0.05423   0.49000   0.43606   0.00000  Uiso   1.00
H265   H     0.00450   0.58300   0.45911   0.00000  Uiso   1.00
H266   H     0.28202   0.58388   0.49914   0.00000  Uiso   1.00
H267   H     0.33052   0.58572   0.05156   0.00000  Uiso   1.00
H268   H     0.22366   0.46897   0.38983   0.00000  Uiso   1.00
H269   H     0.05293   0.58776   0.01542   0.00000  Uiso   1.00
H270   H     0.23871   0.63423   0.22020   0.00000  Uiso   1.00
H271   H     0.28593   0.63551   0.17267   0.00000  Uiso   1.00
H272   H     0.09484   0.36574   0.27939   0.00000  Uiso   1.00
H273   H     0.04781   0.36438   0.32704   0.00000  Uiso   1.00
H274   H     0.32231   0.54593   0.11354   0.00000  Uiso   1.00
H275   H     0.00760   0.55007   0.38514   0.00000  Uiso   1.00
H276   H     0.18378   0.49362   0.08138   0.00000  Uiso   1.00
H277   H     0.14890   0.49172   0.41788   0.00000  Uiso   1.00
H278   H     0.28176   0.37258   0.21396   0.00000  Uiso   1.00
H279   H     0.05162   0.62740   0.28595   0.00000  Uiso   1.00
H280   H     0.19149   0.45889   0.30465   0.00000  Uiso   1.00
N281   N     0.11736   0.50001   0.24999   0.00000  Uiso   1.00
N282   N     0.21597   0.49999   0.25001   0.00000  Uiso   1.00
N283   N     0.27122   0.52111   0.04650   0.00000  Uiso   1.00
N284   N     0.05932   0.51639   0.45304   0.00000  Uiso   1.00
N285   N     0.30056   0.57903   0.46559   0.00000  Uiso   1.00
N286   N     0.02305   0.56832   0.02781   0.00000  Uiso   1.00
N287   N     0.27496   0.62538   0.20571   0.00000  Uiso   1.00
N288   N     0.05862   0.37457   0.29402   0.00000  Uiso   1.00
O289   O     0.03958   0.43989   0.25000   0.00000  Uiso   1.00
O290   O     0.29375   0.56011   0.25000   0.00000  Uiso   1.00
O291   O     0.29372   0.43988   0.25000   0.00000  Uiso   1.00
O292   O     0.03961   0.56012   0.24999   0.00000  Uiso   1.00
O293   O     0.01852   0.50001   0.31491   0.00000  Uiso   1.00
O294   O     0.31481   0.49999   0.18508   0.00000  Uiso   1.00
O295   O     0.27267   0.50000   0.31492   0.00000  Uiso   1.00
O296   O     0.06067   0.50000   0.18508   0.00000  Uiso   1.00
C297   C     0.66659   0.42086   0.25063   0.00000  Uiso   1.00
C298   C     0.36293   0.35394   0.27111   0.00000  Uiso   1.00
C299   C     0.66657   0.62380   0.24905   0.00000  Uiso   1.00
C300   C     0.33347   0.37618   0.25088   0.00000  Uiso   1.00
C301   C     0.51461   0.47726   0.28028   0.00000  Uiso   1.00
C302   C     0.48539   0.52274   0.21972   0.00000  Uiso   1.00
C303   C     0.46530   0.47725   0.28025   0.00000  Uiso   1.00
C304   C     0.53470   0.52274   0.21974   0.00000  Uiso   1.00
C305   C     0.63859   0.50036   0.33554   0.00000  Uiso   1.00
C306   C     0.36139   0.50028   0.16446   0.00000  Uiso   1.00
C307   C     0.62138   0.50416   0.38369   0.00000  Uiso   1.00
C308   C     0.33342   0.57913   0.24935   0.00000  Uiso   1.00
C309   C     0.37837   0.50323   0.11621   0.00000  Uiso   1.00
C310   C     0.62453   0.53920   0.45033   0.00000  Uiso   1.00
C311   C     0.37211   0.53381   0.04825   0.00000  Uiso   1.00
C312   C     0.64415   0.53154   0.40481   0.00000  Uiso   1.00
C313   C     0.35381   0.52846   0.09439   0.00000  Uiso   1.00
C314   C     0.57653   0.48730   0.40731   0.00000  Uiso   1.00
C315   C     0.42351   0.48661   0.09264   0.00000  Uiso   1.00
C316   C     0.55692   0.49441   0.45305   0.00000  Uiso   1.00
C317   C     0.44218   0.49234   0.04653   0.00000  Uiso   1.00
C318   C     0.58565   0.51434   0.47568   0.00000  Uiso   1.00
C319   C     0.52668   0.49441   0.04549   0.00000  Uiso   1.00
C320   C     0.41200   0.50979   0.02366   0.00000  Uiso   1.00
C321   C     0.50739   0.48825   0.47613   0.00000  Uiso   1.00
C322   C     0.49199   0.48827   0.02329   0.00000  Uiso   1.00
C323   C     0.47234   0.49219   0.45381   0.00000  Uiso   1.00
C324   C     0.57203   0.51054   0.02234   0.00000  Uiso   1.00
C325   C     0.42574   0.50618   0.47702   0.00000  Uiso   1.00
C326   C     0.63736   0.35551   0.23005   0.00000  Uiso   1.00
C327   C     0.36269   0.64447   0.26986   0.00000  Uiso   1.00
C328   C     0.63718   0.64603   0.22874   0.00000  Uiso   1.00
Cu329  Cu    0.38022   0.50001   0.25000   0.00000  Uiso   1.00
Cu330  Cu    0.61978   0.49999   0.25000   0.00000  Uiso   1.00
H331   H     0.44405   0.46968   0.11046   0.00000  Uiso   1.00
H332   H     0.47518   0.54112   0.19536   0.00000  Uiso   1.00
H333   H     0.43894   0.45885   0.30459   0.00000  Uiso   1.00
H334   H     0.56107   0.54114   0.19539   0.00000  Uiso   1.00
H335   H     0.58716   0.54263   0.07087   0.00000  Uiso   1.00
H336   H     0.61081   0.49456   0.06281   0.00000  Uiso   1.00
H337   H     0.40905   0.53868   0.42925   0.00000  Uiso   1.00
H338   H     0.38756   0.49000   0.43606   0.00000  Uiso   1.00
H339   H     0.33783   0.58300   0.45911   0.00000  Uiso   1.00
H340   H     0.61535   0.58388   0.49914   0.00000  Uiso   1.00
H341   H     0.66385   0.58572   0.05156   0.00000  Uiso   1.00
H342   H     0.55699   0.46897   0.38983   0.00000  Uiso   1.00
H343   H     0.38627   0.58776   0.01542   0.00000  Uiso   1.00
H344   H     0.57204   0.63423   0.22020   0.00000  Uiso   1.00
H345   H     0.61927   0.63551   0.17267   0.00000  Uiso   1.00
H346   H     0.42818   0.36574   0.27939   0.00000  Uiso   1.00
H347   H     0.38114   0.36438   0.32704   0.00000  Uiso   1.00
H348   H     0.65565   0.54593   0.11354   0.00000  Uiso   1.00
H349   H     0.34093   0.55007   0.38514   0.00000  Uiso   1.00
H350   H     0.51711   0.49362   0.08138   0.00000  Uiso   1.00
H351   H     0.48224   0.49172   0.41788   0.00000  Uiso   1.00
H352   H     0.61510   0.37258   0.21396   0.00000  Uiso   1.00
H353   H     0.38495   0.62740   0.28595   0.00000  Uiso   1.00
H354   H     0.52482   0.45889   0.30465   0.00000  Uiso   1.00
N355   N     0.45069   0.50001   0.24999   0.00000  Uiso   1.00
N356   N     0.54931   0.49999   0.25001   0.00000  Uiso   1.00
N357   N     0.60455   0.52111   0.04650   0.00000  Uiso   1.00
N358   N     0.39266   0.51639   0.45304   0.00000  Uiso   1.00
N359   N     0.63389   0.57903   0.46559   0.00000  Uiso   1.00
N360   N     0.35638   0.56832   0.02781   0.00000  Uiso   1.00
N361   N     0.60829   0.62538   0.20571   0.00000  Uiso   1.00
N362   N     0.39195   0.37457   0.29402   0.00000  Uiso   1.00
O363   O     0.37291   0.43989   0.25000   0.00000  Uiso   1.00
O364   O     0.62709   0.56011   0.25000   0.00000  Uiso   1.00
O365   O     0.62706   0.43988   0.25000   0.00000  Uiso   1.00
O366   O     0.37294   0.56012   0.24999   0.00000  Uiso   1.00
O367   O     0.35186   0.50001   0.31491   0.00000  Uiso   1.00
O368   O     0.64814   0.49999   0.18508   0.00000  Uiso   1.00
O369   O     0.60600   0.50000   0.31492   0.00000  Uiso   1.00
O370   O     0.39400   0.50000   0.18508   0.00000  Uiso   1.00
C371   C     0.99992   0.42086   0.25063   0.00000  Uiso   1.00
C372   C     0.69626   0.35394   0.27111   0.00000  Uiso   1.00
C373   C     0.99990   0.62380   0.24905   0.00000  Uiso   1.00
C374   C     0.66681   0.37618   0.25088   0.00000  Uiso   1.00
C375   C     0.84795   0.47726   0.28028   0.00000  Uiso   1.00
C376   C     0.81872   0.52274   0.21972   0.00000  Uiso   1.00
C377   C     0.79863   0.47725   0.28025   0.00000  Uiso   1.00
C378   C     0.86804   0.52274   0.21974   0.00000  Uiso   1.00
C379   C     0.97192   0.50036   0.33554   0.00000  Uiso   1.00
C380   C     0.69472   0.50028   0.16446   0.00000  Uiso   1.00
C381   C     0.95471   0.50416   0.38369   0.00000  Uiso   1.00
C382   C     0.66675   0.57913   0.24935   0.00000  Uiso   1.00
C383   C     0.71170   0.50323   0.11621   0.00000  Uiso   1.00
C384   C     0.95787   0.53920   0.45033   0.00000  Uiso   1.00
C385   C     0.70545   0.53381   0.04825   0.00000  Uiso   1.00
C386   C     0.97748   0.53154   0.40481   0.00000  Uiso   1.00
C387   C     0.68715   0.52846   0.09439   0.00000  Uiso   1.00
C388   C     0.90986   0.48730   0.40731   0.00000  Uiso   1.00
C389   C     0.75684   0.48661   0.09264   0.00000  Uiso   1.00
C390   C     0.89026   0.49441   0.45305   0.00000  Uiso   1.00
C391   C     0.77551   0.49234   0.04653   0.00000  Uiso   1.00
C392   C     0.91898   0.51434   0.47568   0.00000  Uiso   1.00
C393   C     0.86001   0.49441   0.04549   0.00000  Uiso   1.00
C394   C     0.74534   0.50979   0.02366   0.00000  Uiso   1.00
C395   C     0.84073   0.48825   0.47613   0.00000  Uiso   1.00
C396   C     0.82532   0.48827   0.02329   0.00000  Uiso   1.00
C397   C     0.80568   0.49219   0.45381   0.00000  Uiso   1.00
C398   C     0.90537   0.51054   0.02234   0.00000  Uiso   1.00
C399   C     0.75908   0.50618   0.47702   0.00000  Uiso   1.00
C400   C     0.97070   0.35551   0.23005   0.00000  Uiso   1.00
C401   C     0.69603   0.64447   0.26986   0.00000  Uiso   1.00
C402   C     0.97051   0.64603   0.22874   0.00000  Uiso   1.00
Cu403  Cu    0.71355   0.50001   0.25000   0.00000  Uiso   1.00
Cu404  Cu    0.95311   0.49999   0.25000   0.00000  Uiso   1.00
H405   H     0.77738   0.46968   0.11046   0.00000  Uiso   1.00
H406   H     0.80851   0.54112   0.19536   0.00000  Uiso   1.00
H407   H     0.77227   0.45885   0.30459   0.00000  Uiso   1.00
H408   H     0.89440   0.54114   0.19539   0.00000  Uiso   1.00
H409   H     0.92049   0.54263   0.07087   0.00000  Uiso   1.00
H410   H     0.94414   0.49456   0.06281   0.00000  Uiso   1.00
H411   H     0.74238   0.53868   0.42925   0.00000  Uiso   1.00
H412   H     0.72089   0.49000   0.43606   0.00000  Uiso   1.00
H413   H     0.67117   0.58300   0.45911   0.00000  Uiso   1.00
H414   H     0.94868   0.58388   0.49914   0.00000  Uiso   1.00
H415   H     0.99719   0.58572   0.05156   0.00000  Uiso   1.00
H416   H     0.89033   0.46897   0.38983   0.00000  Uiso   1.00
H417   H     0.71960   0.58776   0.01542   0.00000  Uiso   1.00
H418   H     0.90538   0.63423   0.22020   0.00000  Uiso   1.00
H419   H     0.95260   0.63551   0.17267   0.00000  Uiso   1.00
H420   H     0.76151   0.36574   0.27939   0.00000  Uiso   1.00
H421   H     0.71448   0.36438   0.32704   0.00000  Uiso   1.00
H422   H     0.98898   0.54593   0.11354   0.00000  Uiso   1.00
H423   H     0.67426   0.55007   0.38514   0.00000  Uiso   1.00
H424   H     0.85044   0.49362   0.08138   0.00000  Uiso   1.00
H425   H     0.81557   0.49172   0.41788   0.00000  Uiso   1.00
H426   H     0.94843   0.37258   0.21396   0.00000  Uiso   1.00
H427   H     0.71828   0.62740   0.28595   0.00000  Uiso   1.00
H428   H     0.85815   0.45889   0.30465   0.00000  Uiso   1.00
N429   N     0.78403   0.50001   0.24999   0.00000  Uiso   1.00
N430   N     0.88264   0.49999   0.25001   0.00000  Uiso   1.00
N431   N     0.93788   0.52111   0.04650   0.00000  Uiso   1.00
N432   N     0.72599   0.51639   0.45304   0.00000  Uiso   1.00
N433   N     0.96722   0.57903   0.46559   0.00000  Uiso   1.00
N434   N     0.68971   0.56832   0.02781   0.00000  Uiso   1.00
N435   N     0.94162   0.62538   0.20571   0.00000  Uiso   1.00
N436   N     0.72528   0.37457   0.29402   0.00000  Uiso   1.00
O437   O     0.70625   0.43989   0.25000   0.00000  Uiso   1.00
O438   O     0.96042   0.56011   0.25000   0.00000  Uiso   1.00
O439   O     0.96039   0.43988   0.25000   0.00000  Uiso   1.00
O440   O     0.70628   0.56012   0.24999   0.00000  Uiso   1.00
O441   O     0.68519   0.50001   0.31491   0.00000  Uiso   1.00
O442   O     0.98148   0.49999   0.18508   0.00000  Uiso   1.00
O443   O     0.93933   0.50000   0.31492   0.00000  Uiso   1.00
O444   O     0.72733   0.50000   0.18508   0.00000  Uiso   1.00
C445   C     0.33326   0.75420   0.25063   0.00000  Uiso   1.00
C446   C     0.02959   0.68727   0.27111   0.00000  Uiso   1.00
C447   C     0.33324   0.95713   0.24905   0.00000  Uiso   1.00
C448   C     0.00014   0.70952   0.25088   0.00000  Uiso   1.00
C449   C     0.18128   0.81059   0.28028   0.00000  Uiso   1.00
C450   C     0.15205   0.85608   0.21972   0.00000  Uiso   1.00
C451   C     0.13197   0.81059   0.28025   0.00000  Uiso   1.00
C452   C     0.20137   0.85608   0.21974   0.00000  Uiso   1.00
C453   C     0.30526   0.83369   0.33554   0.00000  Uiso   1.00
C454   C     0.02806   0.83361   0.16446   0.00000  Uiso   1.00
C455   C     0.28804   0.83749   0.38369   0.00000  Uiso   1.00
C456   C     0.00009   0.91246   0.24935   0.00000  Uiso   1.00
C457   C     0.04504   0.83657   0.11621   0.00000  Uiso   1.00
C458   C     0.29120   0.87253   0.45033   0.00000  Uiso   1.00
C459   C     0.03878   0.86714   0.04825   0.00000  Uiso   1.00
C460   C     0.31082   0.86487   0.40481   0.00000  Uiso   1.00
C461   C     0.02048   0.86179   0.09439   0.00000  Uiso   1.00
C462   C     0.24320   0.82063   0.40731   0.00000  Uiso   1.00
C463   C     0.09018   0.81994   0.09264   0.00000  Uiso   1.00
C464   C     0.22359   0.82774   0.45305   0.00000  Uiso   1.00
C465   C     0.10884   0.82568   0.04653   0.00000  Uiso   1.00
C466   C     0.25232   0.84767   0.47568   0.00000  Uiso   1.00
C467   C     0.19335   0.82774   0.04549   0.00000  Uiso   1.00
C468   C     0.07867   0.84313   0.02366   0.00000  Uiso   1.00
C469   C     0.17406   0.82158   0.47613   0.00000  Uiso   1.00
C470   C     0.15865   0.82160   0.02329   0.00000  Uiso   1.00
C471   C     0.13901   0.82553   0.45381   0.00000  Uiso   1.00
C472   C     0.23870   0.84388   0.02234   0.00000  Uiso   1.00
C473   C     0.09241   0.83951   0.47702   0.00000  Uiso   1.00
C474   C     0.30403   0.68884   0.23005   0.00000  Uiso   1.00
C475   C     0.02936   0.97780   0.26986   0.00000  Uiso   1.00
C476   C     0.30384   0.97937   0.22874   0.00000  Uiso   1.00
Cu477  Cu    0.04689   0.83334   0.25000   0.00000  Uiso   1.00
Cu478  Cu    0.28645   0.83333   0.25000   0.00000  Uiso   1.00
H479   H     0.11072   0.80302   0.11046   0.00000  Uiso   1.00
H480   H     0.14185   0.87445   0.19536   0.00000  Uiso   1.00
H481   H     0.10561   0.79219   0.30459   0.00000  Uiso   1.00
H482   H     0.22774   0.87447   0.19539   0.00000  Uiso   1.00
H483   H     0.25382   0.87597   0.07087   0.00000  Uiso   1.00
H484   H     0.27747   0.82790   0.06281   0.00000  Uiso   1.00
H485   H     0.07572   0.87201   0.42925   0.00000  Uiso   1.00
H486   H     0.05423   0.82334   0.43606   0.00000  Uiso   1.00
H487   H     0.00450   0.91633   0.45911   0.00000  Uiso   1.00
H488   H     0.28202   0.91722   0.49914   0.00000  Uiso   1.00
H489   H     0.33052   0.91905   0.05156   0.00000  Uiso   1.00
H490   H     0.22366   0.80230   0.38983   0.00000  Uiso   1.00
H491   H     0.05293   0.92110   0.01542   0.00000  Uiso   1.00
H492   H     0.23871   0.96757   0.22020   0.00000  Uiso   1.00
H493   H     0.28593   0.96885   0.17267   0.00000  Uiso   1.00
H494   H     0.09484   0.69907   0.27939   0.00000  Uiso   1.00
H495   H     0.04781   0.69771   0.32704   0.00000  Uiso   1.00
H496   H     0.32231   0.87927   0.11354   0.00000  Uiso   1.00
H497   H     0.00760   0.88340   0.38514   0.00000  Uiso   1.00
H498   H     0.18378   0.82696   0.08138   0.00000  Uiso   1.00
H499   H     0.14890   0.82505   0.41788   0.00000  Uiso   1.00
H500   H     0.28176   0.70591   0.21396   0.00000  Uiso   1.00
H501   H     0.05162   0.96073   0.28595   0.00000  Uiso   1.00
H502   H     0.19149   0.79222   0.30465   0.00000  Uiso   1.00
N503   N     0.11736   0.83334   0.24999   0.00000  Uiso   1.00
N504   N     0.21597   0.83332   0.25001   0.00000  Uiso   1.00
N505   N     0.27122   0.85445   0.04650   0.00000  Uiso   1.00
N506   N     0.05932   0.84972   0.45304   0.00000  Uiso   1.00
N507   N     0.30056   0.91237   0.46559   0.00000  Uiso   1.00
N508   N     0.02305   0.90165   0.02781   0.00000  Uiso   1.00
N509   N     0.27496   0.95872   0.20571   0.00000  Uiso   1.00
N510   N     0.05862   0.70790   0.29402   0.00000  Uiso   1.00
O511   O     0.03958   0.77322   0.25000   0.00000  Uiso   1.00
O512   O     0.29375   0.89345   0.25000   0.00000  Uiso   1.00
O513   O     0.29372   0.77321   0.25000   0.00000  Uiso   1.00
O514   O     0.03961   0.89346   0.24999   0.00000  Uiso   1.00
O515   O     0.01852   0.83334   0.31491   0.00000  Uiso   1.00
O516   O     0.31481   0.83332   0.18508   0.00000  Uiso   1.00
O517   O     0.27267   0.83333   0.31492   0.00000  Uiso   1.00
O518   O     0.06067   0.83333   0.18508   0.00000  Uiso   1.00
C519   C     0.66659   0.75420   0.25063   0.00000  Uiso   1.00
C520   C     0.36293   0.68727   0.27111   0.00000  Uiso   1.00
C521   C     0.66657   0.95713   0.24905   0.00000  Uiso   1.00
C522   C     0.33347   0.70952   0.25088   0.00000  Uiso   1.00
C523   C     0.51461   0.81059   0.28028   0.00000  Uiso   1.00
C524   C     0.48539   0.85608   0.21972   0.00000  Uiso   1.00
C525   C     0.46530   0.81059   0.28025   0.00000  Uiso   1.00
C526   C     0.53470   0.85608   0.21974   0.00000  Uiso   1.00
C527   C     0.63859   0.83369   0.33554   0.00000  Uiso   1.00
C528   C     0.36139   0.83361   0.16446   0.00000  Uiso   1.00
C529   C     0.62138   0.83749   0.38369   0.00000  Uiso   1.00
C530   C     0.33342   0.91246   0.24935   0.00000  Uiso   1.00
C531   C     0.37837   0.83657   0.11621   0.00000  Uiso   1.00
C532   C     0.62453   0.87253   0.45033   0.00000  Uiso   1.00
C533   C     0.37211   0.86714   0.04825   0.00000  Uiso   1.00
C534   C     0.64415   0.86487   0.40481   0.00000  Uiso   1.00
C535   C     0.35381   0.86179   0.09439   0.00000  Uiso   1.00
C536   C     0.57653   0.82063   0.40731   0.00000  Uiso   1.00
C537   C     0.42351   0.81994   0.09264   0.00000  Uiso   1.00
C538   C     0.55692   0.82774   0.45305   0.00000  Uiso   1.00
C539   C     0.44218   0.82568   0.04653   0.00000  Uiso   1.00
C540   C     0.58565   0.84767   0.47568   0.00000  Uiso   1.00
C541   C     0.52668   0.82774   0.04549   0.00000  Uiso   1.00
C542   C     0.41200   0.84313   0.02366   0.00000  Uiso   1.00
C543   C     0.50739   0.82158   0.47613   0.00000  Uiso   1.00
C544   C     0.49199   0.82160   0.02329   0.00000  Uiso   1.00
C545   C     0.47234   0.82553   0.45381   0.00000  Uiso   1.00
C546   C     0.57203   0.84388   0.02234   0.00000  Uiso   1.00
C547   C     0.42574   0.83951   0.47702   0.00000  Uiso   1.00
C548   C     0.63736   0.68884   0.23005   0.00000  Uiso   1.00
C549   C     0.36269   0.97780   0.26986   0.00000  Uiso   1.00
C550   C     0.63718   0.97937   0.22874   0.00000  Uiso   1.00
Cu551  Cu    0.38022   0.83334   0.25000   0.00000  Uiso   1.00
Cu552  Cu    0.61978   0.83333   0.25000   0.00000  Uiso   1.00
H553   H     0.44405   0.80302   0.11046   0.00000  Uiso   1.00
H554   H     0.47518   0.87445   0.19536   0.00000  Uiso   1.00
H555   H     0.43894   0.79219   0.30459   0.00000  Uiso   1.00
H556   H     0.56107   0.87447   0.19539   0.00000  Uiso   1.00
H557   H     0.58716   0.87597   0.07087   0.00000  Uiso   1.00
H558   H     0.61081   0.82790   0.06281   0.00000  Uiso   1.00
H559   H     0.40905   0.87201   0.42925   0.00000  Uiso   1.00
H560   H     0.38756   0.82334   0.43606   0.00000  Uiso   1.00
H561   H     0.33783   0.91633   0.45911   0.00000  Uiso   1.00
H562   H     0.61535   0.91722   0.49914   0.00000  Uiso   1.00
H563   H     0.66385   0.91905   0.05156   0.00000  Uiso   1.00
H564   H     0.55699   0.80230   0.38983   0.00000  Uiso   1.00
H565   H     0.38627   0.92110   0.01542   0.00000  Uiso   1.00
H566   H     0.57204   0.96757   0.22020   0.00000  Uiso   1.00
H567   H     0.61927   0.96885   0.17267   0.00000  Uiso   1.00
H568   H     0.42818   0.69907   0.27939   0.00000  Uiso   1.00
H569   H     0.38114   0.69771   0.32704   0.00000  Uiso   1.00
H570   H     0.65565   0.87927   0.11354   0.00000  Uiso   1.00
H571   H     0.34093   0.88340   0.38514   0.00000  Uiso   1.00
H572   H     0.51711   0.82696   0.08138   0.00000  Uiso   1.00
H573   H     0.48224   0.82505   0.41788   0.00000  Uiso   1.00
H574   H     0.61510   0.70591   0.21396   0.00000  Uiso   1.00
H575   H     0.38495   0.96073   0.28595   0.00000  Uiso   1.00
H576   H     0.52482   0.79222   0.30465   0.00000  Uiso   1.00
N577   N     0.45069   0.83334   0.24999   0.00000  Uiso   1.00
N578   N     0.54931   0.83332   0.25001   0.00000  Uiso   1.00
N579   N     0.60455   0.85445   0.04650   0.00000  Uiso   1.00
N580   N     0.39266   0.84972   0.45304   0.00000  Uiso   1.00
N581   N     0.63389   0.91237   0.46559   0.00000  Uiso   1.00
N582   N     0.35638   0.90165   0.02781   0.00000  Uiso   1.00
N583   N     0.60829   0.95872   0.20571   0.00000  Uiso   1.00
N584   N     0.39195   0.70790   0.29402   0.00000  Uiso   1.00
O585   O     0.37291   0.77322   0.25000   0.00000  Uiso   1.00
O586   O     0.62709   0.89345   0.25000   0.00000  Uiso   1.00
O587   O     0.62706   0.77321   0.25000   0.00000  Uiso   1.00
O588   O     0.37294   0.89346   0.24999   0.00000  Uiso   1.00
O589   O     0.35186   0.83334   0.31491   0.00000  Uiso   1.00
O590   O     0.64814   0.83332   0.18508   0.00000  Uiso   1.00
O591   O     0.60600   0.83333   0.31492   0.00000  Uiso   1.00
O592   O     0.39400   0.83333   0.18508   0.00000  Uiso   1.00
C593   C     0.99992   0.75420   0.25063   0.00000  Uiso   1.00
C594   C     0.69626   0.68727   0.27111   0.00000  Uiso   1.00
C595   C     0.99990   0.95713   0.24905   0.00000  Uiso   1.00
C596   C     0.66681   0.70952   0.25088   0.00000  Uiso   1.00
C597   C     0.84795   0.81059   0.28028   0.00000  Uiso   1.00
C598   C     0.81872   0.85608   0.21972   0.00000  Uiso   1.00
C599   C     0.79863   0.81059   0.28025   0.00000  Uiso   1.00
C600   C     0.86804   0.85608   0.21974   0.00000  Uiso   1.00
C601   C     0.97192   0.83369   0.33554   0.00000  Uiso   1.00
C602   C     0.69472   0.83361   0.16446   0.00000  Uiso   1.00
C603   C     0.95471   0.83749   0.38369   0.00000  Uiso   1.00
C604   C     0.66675   0.91246   0.24935   0.00000  Uiso   1.00
C605   C     0.71170   0.83657   0.11621   0.00000  Uiso   1.00
C606   C     0.95787   0.87253   0.45033   0.00000  Uiso   1.00
C607   C     0.70545   0.86714   0.04825   0.00000  Uiso   1.00
C608   C     0.97748   0.86487   0.40481   0.00000  Uiso   1.00
C609   C     0.68715   0.86179   0.09439   0.00000  Uiso   1.00
C610   C     0.90986   0.82063   0.40731   0.00000  Uiso   1.00
C611   C     0.75684   0.81994   0.09264   0.00000  Uiso   1.00
C612   C     0.89026   0.82774   0.45305   0.00000  Uiso   1.00
C613   C     0.77551   0.82568   0.04653   0.00000  Uiso   1.00
C614   C     0.91898   0.84767   0.47568   0.00000  Uiso   1.00
C615   C     0.86001   0.82774   0.04549   0.00000  Uiso   1.00
C616   C     0.74534   0.84313   0.02366   0.00000  Uiso   1.00
C617   C     0.84073   0.82158   0.47613   0.00000  Uiso   1.00
C618   C     0.82532   0.82160   0.02329   0.00000  Uiso   1.00
C619   C     0.80568   0.82553   0.45381   0.00000  Uiso   1.00
C620   C     0.90537   0.84388   0.02234   0.00000  Uiso   1.00
C621   C     0.75908   0.83951   0.47702   0.00000  Uiso   1.00
C622   C     0.97070   0.68884   0.23005   0.00000  Uiso   1.00
C623   C     0.69603   0.97780   0.26986   0.00000  Uiso   1.00
C624   C     0.97051   0.97937   0.22874   0.00000  Uiso   1.00
Cu625  Cu    0.71355   0.83334   0.25000   0.00000  Uiso   1.00
Cu626  Cu    0.95311   0.83333   0.25000   0.00000  Uiso   1.00
H627   H     0.77738   0.80302   0.11046   0.00000  Uiso   1.00
H628   H     0.80851   0.87445   0.19536   0.00000  Uiso   1.00
H629   H     0.77227   0.79219   0.30459   0.00000  Uiso   1.00
H630   H     0.89440   0.87447   0.19539   0.00000  Uiso   1.00
H631   H     0.92049   0.87597   0.07087   0.00000  Uiso   1.00
H632   H     0.94414   0.82790   0.06281   0.00000  Uiso   1.00
H633   H     0.74238   0.87201   0.42925   0.00000  Uiso   1.00
H634   H     0.72089   0.82334   0.43606   0.00000  Uiso   1.00
H635   H     0.67117   0.91633   0.45911   0.00000  Uiso   1.00
H636   H     0.94868   0.91722   0.49914   0.00000  Uiso   1.00
H637   H     0.99719   0.91905   0.05156   0.00000  Uiso   1.00
H638   H     0.89033   0.80230   0.38983   0.00000  Uiso   1.00
H639   H     0.71960   0.92110   0.01542   0.00000  Uiso   1.00
H640   H     0.90538   0.96757   0.22020   0.00000  Uiso   1.00
H641   H     0.95260   0.96885   0.17267   0.00000  Uiso   1.00
H642   H     0.76151   0.69907   0.27939   0.00000  Uiso   1.00
H643   H     0.71448   0.69771   0.32704   0.00000  Uiso   1.00
H644   H     0.98898   0.87927   0.11354   0.00000  Uiso   1.00
H645   H     0.67426   0.88340   0.38514   0.00000  Uiso   1.00
H646   H     0.85044   0.82696   0.08138   0.00000  Uiso   1.00
H647   H     0.81557   0.82505   0.41788   0.00000  Uiso   1.00
H648   H     0.94843   0.70591   0.21396   0.00000  Uiso   1.00
H649   H     0.71828   0.96073   0.28595   0.00000  Uiso   1.00
H650   H     0.85815   0.79222   0.30465   0.00000  Uiso   1.00
N651   N     0.78403   0.83334   0.24999   0.00000  Uiso   1.00
N652   N     0.88264   0.83332   0.25001   0.00000  Uiso   1.00
N653   N     0.93788   0.85445   0.04650   0.00000  Uiso   1.00
N654   N     0.72599   0.84972   0.45304   0.00000  Uiso   1.00
N655   N     0.96722   0.91237   0.46559   0.00000  Uiso   1.00
N656   N     0.68971   0.90165   0.02781   0.00000  Uiso   1.00
N657   N     0.94162   0.95872   0.20571   0.00000  Uiso   1.00
N658   N     0.72528   0.70790   0.29402   0.00000  Uiso   1.00
O659   O     0.70625   0.77322   0.25000   0.00000  Uiso   1.00
O660   O     0.96042   0.89345   0.25000   0.00000  Uiso   1.00
O661   O     0.96039   0.77321   0.25000   0.00000  Uiso   1.00
O662   O     0.70628   0.89346   0.24999   0.00000  Uiso   1.00
O663   O     0.68519   0.83334   0.31491   0.00000  Uiso   1.00
O664   O     0.98148   0.83332   0.18508   0.00000  Uiso   1.00
O665   O     0.93933   0.83333   0.31492   0.00000  Uiso   1.00
O666   O     0.72733   0.83333   0.18508   0.00000  Uiso   1.00
C667   C     0.33326   0.08753   0.75063   0.00000  Uiso   1.00
C668   C     0.02959   0.02061   0.77111   0.00000  Uiso   1.00
C669   C     0.33324   0.29047   0.74905   0.00000  Uiso   1.00
C670   C     0.00014   0.04285   0.75088   0.00000  Uiso   1.00
C671   C     0.18128   0.14393   0.78028   0.00000  Uiso   1.00
C672   C     0.15205   0.18941   0.71972   0.00000  Uiso   1.00
C673   C     0.13197   0.14392   0.78025   0.00000  Uiso   1.00
C674   C     0.20137   0.18941   0.71974   0.00000  Uiso   1.00
C675   C     0.30526   0.16702   0.83554   0.00000  Uiso   1.00
C676   C     0.02806   0.16695   0.66446   0.00000  Uiso   1.00
C677   C     0.28804   0.17083   0.88369   0.00000  Uiso   1.00
C678   C     0.00009   0.24580   0.74935   0.00000  Uiso   1.00
C679   C     0.04504   0.16990   0.61621   0.00000  Uiso   1.00
C680   C     0.29120   0.20587   0.95033   0.00000  Uiso   1.00
C681   C     0.03878   0.20047   0.54825   0.00000  Uiso   1.00
C682   C     0.31082   0.19821   0.90481   0.00000  Uiso   1.00
C683   C     0.02048   0.19512   0.59439   0.00000  Uiso   1.00
C684   C     0.24320   0.15396   0.90731   0.00000  Uiso   1.00
C685   C     0.09018   0.15328   0.59264   0.00000  Uiso   1.00
C686   C     0.22359   0.16108   0.95305   0.00000  Uiso   1.00
C687   C     0.10884   0.15901   0.54653   0.00000  Uiso   1.00
C688   C     0.25232   0.18101   0.97568   0.00000  Uiso   1.00
C689   C     0.19335   0.16108   0.54549   0.00000  Uiso   1.00
C690   C     0.07867   0.17646   0.52366   0.00000  Uiso   1.00
C691   C     0.17406   0.15492   0.97613   0.00000  Uiso   1.00
C692   C     0.15865   0.15494   0.52329   0.00000  Uiso   1.00
C693   C     0.13901   0.15886   0.95381   0.00000  Uiso   1.00
C694   C     0.23870   0.17721   0.52234   0.00000  Uiso   1.00
C695   C     0.09241   0.17285   0.97702   0.00000  Uiso   1.00
C696   C     0.30403   0.02217   0.73005   0.00000  Uiso   1.00
C697   C     0.02936   0.31114   0.76986   0.00000  Uiso   1.00
C698   C     0.30384   0.31270   0.72874   0.00000  Uiso   1.00
Cu699  Cu    0.04689   0.16667   0.75000   0.00000  Uiso   1.00
Cu700  Cu    0.28645   0.16666   0.75000   0.00000  Uiso   1.00
H701   H     0.11072   0.13635   0.61046   0.00000  Uiso   1.00
H702   H     0.14185   0.20779   0.69536   0.00000  Uiso   1.00
H703   H     0.10561   0.12552   0.80459   0.00000  Uiso   1.00
H704   H     0.22774   0.20780   0.69539   0.00000  Uiso   1.00
H705   H     0.25382   0.20930   0.57087   0.00000  Uiso   1.00
H706   H     0.27747   0.16123   0.56281   0.00000  Uiso   1.00
H707   H     0.07572   0.20535   0.92925   0.00000  Uiso   1.00
H708   H     0.05423   0.15667   0.93606   0.00000  Uiso   1.00
H709   H     0.00450   0.24966   0.95911   0.00000  Uiso   1.00
H710   H     0.28202   0.25055   0.99914   0.00000  Uiso   1.00
H711   H     0.33052   0.25238   0.55156   0.00000  Uiso   1.00
H712   H     0.22366   0.13564   0.88983   0.00000  Uiso   1.00
H713   H     0.05293   0.25443   0.51542   0.00000  Uiso   1.00
H714   H     0.23871   0.30090   0.72020   0.00000  Uiso   1.00
H715   H     0.28593   0.30218   0.67267   0.00000  Uiso   1.00
H716   H     0.09484   0.03241   0.77939   0.00000  Uiso   1.00
H717   H     0.04781   0.03104   0.82704   0.00000  Uiso   1.00
H718   H     0.32231   0.21260   0.61354   0.00000  Uiso   1.00
H719   H     0.00760   0.21674   0.88514   0.00000  Uiso   1.00
H720   H     0.18378   0.16029   0.58138   0.00000  Uiso   1.00
H721   H     0.14890   0.15839   0.91788   0.00000  Uiso   1.00
H722   H     0.28176   0.03925   0.71396   0.00000  Uiso   1.00
H723   H     0.05162   0.29406   0.78595   0.00000  Uiso   1.00
H724   H     0.19149   0.12556   0.80465   0.00000  Uiso   1.00
N725   N     0.11736   0.16668   0.74999   0.00000  Uiso   1.00
N726   N     0.21597   0.16666   0.75001   0.00000  Uiso   1.00
N727   N     0.27122   0.18778   0.54650   0.00000  Uiso   1.00
N728   N     0.05932   0.18305   0.95304   0.00000  Uiso   1.00
N729   N     0.30056   0.24570   0.96559   0.00000  Uiso   1.00
N730   N     0.02305   0.23498   0.52781   0.00000  Uiso   1.00
N731   N     0.27496   0.29205   0.70571   0.00000  Uiso   1.00
N732   N     0.05862   0.04124   0.79402   0.00000  Uiso   1.00
O733   O     0.03958   0.10655   0.75000   0.00000  Uiso   1.00
O734   O     0.29375   0.22678   0.75000   0.00000  Uiso   1.00
O735   O     0.29372   0.10654   0.75000   0.00000  Uiso   1.00
O736   O     0.03961   0.22679   0.74999   0.00000  Uiso   1.00
O737   O     0.01852   0.16668   0.81491   0.00000  Uiso   1.00
O738   O     0.31481   0.16666   0.68508   0.00000  Uiso   1.00
O739   O     0.27267   0.16667   0.81492   0.00000  Uiso   1.00
O740   O     0.06067   0.16667   0.68508   0.00000  Uiso   1.00
C741   C     0.66659   0.08753   0.75063   0.00000  Uiso   1.00
C742   C     0.36293   0.02061   0.77111   0.00000  Uiso   1.00
C743   C     0.66657   0.29047   0.74905   0.00000  Uiso   1.00
C744   C     0.33347   0.04285   0.75088   0.00000  Uiso   1.00
C745   C     0.51461   0.14393   0.78028   0.00000  Uiso   1.00
C746   C     0.48539   0.18941   0.71972   0.00000  Uiso   1.00
C747   C     0.46530   0.14392   0.78025   0.00000  Uiso   1.00
C748   C     0.53470   0.18941   0.71974   0.00000  Uiso   1.00
C749   C     0.63859   0.16702   0.83554   0.00000  Uiso   1.00
C750   C     0.36139   0.16695   0.66446   0.00000  Uiso   1.00
C751   C     0.62138   0.17083   0.88369   0.00000  Uiso   1.00
C752   C     0.33342   0.24580   0.74935   0.00000  Uiso   1.00
C753   C     0.37837   0.16990   0.61621   0.00000  Uiso   1.00
C754   C     0.62453   0.20587   0.95033   0.00000  Uiso   1.00
C755   C     0.37211   0.20047   0.54825   0.00000  Uiso   1.00
C756   C     0.64415   0.19821   0.90481   0.00000  Uiso   1.00
C757   C     0.35381   0.19512   0.59439   0.00000  Uiso   1.00
C758   C     0.57653   0.15396   0.90731   0.00000  Uiso   1.00
C759   C     0.42351   0.15328   0.59264   0.00000  Uiso   1.00
C760   C     0.55692   0.16108   0.95305   0.00000  Uiso   1.00
C761   C     0.44218   0.15901   0.54653   0.00000  Uiso   1.00
C762   C     0.58565   0.18101   0.97568   0.00000  Uiso   1.00
C763   C     0.52668   0.16108   0.54549   0.00000  Uiso   1.00
C764   C     0.41200   0.17646   0.52366   0.00000  Uiso   1.00
C765   C     0.50739   0.15492   0.97613   0.00000  Uiso   1.00
C766   C     0.49199   0.15494   0.52329   0.00000  Uiso   1.00
C767   C     0.47234   0.15886   0.95381   0.00000  Uiso   1.00
C768   C     0.57203   0.17721   0.52234   0.00000  Uiso   1.00
C769   C     0.42574   0.17285   0.97702   0.00000  Uiso   1.00
C770   C     0.63736   0.02217   0.73005   0.00000  Uiso   1.00
C771   C     0.36269   0.31114   0.76986   0.00000  Uiso   1.00
C772   C     0.63718   0.31270   0.72874   0.00000  Uiso   1.00
Cu773  Cu    0.38022   0.16667   0.75000   0.00000  Uiso   1.00
Cu774  Cu    0.61978   0.16666   0.75000   0.00000  Uiso   1.00
H775   H     0.44405   0.13635   0.61046   0.00000  Uiso   1.00
H776   H     0.47518   0.20779   0.69536   0.00000  Uiso   1.00
H777   H     0.43894   0.12552   0.80459   0.00000  Uiso   1.00
H778   H     0.56107   0.20780   0.69539   0.00000  Uiso   1.00
H779   H     0.58716   0.20930   0.57087   0.00000  Uiso   1.00
H780   H     0.61081   0.16123   0.56281   0.00000  Uiso   1.00
H781   H     0.40905   0.20535   0.92925   0.00000  Uiso   1.00
H782   H     0.38756   0.15667   0.93606   0.00000  Uiso   1.00
H783   H     0.33783   0.24966   0.95911   0.00000  Uiso   1.00
H784   H     0.61535   0.25055   0.99914   0.00000  Uiso   1.00
H785   H     0.66385   0.25238   0.55156   0.00000  Uiso   1.00
H786   H     0.55699   0.13564   0.88983   0.00000  Uiso   1.00
H787   H     0.38627   0.25443   0.51542   0.00000  Uiso   1.00
H788   H     0.57204   0.30090   0.72020   0.00000  Uiso   1.00
H789   H     0.61927   0.30218   0.67267   0.00000  Uiso   1.00
H790   H     0.42818   0.03241   0.77939   0.00000  Uiso   1.00
H791   H     0.38114   0.03104   0.82704   0.00000  Uiso   1.00
H792   H     0.65565   0.21260   0.61354   0.00000  Uiso   1.00
H793   H     0.34093   0.21674   0.88514   0.00000  Uiso   1.00
H794   H     0.51711   0.16029   0.58138   0.00000  Uiso   1.00
H795   H     0.48224   0.15839   0.91788   0.00000  Uiso   1.00
H796   H     0.61510   0.03925   0.71396   0.00000  Uiso   1.00
H797   H     0.38495   0.29406   0.78595   0.00000  Uiso   1.00
H798   H     0.52482   0.12556   0.80465   0.00000  Uiso   1.00
N799   N     0.45069   0.16668   0.74999   0.00000  Uiso   1.00
N800   N     0.54931   0.16666   0.75001   0.00000  Uiso   1.00
N801   N     0.60455   0.18778   0.54650   0.00000  Uiso   1.00
N802   N     0.39266   0.18305   0.95304   0.00000  Uiso   1.00
N803   N     0.63389   0.24570   0.96559   0.00000  Uiso   1.00
N804   N     0.35638   0.23498   0.52781   0.00000  Uiso   1.00
N805   N     0.60829   0.29205   0.70571   0.00000  Uiso   1.00
N806   N     0.39195   0.04124   0.79402   0.00000  Uiso   1.00
O807   O     0.37291   0.10655   0.75000   0.00000  Uiso   1.00
O808   O     0.62709   0.22678   0.75000   0.00000  Uiso   1.00
O809   O     0.62706   0.10654   0.75000   0.00000  Uiso   1.00
O810   O     0.37294   0.22679   0.74999   0.00000  Uiso   1.00
O811   O     0.35186   0.16668   0.81491   0.00000  Uiso   1.00
O812   O     0.64814   0.16666   0.68508   0.00000  Uiso   1.00
O813   O     0.60600   0.16667   0.81492   0.00000  Uiso   1.00
O814   O     0.39400   0.16667   0.68508   0.00000  Uiso   1.00
C815   C     0.99992   0.08753   0.75063   0.00000  Uiso   1.00
C816   C     0.69626   0.02061   0.77111   0.00000  Uiso   1.00
C817   C     0.99990   0.29047   0.74905   0.00000  Uiso   1.00
C818   C     0.66681   0.04285   0.75088   0.00000  Uiso   1.00
C819   C     0.84795   0.14393   0.78028   0.00000  Uiso   1.00
C820   C     0.81872   0.18941   0.71972   0.00000  Uiso   1.00
C821   C     0.79863   0.14392   0.78025   0.00000  Uiso   1.00
C822   C     0.86804   0.18941   0.71974   0.00000  Uiso   1.00
C823   C     0.97192   0.16702   0.83554   0.00000  Uiso   1.00
C824   C     0.69472   0.16695   0.66446   0.00000  Uiso   1.00
C825   C     0.95471   0.17083   0.88369   0.00000  Uiso   1.00
C826   C     0.66675   0.24580   0.74935   0.00000  Uiso   1.00
C827   C     0.71170   0.16990   0.61621   0.00000  Uiso   1.00
C828   C     0.95787   0.20587   0.95033   0.00000  Uiso   1.00
C829   C     0.70545   0.20047   0.54825   0.00000  Uiso   1.00
C830   C     0.97748   0.19821   0.90481   0.00000  Uiso   1.00
C831   C     0.68715   0.19512   0.59439   0.00000  Uiso   1.00
C832   C     0.90986   0.15396   0.90731   0.00000  Uiso   1.00
C833   C     0.75684   0.15328   0.59264   0.00000  Uiso   1.00
C834   C     0.89026   0.16108   0.95305   0.00000  Uiso   1.00
C835   C     0.77551   0.15901   0.54653   0.00000  Uiso   1.00
C836   C     0.91898   0.18101   0.97568   0.00000  Uiso   1.00
C837   C     0.86001   0.16108   0.54549   0.00000  Uiso   1.00
C838   C     0.74534   0.17646   0.52366   0.00000  Uiso   1.00
C839   C     0.84073   0.15492   0.97613   0.00000  Uiso   1.00
C840   C     0.82532   0.15494   0.52329   0.00000  Uiso   1.00
C841   C     0.80568   0.15886   0.95381   0.00000  Uiso   1.00
C842   C     0.90537   0.17721   0.52234   0.00000  Uiso   1.00
C843   C     0.75908   0.17285   0.97702   0.00000  Uiso   1.00
C844   C     0.97070   0.02217   0.73005   0.00000  Uiso   1.00
C845   C     0.69603   0.31114   0.76986   0.00000  Uiso   1.00
C846   C     0.97051   0.31270   0.72874   0.00000  Uiso   1.00
Cu847  Cu    0.71355   0.16667   0.75000   0.00000  Uiso   1.00
Cu848  Cu    0.95311   0.16666   0.75000   0.00000  Uiso   1.00
H849   H     0.77738   0.13635   0.61046   0.00000  Uiso   1.00
H850   H     0.80851   0.20779   0.69536   0.00000  Uiso   1.00
H851   H     0.77227   0.12552   0.80459   0.00000  Uiso   1.00
H852   H     0.89440   0.20780   0.69539   0.00000  Uiso   1.00
H853   H     0.92049   0.20930   0.57087   0.00000  Uiso   1.00
H854   H     0.94414   0.16123   0.56281   0.00000  Uiso   1.00
H855   H     0.74238   0.20535   0.92925   0.00000  Uiso   1.00
H856   H     0.72089   0.15667   0.93606   0.00000  Uiso   1.00
H857   H     0.67117   0.24966   0.95911   0.00000  Uiso   1.00
H858   H     0.94868   0.25055   0.99914   0.00000  Uiso   1.00
H859   H     0.99719   0.25238   0.55156   0.00000  Uiso   1.00
H860   H     0.89033   0.13564   0.88983   0.00000  Uiso   1.00
H861   H     0.71960   0.25443   0.51542   0.00000  Uiso   1.00
H862   H     0.90538   0.30090   0.72020   0.00000  Uiso   1.00
H863   H     0.95260   0.30218   0.67267   0.00000  Uiso   1.00
H864   H     0.76151   0.03241   0.77939   0.00000  Uiso   1.00
H865   H     0.71448   0.03104   0.82704   0.00000  Uiso   1.00
H866   H     0.98898   0.21260   0.61354   0.00000  Uiso   1.00
H867   H     0.67426   0.21674   0.88514   0.00000  Uiso   1.00
H868   H     0.85044   0.16029   0.58138   0.00000  Uiso   1.00
H869   H     0.81557   0.15839   0.91788   0.00000  Uiso   1.00
H870   H     0.94843   0.03925   0.71396   0.00000  Uiso   1.00
H871   H     0.71828   0.29406   0.78595   0.00000  Uiso   1.00
H872   H     0.85815   0.12556   0.80465   0.00000  Uiso   1.00
N873   N     0.78403   0.16668   0.74999   0.00000  Uiso   1.00
N874   N     0.88264   0.16666   0.75001   0.00000  Uiso   1.00
N875   N     0.93788   0.18778   0.54650   0.00000  Uiso   1.00
N876   N     0.72599   0.18305   0.95304   0.00000  Uiso   1.00
N877   N     0.96722   0.24570   0.96559   0.00000  Uiso   1.00
N878   N     0.68971   0.23498   0.52781   0.00000  Uiso   1.00
N879   N     0.94162   0.29205   0.70571   0.00000  Uiso   1.00
N880   N     0.72528   0.04124   0.79402   0.00000  Uiso   1.00
O881   O     0.70625   0.10655   0.75000   0.00000  Uiso   1.00
O882   O     0.96042   0.22678   0.75000   0.00000  Uiso   1.00
O883   O     0.96039   0.10654   0.75000   0.00000  Uiso   1.00
O884   O     0.70628   0.22679   0.74999   0.00000  Uiso   1.00
O885   O     0.68519   0.16668   0.81491   0.00000  Uiso   1.00
O886   O     0.98148   0.16666   0.68508   0.00000  Uiso   1.00
O887   O     0.93933   0.16667   0.81492   0.00000  Uiso   1.00
O888   O     0.72733   0.16667   0.68508   0.00000  Uiso   1.00
C889   C     0.33326   0.42086   0.75063   0.00000  Uiso   1.00
C890   C     0.02959   0.35394   0.77111   0.00000  Uiso   1.00
C891   C     0.33324   0.62380   0.74905   0.00000  Uiso   1.00
C892   C     0.00014   0.37618   0.75088   0.00000  Uiso   1.00
C893   C     0.18128   0.47726   0.78028   0.00000  Uiso   1.00
C894   C     0.15205   0.52274   0.71972   0.00000  Uiso   1.00
C895   C     0.13197   0.47725   0.78025   0.00000  Uiso   1.00
C896   C     0.20137   0.52274   0.71974   0.00000  Uiso   1.00
C897   C     0.30526   0.50036   0.83554   0.00000  Uiso   1.00
C898   C     0.02806   0.50028   0.66446   0.00000  Uiso   1.00
C899   C     0.28804   0.50416   0.88369   0.00000  Uiso   1.00
C900   C     0.00009   0.57913   0.74935   0.00000  Uiso   1.00
C901   C     0.04504   0.50323   0.61621   0.00000  Uiso   1.00
C902   C     0.29120   0.53920   0.95033   0.00000  Uiso   1.00
C903   C     0.03878   0.53381   0.54825   0.00000  Uiso   1.00
C904   C     0.31082   0.53154   0.90481   0.00000  Uiso   1.00
C905   C     0.02048   0.52846   0.59439   0.00000  Uiso   1.00
C906   C     0.24320   0.48730   0.90731   0.00000  Uiso   1.00
C907   C     0.09018   0.48661   0.59264   0.00000  Uiso   1.00
C908   C     0.22359   0.49441   0.95305   0.00000  Uiso   1.00
C909   C     0.10884   0.49234   0.54653   0.00000  Uiso   1.00
C910   C     0.25232   0.51434   0.97568   0.00000  Uiso   1.00
C911   C     0.19335   0.49441   0.54549   0.00000  Uiso   1.00
C912   C     0.07867   0.50979   0.52366   0.00000  Uiso   1.00
C913   C     0.17406   0.48825   0.97613   0.00000  Uiso   1.00
C914   C     0.15865   0.48827   0.52329   0.00000  Uiso   1.00
C915   C     0.13901   0.49219   0.95381   0.00000  Uiso   1.00
C916   C     0.23870   0.51054   0.52234   0.00000  Uiso   1.00
C917   C     0.09241   0.50618   0.97702   0.00000  Uiso   1.00
C918   C     0.30403   0.35551   0.73005   0.00000  Uiso   1.00
C919   C     0.02936   0.64447   0.76986   0.00000  Uiso   1.00
C920   C     0.30384   0.64603   0.72874   0.00000  Uiso   1.00
Cu921  Cu    0.04689   0.50001   0.75000   0.00000  Uiso   1.00
Cu922  Cu    0.28645   0.49999   0.75000   0.00000  Uiso   1.00
H923   H     0.11072   0.46968   0.61046   0.00000  Uiso   1.00
H924   H     0.14185   0.54112   0.69536   0.00000  Uiso   1.00
H925   H     0.10561   0.45885   0.80459   0.00000  Uiso   1.00
H926   H     0.22774   0.54114   0.69539   0.00000  Uiso   1.00
H927   H     0.25382   0.54263   0.57087   0.00000  Uiso   1.00
H928   H     0.27747   0.49456   0.56281   0.00000  Uiso   1.00
H929   H     0.07572   0.53868   0.92925   0.00000  Uiso   1.00
H930   H     0.05423   0.49000   0.93606   0.00000  Uiso   1.00
H931   H     0.00450   0.58300   0.95911   0.00000  Uiso   1.00
H932   H     0.28202   0.58388   0.99914   0.00000  Uiso   1.00
H933   H     0.33052   0.58572   0.55156   0.00000  Uiso   1.00
H934   H     0.22366   0.46897   0.88983   0.00000  Uiso   1.00
H935   H     0.05293   0.58776   0.51542   0.00000  Uiso   1.00
H936   H     0.23871   0.63423   0.72020   0.00000  Uiso   1.00
H937   H     0.28593   0.63551   0.67267   0.00000  Uiso   1.00
H938   H     0.09484   0.36574   0.77939   0.00000  Uiso   1.00
H939   H     0.04781   0.36438   0.82704   0.00000  Uiso   1.00
H940   H     0.32231   0.54593   0.61354   0.00000  Uiso   1.00
H941   H     0.00760   0.55007   0.88514   0.00000  Uiso   1.00
H942   H     0.18378   0.49362   0.58138   0.00000  Uiso   1.00
H943   H     0.14890   0.49172   0.91788   0.00000  Uiso   1.00
H944   H     0.28176   0.37258   0.71396   0.00000  Uiso   1.00
H945   H     0.05162   0.62740   0.78595   0.00000  Uiso   1.00
H946   H     0.19149   0.45889   0.80465   0.00000  Uiso   1.00
N947   N     0.11736   0.50001   0.74999   0.00000  Uiso   1.00
N948   N     0.21597   0.49999   0.75001   0.00000  Uiso   1.00
N949   N     0.27122   0.52111   0.54650   0.00000  Uiso   1.00
N950   N     0.05932   0.51639   0.95304   0.00000  Uiso   1.00
N951   N     0.30056   0.57903   0.96559   0.00000  Uiso   1.00
N952   N     0.02305   0.56832   0.52781   0.00000  Uiso   1.00
N953   N     0.27496   0.62538   0.70571   0.00000  Uiso   1.00
N954   N     0.05862   0.37457   0.79402   0.00000  Uiso   1.00
O955   O     0.03958   0.43989   0.75000   0.00000  Uiso   1.00
O956   O     0.29375   0.56011   0.75000   0.00000  Uiso   1.00
O957   O     0.29372   0.43988   0.75000   0.00000  Uiso   1.00
O958   O     0.03961   0.56012   0.74999   0.00000  Uiso   1.00
O959   O     0.01852   0.50001   0.81491   0.00000  Uiso   1.00
O960   O     0.31481   0.49999   0.68508   0.00000  Uiso   1.00
O961   O     0.27267   0.50000   0.81492   0.00000  Uiso   1.00
O962   O     0.06067   0.50000   0.68508   0.00000  Uiso   1.00
C963   C     0.66659   0.42086   0.75063   0.00000  Uiso   1.00
C964   C     0.36293   0.35394   0.77111   0.00000  Uiso   1.00
C965   C     0.66657   0.62380   0.74905   0.00000  Uiso   1.00
C966   C     0.33347   0.37618   0.75088   0.00000  Uiso   1.00
C967   C     0.51461   0.47726   0.78028   0.00000  Uiso   1.00
C968   C     0.48539   0.52274   0.71972   0.00000  Uiso   1.00
C969   C     0.46530   0.47725   0.78025   0.00000  Uiso   1.00
C970   C     0.53470   0.52274   0.71974   0.00000  Uiso   1.00
C971   C     0.63859   0.50036   0.83554   0.00000  Uiso   1.00
C972   C     0.36139   0.50028   0.66446   0.00000  Uiso   1.00
C973   C     0.62138   0.50416   0.88369   0.00000  Uiso   1.00
C974   C     0.33342   0.57913   0.74935   0.00000  Uiso   1.00
C975   C     0.37837   0.50323   0.61621   0.00000  Uiso   1.00
C976   C     0.62453   0.53920   0.95033   0.00000  Uiso   1.00
C977   C     0.37211   0.53381   0.54825   0.00000  Uiso   1.00
C978   C     0.64415   0.53154   0.90481   0.00000  Uiso   1.00
C979   C     0.35381   0.52846   0.59439   0.00000  Uiso   1.00
C980   C     0.57653   0.48730   0.90731   0.00000  Uiso   1.00
C981   C     0.42351   0.48661   0.59264   0.00000  Uiso   1.00
C982   C     0.55692   0.49441   0.95305   0.00000  Uiso   1.00
C983   C     0.44218   0.49234   0.54653   0.00000  Uiso   1.00
C984   C     0.58565   0.51434   0.97568   0.00000  Uiso   1.00
C985   C     0.52668   0.49441   0.54549   0.00000  Uiso   1.00
C986   C     0.41200   0.50979   0.52366   0.00000  Uiso   1.00
C987   C     0.50739   0.48825   0.97613   0.00000  Uiso   1.00
C988   C     0.49199   0.48827   0.52329   0.00000  Uiso   1.00
C989   C     0.47234   0.49219   0.95381   0.00000  Uiso   1.00
C990   C     0.57203   0.51054   0.52234   0.00000  Uiso   1.00
C991   C     0.42574   0.50618   0.97702   0.00000  Uiso   1.00
C992   C     0.63736   0.35551   0.73005   0.00000  Uiso   1.00
C993   C     0.36269   0.64447   0.76986   0.00000  Uiso   1.00
C994   C     0.63718   0.64603   0.72874   0.00000  Uiso   1.00
Cu995  Cu    0.38022   0.50001   0.75000   0.00000  Uiso   1.00
Cu996  Cu    0.61978   0.49999   0.75000   0.00000  Uiso   1.00
H997   H     0.44405   0.46968   0.61046   0.00000  Uiso   1.00
H998   H     0.47518   0.54112   0.69536   0.00000  Uiso   1.00
H999   H     0.43894   0.45885   0.80459   0.00000  Uiso   1.00
H1000  H     0.56107   0.54114   0.69539   0.00000  Uiso   1.00
H1001  H     0.58716   0.54263   0.57087   0.00000  Uiso   1.00
H1002  H     0.61081   0.49456   0.56281   0.00000  Uiso   1.00
H1003  H     0.40905   0.53868   0.92925   0.00000  Uiso   1.00
H1004  H     0.38756   0.49000   0.93606   0.00000  Uiso   1.00
H1005  H     0.33783   0.58300   0.95911   0.00000  Uiso   1.00
H1006  H     0.61535   0.58388   0.99914   0.00000  Uiso   1.00
H1007  H     0.66385   0.58572   0.55156   0.00000  Uiso   1.00
H1008  H     0.55699   0.46897   0.88983   0.00000  Uiso   1.00
H1009  H     0.38627   0.58776   0.51542   0.00000  Uiso   1.00
H1010  H     0.57204   0.63423   0.72020   0.00000  Uiso   1.00
H1011  H     0.61927   0.63551   0.67267   0.00000  Uiso   1.00
H1012  H     0.42818   0.36574   0.77939   0.00000  Uiso   1.00
H1013  H     0.38114   0.36438   0.82704   0.00000  Uiso   1.00
H1014  H     0.65565   0.54593   0.61354   0.00000  Uiso   1.00
H1015  H     0.34093   0.55007   0.88514   0.00000  Uiso   1.00
H1016  H     0.51711   0.49362   0.58138   0.00000  Uiso   1.00
H1017  H     0.48224   0.49172   0.91788   0.00000  Uiso   1.00
H1018  H     0.61510   0.37258   0.71396   0.00000  Uiso   1.00
H1019  H     0.38495   0.62740   0.78595   0.00000  Uiso   1.00
H1020  H     0.52482   0.45889   0.80465   0.00000  Uiso   1.00
N1021  N     0.45069   0.50001   0.74999   0.00000  Uiso   1.00
N1022  N     0.54931   0.49999   0.75001   0.00000  Uiso   1.00
N1023  N     0.60455   0.52111   0.54650   0.00000  Uiso   1.00
N1024  N     0.39266   0.51639   0.95304   0.00000  Uiso   1.00
N1025  N     0.63389   0.57903   0.96559   0.00000  Uiso   1.00
N1026  N     0.35638   0.56832   0.52781   0.00000  Uiso   1.00
N1027  N     0.60829   0.62538   0.70571   0.00000  Uiso   1.00
N1028  N     0.39195   0.37457   0.79402   0.00000  Uiso   1.00
O1029  O     0.37291   0.43989   0.75000   0.00000  Uiso   1.00
O1030  O     0.62709   0.56011   0.75000   0.00000  Uiso   1.00
O1031  O     0.62706   0.43988   0.75000   0.00000  Uiso   1.00
O1032  O     0.37294   0.56012   0.74999   0.00000  Uiso   1.00
O1033  O     0.35186   0.50001   0.81491   0.00000  Uiso   1.00
O1034  O     0.64814   0.49999   0.68508   0.00000  Uiso   1.00
O1035  O     0.60600   0.50000   0.81492   0.00000  Uiso   1.00
O1036  O     0.39400   0.50000   0.68508   0.00000  Uiso   1.00
C1037  C     0.99992   0.42086   0.75063   0.00000  Uiso   1.00
C1038  C     0.69626   0.35394   0.77111   0.00000  Uiso   1.00
C1039  C     0.99990   0.62380   0.74905   0.00000  Uiso   1.00
C1040  C     0.66681   0.37618   0.75088   0.00000  Uiso   1.00
C1041  C     0.84795   0.47726   0.78028   0.00000  Uiso   1.00
C1042  C     0.81872   0.52274   0.71972   0.00000  Uiso   1.00
C1043  C     0.79863   0.47725   0.78025   0.00000  Uiso   1.00
C1044  C     0.86804   0.52274   0.71974   0.00000  Uiso   1.00
C1045  C     0.97192   0.50036   0.83554   0.00000  Uiso   1.00
C1046  C     0.69472   0.50028   0.66446   0.00000  Uiso   1.00
C1047  C     0.95471   0.50416   0.88369   0.00000  Uiso   1.00
C1048  C     0.66675   0.57913   0.74935   0.00000  Uiso   1.00
C1049  C     0.71170   0.50323   0.61621   0.00000  Uiso   1.00
C1050  C     0.95787   0.53920   0.95033   0.00000  Uiso   1.00
C1051  C     0.70545   0.53381   0.54825   0.00000  Uiso   1.00
C1052  C     0.97748   0.53154   0.90481   0.00000  Uiso   1.00
C1053  C     0.68715   0.52846   0.59439   0.00000  Uiso   1.00
C1054  C     0.90986   0.48730   0.90731   0.00000  Uiso   1.00
C1055  C     0.75684   0.48661   0.59264   0.00000  Uiso   1.00
C1056  C     0.89026   0.49441   0.95305   0.00000  Uiso   1.00
C1057  C     0.77551   0.49234   0.54653   0.00000  Uiso   1.00
C1058  C     0.91898   0.51434   0.97568   0.00000  Uiso   1.00
C1059  C     0.86001   0.49441   0.54549   0.00000  Uiso   1.00
C1060  C     0.74534   0.50979   0.52366   0.00000  Uiso   1.00
C1061  C     0.84073   0.48825   0.97613   0.00000  Uiso   1.00
C1062  C     0.82532   0.48827   0.52329   0.00000  Uiso   1.00
C1063  C     0.80568   0.49219   0.95381   0.00000  Uiso   1.00
C1064  C     0.90537   0.51054   0.52234   0.00000  Uiso   1.00
C1065  C     0.75908   0.50618   0.97702   0.00000  Uiso   1.00
C1066  C     0.97070   0.35551   0.73005   0.00000  Uiso   1.00
C1067  C     0.69603   0.64447   0.76986   0.00000  Uiso   1.00
C1068  C     0.97051   0.64603   0.72874   0.00000  Uiso   1.00
Cu1069 Cu    0.71355   0.50001   0.75000   0.00000  Uiso   1.00
Cu1070 Cu    0.95311   0.49999   0.75000   0.00000  Uiso   1.00
H1071  H     0.77738   0.46968   0.61046   0.00000  Uiso   1.00
H1072  H     0.80851   0.54112   0.69536   0.00000  Uiso   1.00
H1073  H     0.77227   0.45885   0.80459   0.00000  Uiso   1.00
H1074  H     0.89440   0.54114   0.69539   0.00000  Uiso   1.00
H1075  H     0.92049   0.54263   0.57087   0.00000  Uiso   1.00
H1076  H     0.94414   0.49456   0.56281   0.00000  Uiso   1.00
H1077  H     0.74238   0.53868   0.92925   0.00000  Uiso   1.00
H1078  H     0.72089   0.49000   0.93606   0.00000  Uiso   1.00
H1079  H     0.67117   0.58300   0.95911   0.00000  Uiso   1.00
H1080  H     0.94868   0.58388   0.99914   0.00000  Uiso   1.00
H1081  H     0.99719   0.58572   0.55156   0.00000  Uiso   1.00
H1082  H     0.89033   0.46897   0.88983   0.00000  Uiso   1.00
H1083  H     0.71960   0.58776   0.51542   0.00000  Uiso   1.00
H1084  H     0.90538   0.63423   0.72020   0.00000  Uiso   1.00
H1085  H     0.95260   0.63551   0.67267   0.00000  Uiso   1.00
H1086  H     0.76151   0.36574   0.77939   0.00000  Uiso   1.00
H1087  H     0.71448   0.36438   0.82704   0.00000  Uiso   1.00
H1088  H     0.98898   0.54593   0.61354   0.00000  Uiso   1.00
H1089  H     0.67426   0.55007   0.88514   0.00000  Uiso   1.00
H1090  H     0.85044   0.49362   0.58138   0.00000  Uiso   1.00
H1091  H     0.81557   0.49172   0.91788   0.00000  Uiso   1.00
H1092  H     0.94843   0.37258   0.71396   0.00000  Uiso   1.00
H1093  H     0.71828   0.62740   0.78595   0.00000  Uiso   1.00
H1094  H     0.85815   0.45889   0.80465   0.00000  Uiso   1.00
N1095  N     0.78403   0.50001   0.74999   0.00000  Uiso   1.00
N1096  N     0.88264   0.49999   0.75001   0.00000  Uiso   1.00
N1097  N     0.93788   0.52111   0.54650   0.00000  Uiso   1.00
N1098  N     0.72599   0.51639   0.95304   0.00000  Uiso   1.00
N1099  N     0.96722   0.57903   0.96559   0.00000  Uiso   1.00
N1100  N     0.68971   0.56832   0.52781   0.00000  Uiso   1.00
N1101  N     0.94162   0.62538   0.70571   0.00000  Uiso   1.00
N1102  N     0.72528   0.37457   0.79402   0.00000  Uiso   1.00
O1103  O     0.70625   0.43989   0.75000   0.00000  Uiso   1.00
O1104  O     0.96042   0.56011   0.75000   0.00000  Uiso   1.00
O1105  O     0.96039   0.43988   0.75000   0.00000  Uiso   1.00
O1106  O     0.70628   0.56012   0.74999   0.00000  Uiso   1.00
O1107  O     0.68519   0.50001   0.81491   0.00000  Uiso   1.00
O1108  O     0.98148   0.49999   0.68508   0.00000  Uiso   1.00
O1109  O     0.93933   0.50000   0.81492   0.00000  Uiso   1.00
O1110  O     0.72733   0.50000   0.68508   0.00000  Uiso   1.00
C1111  C     0.33326   0.75420   0.75063   0.00000  Uiso   1.00
C1112  C     0.02959   0.68727   0.77111   0.00000  Uiso   1.00
C1113  C     0.33324   0.95713   0.74905   0.00000  Uiso   1.00
C1114  C     0.00014   0.70952   0.75088   0.00000  Uiso   1.00
C1115  C     0.18128   0.81059   0.78028   0.00000  Uiso   1.00
C1116  C     0.15205   0.85608   0.71972   0.00000  Uiso   1.00
C1117  C     0.13197   0.81059   0.78025   0.00000  Uiso   1.00
C1118  C     0.20137   0.85608   0.71974   0.00000  Uiso   1.00
C1119  C     0.30526   0.83369   0.83554   0.00000  Uiso   1.00
C1120  C     0.02806   0.83361   0.66446   0.00000  Uiso   1.00
C1121  C     0.28804   0.83749   0.88369   0.00000  Uiso   1.00
C1122  C     0.00009   0.91246   0.74935   0.00000  Uiso   1.00
C1123  C     0.04504   0.83657   0.61621   0.00000  Uiso   1.00
C1124  C     0.29120   0.87253   0.95033   0.00000  Uiso   1.00
C1125  C     0.03878   0.86714   0.54825   0.00000  Uiso   1.00
C1126  C     0.31082   0.86487   0.90481   0.00000  Uiso   1.00
C1127  C     0.02048   0.86179   0.59439   0.00000  Uiso   1.00
C1128  C     0.24320   0.82063   0.90731   0.00000  Uiso   1.00
C1129  C     0.09018   0.81994   0.59264   0.00000  Uiso   1.00
C1130  C     0.22359   0.82774   0.95305   0.00000  Uiso   1.00
C1131  C     0.10884   0.82568   0.54653   0.00000  Uiso   1.00
C1132  C     0.25232   0.84767   0.97568   0.00000  Uiso   1.00
C1133  C     0.19335   0.82774   0.54549   0.00000  Uiso   1.00
C1134  C     0.07867   0.84313   0.52366   0.00000  Uiso   1.00
C1135  C     0.17406   0.82158   0.97613   0.00000  Uiso   1.00
C1136  C     0.15865   0.82160   0.52329   0.00000  Uiso   1.00
C1137  C     0.13901   0.82553   0.95381   0.00000  Uiso   1.00
C1138  C     0.23870   0.84388   0.52234   0.00000  Uiso   1.00
C1139  C     0.09241   0.83951   0.97702   0.00000  Uiso   1.00
C1140  C     0.30403   0.68884   0.73005   0.00000  Uiso   1.00
C1141  C     0.02936   0.97780   0.76986   0.00000  Uiso   1.00
C1142  C     0.30384   0.97937   0.72874   0.00000  Uiso   1.00
Cu1143 Cu    0.04689   0.83334   0.75000   0.00000  Uiso   1.00
Cu1144 Cu    0.28645   0.83333   0.75000   0.00000  Uiso   1.00
H1145  H     0.11072   0.80302   0.61046   0.00000  Uiso   1.00
H1146  H     0.14185   0.87445   0.69536   0.00000  Uiso   1.00
H1147  H     0.10561   0.79219   0.80459   0.00000  Uiso   1.00
H1148  H     0.22774   0.87447   0.69539   0.00000  Uiso   1.00
H1149  H     0.25382   0.87597   0.57087   0.00000  Uiso   1.00
H1150  H     0.27747   0.82790   0.56281   0.00000  Uiso   1.00
H1151  H     0.07572   0.87201   0.92925   0.00000  Uiso   1.00
H1152  H     0.05423   0.82334   0.93606   0.00000  Uiso   1.00
H1153  H     0.00450   0.91633   0.95911   0.00000  Uiso   1.00
H1154  H     0.28202   0.91722   0.99914   0.00000  Uiso   1.00
H1155  H     0.33052   0.91905   0.55156   0.00000  Uiso   1.00
H1156  H     0.22366   0.80230   0.88983   0.00000  Uiso   1.00
H1157  H     0.05293   0.92110   0.51542   0.00000  Uiso   1.00
H1158  H     0.23871   0.96757   0.72020   0.00000  Uiso   1.00
H1159  H     0.28593   0.96885   0.67267   0.00000  Uiso   1.00
H1160  H     0.09484   0.69907   0.77939   0.00000  Uiso   1.00
H1161  H     0.04781   0.69771   0.82704   0.00000  Uiso   1.00
H1162  H     0.32231   0.87927   0.61354   0.00000  Uiso   1.00
H1163  H     0.00760   0.88340   0.88514   0.00000  Uiso   1.00
H1164  H     0.18378   0.82696   0.58138   0.00000  Uiso   1.00
H1165  H     0.14890   0.82505   0.91788   0.00000  Uiso   1.00
H1166  H     0.28176   0.70591   0.71396   0.00000  Uiso   1.00
H1167  H     0.05162   0.96073   0.78595   0.00000  Uiso   1.00
H1168  H     0.19149   0.79222   0.80465   0.00000  Uiso   1.00
N1169  N     0.11736   0.83334   0.74999   0.00000  Uiso   1.00
N1170  N     0.21597   0.83332   0.75001   0.00000  Uiso   1.00
N1171  N     0.27122   0.85445   0.54650   0.00000  Uiso   1.00
N1172  N     0.05932   0.84972   0.95304   0.00000  Uiso   1.00
N1173  N     0.30056   0.91237   0.96559   0.00000  Uiso   1.00
N1174  N     0.02305   0.90165   0.52781   0.00000  Uiso   1.00
N1175  N     0.27496   0.95872   0.70571   0.00000  Uiso   1.00
N1176  N     0.05862   0.70790   0.79402   0.00000  Uiso   1.00
O1177  O     0.03958   0.77322   0.75000   0.00000  Uiso   1.00
O1178  O     0.29375   0.89345   0.75000   0.00000  Uiso   1.00
O1179  O     0.29372   0.77321   0.75000   0.00000  Uiso   1.00
O1180  O     0.03961   0.89346   0.74999   0.00000  Uiso   1.00
O1181  O     0.01852   0.83334   0.81491   0.00000  Uiso   1.00
O1182  O     0.31481   0.83332   0.68508   0.00000  Uiso   1.00
O1183  O     0.27267   0.83333   0.81492   0.00000  Uiso   1.00
O1184  O     0.06067   0.83333   0.68508   0.00000  Uiso   1.00
C1185  C     0.66659   0.75420   0.75063   0.00000  Uiso   1.00
C1186  C     0.36293   0.68727   0.77111   0.00000  Uiso   1.00
C1187  C     0.66657   0.95713   0.74905   0.00000  Uiso   1.00
C1188  C     0.33347   0.70952   0.75088   0.00000  Uiso   1.00
C1189  C     0.51461   0.81059   0.78028   0.00000  Uiso   1.00
C1190  C     0.48539   0.85608   0.71972   0.00000  Uiso   1.00
C1191  C     0.46530   0.81059   0.78025   0.00000  Uiso   1.00
C1192  C     0.53470   0.85608   0.71974   0.00000  Uiso   1.00
C1193  C     0.63859   0.83369   0.83554   0.00000  Uiso   1.00
C1194  C     0.36139   0.83361   0.66446   0.00000  Uiso   1.00
C1195  C     0.62138   0.83749   0.88369   0.00000  Uiso   1.00
C1196  C     0.33342   0.91246   0.74935   0.00000  Uiso   1.00
C1197  C     0.37837   0.83657   0.61621   0.00000  Uiso   1.00
C1198  C     0.62453   0.87253   0.95033   0.00000  Uiso   1.00
C1199  C     0.37211   0.86714   0.54825   0.00000  Uiso   1.00
C1200  C     0.64415   0.86487   0.90481   0.00000  Uiso   1.00
C1201  C     0.35381   0.86179   0.59439   0.00000  Uiso   1.00
C1202  C     0.57653   0.82063   0.90731   0.00000  Uiso   1.00
C1203  C     0.42351   0.81994   0.59264   0.00000  Uiso   1.00
C1204  C     0.55692   0.82774   0.95305   0.00000  Uiso   1.00
C1205  C     0.44218   0.82568   0.54653   0.00000  Uiso   1.00
C1206  C     0.58565   0.84767   0.97568   0.00000  Uiso   1.00
C1207  C     0.52668   0.82774   0.54549   0.00000  Uiso   1.00
C1208  C     0.41200   0.84313   0.52366   0.00000  Uiso   1.00
C1209  C     0.50739   0.82158   0.97613   0.00000  Uiso   1.00
C1210  C     0.49199   0.82160   0.52329   0.00000  Uiso   1.00
C1211  C     0.47234   0.82553   0.95381   0.00000  Uiso   1.00
C1212  C     0.57203   0.84388   0.52234   0.00000  Uiso   1.00
C1213  C     0.42574   0.83951   0.97702   0.00000  Uiso   1.00
C1214  C     0.63736   0.68884   0.73005   0.00000  Uiso   1.00
C1215  C     0.36269   0.97780   0.76986   0.00000  Uiso   1.00
C1216  C     0.63718   0.97937   0.72874   0.00000  Uiso   1.00
Cu1217 Cu    0.38022   0.83334   0.75000   0.00000  Uiso   1.00
Cu1218 Cu    0.61978   0.83333   0.75000   0.00000  Uiso   1.00
H1219  H     0.44405   0.80302   0.61046   0.00000  Uiso   1.00
H1220  H     0.47518   0.87445   0.69536   0.00000  Uiso   1.00
H1221  H     0.43894   0.79219   0.80459   0.00000  Uiso   1.00
H1222  H     0.56107   0.87447   0.69539   0.00000  Uiso   1.00
H1223  H     0.58716   0.87597   0.57087   0.00000  Uiso   1.00
H1224  H     0.61081   0.82790   0.56281   0.00000  Uiso   1.00
H1225  H     0.40905   0.87201   0.92925   0.00000  Uiso   1.00
H1226  H     0.38756   0.82334   0.93606   0.00000  Uiso   1.00
H1227  H     0.33783   0.91633   0.95911   0.00000  Uiso   1.00
H1228  H     0.61535   0.91722   0.99914   0.00000  Uiso   1.00
H1229  H     0.66385   0.91905   0.55156   0.00000  Uiso   1.00
H1230  H     0.55699   0.80230   0.88983   0.00000  Uiso   1.00
H1231  H     0.38627   0.92110   0.51542   0.00000  Uiso   1.00
H1232  H     0.57204   0.96757   0.72020   0.00000  Uiso   1.00
H1233  H     0.61927   0.96885   0.67267   0.00000  Uiso   1.00
H1234  H     0.42818   0.69907   0.77939   0.00000  Uiso   1.00
H1235  H     0.38114   0.69771   0.82704   0.00000  Uiso   1.00
H1236  H     0.65565   0.87927   0.61354   0.00000  Uiso   1.00
H1237  H     0.34093   0.88340   0.88514   0.00000  Uiso   1.00
H1238  H     0.51711   0.82696   0.58138   0.00000  Uiso   1.00
H1239  H     0.48224   0.82505   0.91788   0.00000  Uiso   1.00
H1240  H     0.61510   0.70591   0.71396   0.00000  Uiso   1.00
H1241  H     0.38495   0.96073   0.78595   0.00000  Uiso   1.00
H1242  H     0.52482   0.79222   0.80465   0.00000  Uiso   1.00
N1243  N     0.45069   0.83334   0.74999   0.00000  Uiso   1.00
N1244  N     0.54931   0.83332   0.75001   0.00000  Uiso   1.00
N1245  N     0.60455   0.85445   0.54650   0.00000  Uiso   1.00
N1246  N     0.39266   0.84972   0.95304   0.00000  Uiso   1.00
N1247  N     0.63389   0.91237   0.96559   0.00000  Uiso   1.00
N1248  N     0.35638   0.90165   0.52781   0.00000  Uiso   1.00
N1249  N     0.60829   0.95872   0.70571   0.00000  Uiso   1.00
N1250  N     0.39195   0.70790   0.79402   0.00000  Uiso   1.00
O1251  O     0.37291   0.77322   0.75000   0.00000  Uiso   1.00
O1252  O     0.62709   0.89345   0.75000   0.00000  Uiso   1.00
O1253  O     0.62706   0.77321   0.75000   0.00000  Uiso   1.00
O1254  O     0.37294   0.89346   0.74999   0.00000  Uiso   1.00
O1255  O     0.35186   0.83334   0.81491   0.00000  Uiso   1.00
O1256  O     0.64814   0.83332   0.68508   0.00000  Uiso   1.00
O1257  O     0.60600   0.83333   0.81492   0.00000  Uiso   1.00
O1258  O     0.39400   0.83333   0.68508   0.00000  Uiso   1.00
C1259  C     0.99992   0.75420   0.75063   0.00000  Uiso   1.00
C1260  C     0.69626   0.68727   0.77111   0.00000  Uiso   1.00
C1261  C     0.99990   0.95713   0.74905   0.00000  Uiso   1.00
C1262  C     0.66681   0.70952   0.75088   0.00000  Uiso   1.00
C1263  C     0.84795   0.81059   0.78028   0.00000  Uiso   1.00
C1264  C     0.81872   0.85608   0.71972   0.00000  Uiso   1.00
C1265  C     0.79863   0.81059   0.78025   0.00000  Uiso   1.00
C1266  C     0.86804   0.85608   0.71974   0.00000  Uiso   1.00
C1267  C     0.97192   0.83369   0.83554   0.00000  Uiso   1.00
C1268  C     0.69472   0.83361   0.66446   0.00000  Uiso   1.00
C1269  C     0.95471   0.83749   0.88369   0.00000  Uiso   1.00
C1270  C     0.66675   0.91246   0.74935   0.00000  Uiso   1.00
C1271  C     0.71170   0.83657   0.61621   0.00000  Uiso   1.00
C1272  C     0.95787   0.87253   0.95033   0.00000  Uiso   1.00
C1273  C     0.70545   0.86714   0.54825   0.00000  Uiso   1.00
C1274  C     0.97748   0.86487   0.90481   0.00000  Uiso   1.00
C1275  C     0.68715   0.86179   0.59439   0.00000  Uiso   1.00
C1276  C     0.90986   0.82063   0.90731   0.00000  Uiso   1.00
C1277  C     0.75684   0.81994   0.59264   0.00000  Uiso   1.00
C1278  C     0.89026   0.82774   0.95305   0.00000  Uiso   1.00
C1279  C     0.77551   0.82568   0.54653   0.00000  Uiso   1.00
C1280  C     0.91898   0.84767   0.97568   0.00000  Uiso   1.00
C1281  C     0.86001   0.82774   0.54549   0.00000  Uiso   1.00
C1282  C     0.74534   0.84313   0.52366   0.00000  Uiso   1.00
C1283  C     0.84073   0.82158   0.97613   0.00000  Uiso   1.00
C1284  C     0.82532   0.82160   0.52329   0.00000  Uiso   1.00
C1285  C     0.80568   0.82553   0.95381   0.00000  Uiso   1.00
C1286  C     0.90537   0.84388   0.52234   0.00000  Uiso   1.00
C1287  C     0.75908   0.83951   0.97702   0.00000  Uiso   1.00
C1288  C     0.97070   0.68884   0.73005   0.00000  Uiso   1.00
C1289  C     0.69603   0.97780   0.76986   0.00000  Uiso   1.00
C1290  C     0.97051   0.97937   0.72874   0.00000  Uiso   1.00
Cu1291 Cu    0.71355   0.83334   0.75000   0.00000  Uiso   1.00
Cu1292 Cu    0.95311   0.83333   0.75000   0.00000  Uiso   1.00
H1293  H     0.77738   0.80302   0.61046   0.00000  Uiso   1.00
H1294  H     0.80851   0.87445   0.69536   0.00000  Uiso   1.00
H1295  H     0.77227   0.79219   0.80459   0.00000  Uiso   1.00
H1296  H     0.89440   0.87447   0.69539   0.00000  Uiso   1.00
H1297  H     0.92049   0.87597   0.57087   0.00000  Uiso   1.00
H1298  H     0.94414   0.82790   0.56281   0.00000  Uiso   1.00
H1299  H     0.74238   0.87201   0.92925   0.00000  Uiso   1.00
H1300  H     0.72089   0.82334   0.93606   0.00000  Uiso   1.00
H1301  H     0.67117   0.91633   0.95911   0.00000  Uiso   1.00
H1302  H     0.94868   0.91722   0.99914   0.00000  Uiso   1.00
H1303  H     0.99719   0.91905   0.55156   0.00000  Uiso   1.00
H1304  H     0.89033   0.80230   0.88983   0.00000  Uiso   1.00
H1305  H     0.71960   0.92110   0.51542   0.00000  Uiso   1.00
H1306  H     0.90538   0.96757   0.72020   0.00000  Uiso   1.00
H1307  H     0.95260   0.96885   0.67267   0.00000  Uiso   1.00
H1308  H     0.76151   0.69907   0.77939   0.00000  Uiso   1.00
H1309  H     0.71448   0.69771   0.82704   0.00000  Uiso   1.00
H1310  H     0.98898   0.87927   0.61354   0.00000  Uiso   1.00
H1311  H     0.67426   0.88340   0.88514   0.00000  Uiso   1.00
H1312  H     0.85044   0.82696   0.58138   0.00000  Uiso   1.00
H1313  H     0.81557   0.82505   0.91788   0.00000  Uiso   1.00
H1314  H     0.94843   0.70591   0.71396   0.00000  Uiso   1.00
H1315  H     0.71828   0.96073   0.78595   0.00000  Uiso   1.00
H1316  H     0.85815   0.79222   0.80465   0.00000  Uiso   1.00
N1317  N     0.78403   0.83334   0.74999   0.00000  Uiso   1.00
N1318  N     0.88264   0.83332   0.75001   0.00000  Uiso   1.00
N1319  N     0.93788   0.85445   0.54650   0.00000  Uiso   1.00
N1320  N     0.72599   0.84972   0.95304   0.00000  Uiso   1.00
N1321  N     0.96722   0.91237   0.96559   0.00000  Uiso   1.00
N1322  N     0.68971   0.90165   0.52781   0.00000  Uiso   1.00
N1323  N     0.94162   0.95872   0.70571   0.00000  Uiso   1.00
N1324  N     0.72528   0.70790   0.79402   0.00000  Uiso   1.00
O1325  O     0.70625   0.77322   0.75000   0.00000  Uiso   1.00
O1326  O     0.96042   0.89345   0.75000   0.00000  Uiso   1.00
O1327  O     0.96039   0.77321   0.75000   0.00000  Uiso   1.00
O1328  O     0.70628   0.89346   0.74999   0.00000  Uiso   1.00
O1329  O     0.68519   0.83334   0.81491   0.00000  Uiso   1.00
O1330  O     0.98148   0.83332   0.68508   0.00000  Uiso   1.00
O1331  O     0.93933   0.83333   0.81492   0.00000  Uiso   1.00
O1332  O     0.72733   0.83333   0.68508   0.00000  Uiso   1.00
loop_
_geom_bond_atom_site_label_1
_geom_bond_atom_site_label_2
_geom_bond_distance
_geom_bond_site_symmetry_2
_ccdc_geom_bond_type
C1     O69     1.302   .     A
C1     C78     1.449   .     S
C1     O141    1.299   .     S
C2     C4      1.408   .     A
C2     N66     1.434   .     S
C2     C475    1.389   1_545 S
C3     C32     1.407   .     A
C3     C86     1.449   .     S
C3     C105    1.399   .     S
C4     C149    1.449   1_455 S
C4     C178    1.399   1_455 S
C5     H58     1.082   .     S
C5     C7      1.426   .     A
C5     N60     1.370   .     A
C6     C8      1.426   .     A
C6     N59     1.370   .     A
C6     H36     1.082   .     S
C7     N59     1.371   .     A
C7     H37     1.082   .     S
C8     H38     1.082   .     S
C8     N60     1.371   .     A
C9     C11     1.453   .     S
C9     O73     1.299   .     A
C9     O145    1.304   .     S
C10    C13     1.453   .     S
C10    O74     1.300   .     A
C10    O220    1.304   1_455 S
C11    C18     1.395   .     A
C11    C16     1.394   .     A
C12    O70     1.302   .     A
C12    C151    1.449   1_455 S
C12    O216    1.299   1_455 S
C13    C19     1.395   .     A
C13    C17     1.393   .     A
C14    C16     1.396   .     A
C14    C22     1.417   .     A
C14    N63     1.436   .     S
C15    N64     1.432   .     S
C15    C24     1.409   .     A
C15    C17     1.399   .     A
C16    H127    1.084   .     S
C17    H200    1.084   1_455 S
C18    H46     1.083   .     S
C18    C20     1.399   .     A
C19    C21     1.401   .     A
C19    H35     1.083   .     S
C20    C25     1.408   .     A
C20    C22     1.411   .     A
C21    C26     1.407   .     A
C21    C24     1.408   .     A
C22    C694    1.409   .     S
C23    C26     1.404   .     A
C23    C28     1.394   .     A
C23    H54     1.081   .     S
C24    C695    1.408   1_554 S
C25    C27     1.406   .     A
C25    C692    1.417   .     S
C26    C691    1.417   1_554 S
C27    C29     1.396   .     A
C27    H55     1.082   .     S
C28    N61     1.424   .     S
C28    C688    1.409   1_554 S
C29    N62     1.428   .     S
C29    C690    1.408   .     S
C30    H56     1.084   .     S
C30    C78     1.399   .     S
C30    C476    1.389   1_545 S
C31    H57     1.084   .     S
C31    C224    1.389   .     S
C31    C151    1.399   1_455 S
C32    N65     1.434   .     S
C32    C252    1.389   .     S
Cu33   N59     2.037   .     S
Cu33   O70     1.961   .     S
Cu33   O67     1.963   .     S
Cu33   O71     1.960   .     S
Cu33   O74     1.965   .     S
Cu33   Cu182   2.711   1_455 S
Cu34   N60     2.037   .     S
Cu34   O68     1.963   .     S
Cu34   O69     1.961   .     S
Cu34   O72     1.960   .     S
Cu34   O73     1.965   .     S
Cu34   Cu107   2.711   .     S
H39    N61     1.046   .     S
H40    N61     1.046   .     S
H41    N62     1.046   .     S
H42    N62     1.046   .     S
H43    N211    1.042   1_455 S
H44    N63     1.042   .     S
H45    N138    1.046   .     S
H47    N64     1.046   .     S
H48    N65     1.046   .     S
H49    N65     1.046   .     S
H50    N66     1.046   .     S
H51    N66     1.046   .     S
H52    C91     1.084   .     S
H53    C164    1.084   1_455 S
N63    H117    1.042   .     S
N64    H193    1.046   1_455 S
O67    C149    1.299   1_455 S
O68    C86     1.299   .     S
O71    C157    1.304   1_455 S
O72    C84     1.304   .     S
C75    O143    1.302   .     A
C75    C152    1.449   .     S
C75    O215    1.299   .     S
C76    C78     1.408   .     A
C76    N140    1.434   .     S
C76    C549    1.389   1_545 S
C77    C106    1.407   .     A
C77    C160    1.449   .     S
C77    C179    1.399   .     S
C79    H132    1.082   .     S
C79    C81     1.426   .     A
C79    N134    1.370   .     A
C80    C82     1.426   .     A
C80    N133    1.370   .     A
C80    H110    1.082   .     S
C81    N133    1.371   .     A
C81    H111    1.082   .     S
C82    H112    1.082   .     S
C82    N134    1.371   .     A
C83    C85     1.453   .     S
C83    O147    1.299   .     A
C83    O219    1.304   .     S
C84    C87     1.453   .     S
C84    O148    1.300   .     A
C85    C92     1.395   .     A
C85    C90     1.394   .     A
C86    O144    1.302   .     A
C87    C93     1.395   .     A
C87    C91     1.393   .     A
C88    C90     1.396   .     A
C88    C96     1.417   .     A
C88    N137    1.436   .     S
C89    N138    1.432   .     S
C89    C98     1.409   .     A
C89    C91     1.399   .     A
C90    H201    1.084   .     S
C92    H120    1.083   .     S
C92    C94     1.399   .     A
C93    C95     1.401   .     A
C93    H109    1.083   .     S
C94    C99     1.408   .     A
C94    C96     1.411   .     A
C95    C100    1.407   .     A
C95    C98     1.408   .     A
C96    C768    1.409   .     S
C97    C100    1.404   .     A
C97    C102    1.394   .     A
C97    H128    1.081   .     S
C98    C769    1.408   1_554 S
C99    C101    1.406   .     A
C99    C766    1.417   .     S
C100   C765    1.417   1_554 S
C101   C103    1.396   .     A
C101   H129    1.082   .     S
C102   N135    1.424   .     S
C102   C762    1.409   1_554 S
C103   N136    1.428   .     S
C103   C764    1.408   .     S
C104   H130    1.084   .     S
C104   C152    1.399   .     S
C104   C550    1.389   1_545 S
C105   H131    1.084   .     S
C105   C298    1.389   .     S
C106   N139    1.434   .     S
C106   C326    1.389   .     S
Cu107  N133    2.037   .     S
Cu107  O144    1.961   .     S
Cu107  O141    1.963   .     S
Cu107  O145    1.960   .     S
Cu107  O148    1.965   .     S
Cu108  N134    2.037   .     S
Cu108  O142    1.963   .     S
Cu108  O143    1.961   .     S
Cu108  O146    1.960   .     S
Cu108  O147    1.965   .     S
Cu108  Cu181   2.711   .     S
H113   N135    1.046   .     S
H114   N135    1.046   .     S
H115   N136    1.046   .     S
H116   N136    1.046   .     S
H118   N137    1.042   .     S
H119   N212    1.046   .     S
H121   N138    1.046   .     S
H122   N139    1.046   .     S
H123   N139    1.046   .     S
H124   N140    1.046   .     S
H125   N140    1.046   .     S
H126   C165    1.084   .     S
N137   H191    1.042   .     S
O142   C160    1.299   .     S
O146   C158    1.304   .     S
C149   O217    1.302   .     A
C149   C4      1.449   1_655 S
C149   O67     1.299   1_655 S
C150   C152    1.408   .     A
C150   N214    1.434   .     S
C150   C623    1.389   1_545 S
C151   C180    1.407   .     A
C151   C12     1.449   1_655 S
C151   C31     1.399   1_655 S
C153   H206    1.082   .     S
C153   C155    1.426   .     A
C153   N208    1.370   .     A
C154   C156    1.426   .     A
C154   N207    1.370   .     A
C154   H184    1.082   .     S
C155   N207    1.371   .     A
C155   H185    1.082   .     S
C156   H186    1.082   .     S
C156   N208    1.371   .     A
C157   C159    1.453   .     S
C157   O221    1.299   .     A
C157   O71     1.304   1_655 S
C158   C161    1.453   .     S
C158   O222    1.300   .     A
C159   C166    1.395   .     A
C159   C164    1.394   .     A
C160   O218    1.302   .     A
C161   C167    1.395   .     A
C161   C165    1.393   .     A
C162   C164    1.396   .     A
C162   C170    1.417   .     A
C162   N211    1.436   .     S
C163   N212    1.432   .     S
C163   C172    1.409   .     A
C163   C165    1.399   .     A
C164   H53     1.084   1_655 S
C166   H194    1.083   .     S
C166   C168    1.399   .     A
C167   C169    1.401   .     A
C167   H183    1.083   .     S
C168   C173    1.408   .     A
C168   C170    1.411   .     A
C169   C174    1.407   .     A
C169   C172    1.408   .     A
C170   C842    1.409   .     S
C171   C174    1.404   .     A
C171   C176    1.394   .     A
C171   H202    1.081   .     S
C172   C843    1.408   1_554 S
C173   C175    1.406   .     A
C173   C840    1.417   .     S
C174   C839    1.417   1_554 S
C175   C177    1.396   .     A
C175   H203    1.082   .     S
C176   N209    1.424   .     S
C176   C836    1.409   1_554 S
C177   N210    1.428   .     S
C177   C838    1.408   .     S
C178   H204    1.084   .     S
C178   C4      1.399   1_655 S
C178   C624    1.389   1_545 S
C179   H205    1.084   .     S
C179   C372    1.389   .     S
C180   N213    1.434   .     S
C180   C400    1.389   .     S
Cu181  N207    2.037   .     S
Cu181  O218    1.961   .     S
Cu181  O215    1.963   .     S
Cu181  O219    1.960   .     S
Cu181  O222    1.965   .     S
Cu182  N208    2.037   .     S
Cu182  O216    1.963   .     S
Cu182  O217    1.961   .     S
Cu182  O220    1.960   .     S
Cu182  O221    1.965   .     S
Cu182  Cu33    2.711   1_655 S
H187   N209    1.046   .     S
H188   N209    1.046   .     S
H189   N210    1.046   .     S
H190   N210    1.046   .     S
H192   N211    1.042   .     S
H193   N64     1.046   1_655 S
H195   N212    1.046   .     S
H196   N213    1.046   .     S
H197   N213    1.046   .     S
H198   N214    1.046   .     S
H199   N214    1.046   .     S
H200   C17     1.084   1_655 S
N211   H43     1.042   1_655 S
O216   C12     1.299   1_655 S
O220   C10     1.304   1_655 S
C223   O291    1.302   .     A
C223   C300    1.449   .     S
C223   O363    1.299   .     S
C224   C226    1.408   .     A
C224   N288    1.434   .     S
C225   C254    1.407   .     A
C225   C308    1.449   .     S
C225   C327    1.399   .     S
C226   C371    1.449   1_455 S
C226   C400    1.399   1_455 S
C227   H280    1.082   .     S
C227   C229    1.426   .     A
C227   N282    1.370   .     A
C228   C230    1.426   .     A
C228   N281    1.370   .     A
C228   H258    1.082   .     S
C229   N281    1.371   .     A
C229   H259    1.082   .     S
C230   H260    1.082   .     S
C230   N282    1.371   .     A
C231   C233    1.453   .     S
C231   O295    1.299   .     A
C231   O367    1.304   .     S
C232   C235    1.453   .     S
C232   O296    1.300   .     A
C232   O442    1.304   1_455 S
C233   C240    1.395   .     A
C233   C238    1.394   .     A
C234   O292    1.302   .     A
C234   C373    1.449   1_455 S
C234   O438    1.299   1_455 S
C235   C241    1.395   .     A
C235   C239    1.393   .     A
C236   C238    1.396   .     A
C236   C244    1.417   .     A
C236   N285    1.436   .     S
C237   N286    1.432   .     S
C237   C246    1.409   .     A
C237   C239    1.399   .     A
C238   H349    1.084   .     S
C239   H422    1.084   1_455 S
C240   H268    1.083   .     S
C240   C242    1.399   .     A
C241   C243    1.401   .     A
C241   H257    1.083   .     S
C242   C247    1.408   .     A
C242   C244    1.411   .     A
C243   C248    1.407   .     A
C243   C246    1.408   .     A
C244   C916    1.409   .     S
C245   C248    1.404   .     A
C245   C250    1.394   .     A
C245   H276    1.081   .     S
C246   C917    1.408   1_554 S
C247   C249    1.406   .     A
C247   C914    1.417   .     S
C248   C913    1.417   1_554 S
C249   C251    1.396   .     A
C249   H277    1.082   .     S
C250   N283    1.424   .     S
C250   C910    1.409   1_554 S
C251   N284    1.428   .     S
C251   C912    1.408   .     S
C252   H278    1.084   .     S
C252   C300    1.399   .     S
C253   H279    1.084   .     S
C253   C446    1.389   .     S
C253   C373    1.399   1_455 S
C254   N287    1.434   .     S
C254   C474    1.389   .     S
Cu255  N281    2.037   .     S
Cu255  O292    1.961   .     S
Cu255  O289    1.963   .     S
Cu255  O293    1.960   .     S
Cu255  O296    1.965   .     S
Cu255  Cu404   2.711   1_455 S
Cu256  N282    2.037   .     S
Cu256  O290    1.963   .     S
Cu256  O291    1.961   .     S
Cu256  O294    1.960   .     S
Cu256  O295    1.965   .     S
Cu256  Cu329   2.711   .     S
H261   N283    1.046   .     S
H262   N283    1.046   .     S
H263   N284    1.046   .     S
H264   N284    1.046   .     S
H265   N433    1.042   1_455 S
H266   N285    1.042   .     S
H267   N360    1.046   .     S
H269   N286    1.046   .     S
H270   N287    1.046   .     S
H271   N287    1.046   .     S
H272   N288    1.046   .     S
H273   N288    1.046   .     S
H274   C313    1.084   .     S
H275   C386    1.084   1_455 S
N285   H339    1.042   .     S
N286   H415    1.046   1_455 S
O289   C371    1.299   1_455 S
O290   C308    1.299   .     S
O293   C379    1.304   1_455 S
O294   C306    1.304   .     S
C297   O365    1.302   .     A
C297   C374    1.449   .     S
C297   O437    1.299   .     S
C298   C300    1.408   .     A
C298   N362    1.434   .     S
C299   C328    1.407   .     A
C299   C382    1.449   .     S
C299   C401    1.399   .     S
C301   H354    1.082   .     S
C301   C303    1.426   .     A
C301   N356    1.370   .     A
C302   C304    1.426   .     A
C302   N355    1.370   .     A
C302   H332    1.082   .     S
C303   N355    1.371   .     A
C303   H333    1.082   .     S
C304   H334    1.082   .     S
C304   N356    1.371   .     A
C305   C307    1.453   .     S
C305   O369    1.299   .     A
C305   O441    1.304   .     S
C306   C309    1.453   .     S
C306   O370    1.300   .     A
C307   C314    1.395   .     A
C307   C312    1.394   .     A
C308   O366    1.302   .     A
C309   C315    1.395   .     A
C309   C313    1.393   .     A
C310   C312    1.396   .     A
C310   C318    1.417   .     A
C310   N359    1.436   .     S
C311   N360    1.432   .     S
C311   C320    1.409   .     A
C311   C313    1.399   .     A
C312   H423    1.084   .     S
C314   H342    1.083   .     S
C314   C316    1.399   .     A
C315   C317    1.401   .     A
C315   H331    1.083   .     S
C316   C321    1.408   .     A
C316   C318    1.411   .     A
C317   C322    1.407   .     A
C317   C320    1.408   .     A
C318   C990    1.409   .     S
C319   C322    1.404   .     A
C319   C324    1.394   .     A
C319   H350    1.081   .     S
C320   C991    1.408   1_554 S
C321   C323    1.406   .     A
C321   C988    1.417   .     S
C322   C987    1.417   1_554 S
C323   C325    1.396   .     A
C323   H351    1.082   .     S
C324   N357    1.424   .     S
C324   C984    1.409   1_554 S
C325   N358    1.428   .     S
C325   C986    1.408   .     S
C326   H352    1.084   .     S
C326   C374    1.399   .     S
C327   H353    1.084   .     S
C327   C520    1.389   .     S
C328   N361    1.434   .     S
C328   C548    1.389   .     S
Cu329  N355    2.037   .     S
Cu329  O366    1.961   .     S
Cu329  O363    1.963   .     S
Cu329  O367    1.960   .     S
Cu329  O370    1.965   .     S
Cu330  N356    2.037   .     S
Cu330  O364    1.963   .     S
Cu330  O365    1.961   .     S
Cu330  O368    1.960   .     S
Cu330  O369    1.965   .     S
Cu330  Cu403   2.711   .     S
H335   N357    1.046   .     S
H336   N357    1.046   .     S
H337   N358    1.046   .     S
H338   N358    1.046   .     S
H340   N359    1.042   .     S
H341   N434    1.046   .     S
H343   N360    1.046   .     S
H344   N361    1.046   .     S
H345   N361    1.046   .     S
H346   N362    1.046   .     S
H347   N362    1.046   .     S
H348   C387    1.084   .     S
N359   H413    1.042   .     S
O364   C382    1.299   .     S
O368   C380    1.304   .     S
C371   O439    1.302   .     A
C371   C226    1.449   1_655 S
C371   O289    1.299   1_655 S
C372   C374    1.408   .     A
C372   N436    1.434   .     S
C373   C402    1.407   .     A
C373   C234    1.449   1_655 S
C373   C253    1.399   1_655 S
C375   H428    1.082   .     S
C375   C377    1.426   .     A
C375   N430    1.370   .     A
C376   C378    1.426   .     A
C376   N429    1.370   .     A
C376   H406    1.082   .     S
C377   N429    1.371   .     A
C377   H407    1.082   .     S
C378   H408    1.082   .     S
C378   N430    1.371   .     A
C379   C381    1.453   .     S
C379   O443    1.299   .     A
C379   O293    1.304   1_655 S
C380   C383    1.453   .     S
C380   O444    1.300   .     A
C381   C388    1.395   .     A
C381   C386    1.394   .     A
C382   O440    1.302   .     A
C383   C389    1.395   .     A
C383   C387    1.393   .     A
C384   C386    1.396   .     A
C384   C392    1.417   .     A
C384   N433    1.436   .     S
C385   N434    1.432   .     S
C385   C394    1.409   .     A
C385   C387    1.399   .     A
C386   H275    1.084   1_655 S
C388   H416    1.083   .     S
C388   C390    1.399   .     A
C389   C391    1.401   .     A
C389   H405    1.083   .     S
C390   C395    1.408   .     A
C390   C392    1.411   .     A
C391   C396    1.407   .     A
C391   C394    1.408   .     A
C392   C1064   1.409   .     S
C393   C396    1.404   .     A
C393   C398    1.394   .     A
C393   H424    1.081   .     S
C394   C1065   1.408   1_554 S
C395   C397    1.406   .     A
C395   C1062   1.417   .     S
C396   C1061   1.417   1_554 S
C397   C399    1.396   .     A
C397   H425    1.082   .     S
C398   N431    1.424   .     S
C398   C1058   1.409   1_554 S
C399   N432    1.428   .     S
C399   C1060   1.408   .     S
C400   H426    1.084   .     S
C400   C226    1.399   1_655 S
C401   H427    1.084   .     S
C401   C594    1.389   .     S
C402   N435    1.434   .     S
C402   C622    1.389   .     S
Cu403  N429    2.037   .     S
Cu403  O440    1.961   .     S
Cu403  O437    1.963   .     S
Cu403  O441    1.960   .     S
Cu403  O444    1.965   .     S
Cu404  N430    2.037   .     S
Cu404  O438    1.963   .     S
Cu404  O439    1.961   .     S
Cu404  O442    1.960   .     S
Cu404  O443    1.965   .     S
Cu404  Cu255   2.711   1_655 S
H409   N431    1.046   .     S
H410   N431    1.046   .     S
H411   N432    1.046   .     S
H412   N432    1.046   .     S
H414   N433    1.042   .     S
H415   N286    1.046   1_655 S
H417   N434    1.046   .     S
H418   N435    1.046   .     S
H419   N435    1.046   .     S
H420   N436    1.046   .     S
H421   N436    1.046   .     S
H422   C239    1.084   1_655 S
N433   H265    1.042   1_655 S
O438   C234    1.299   1_655 S
O442   C232    1.304   1_655 S
C445   O513    1.302   .     A
C445   C522    1.449   .     S
C445   O585    1.299   .     S
C446   C448    1.408   .     A
C446   N510    1.434   .     S
C447   C476    1.407   .     A
C447   C530    1.449   .     S
C447   C549    1.399   .     S
C448   C593    1.449   1_455 S
C448   C622    1.399   1_455 S
C449   H502    1.082   .     S
C449   C451    1.426   .     A
C449   N504    1.370   .     A
C450   C452    1.426   .     A
C450   N503    1.370   .     A
C450   H480    1.082   .     S
C451   N503    1.371   .     A
C451   H481    1.082   .     S
C452   H482    1.082   .     S
C452   N504    1.371   .     A
C453   C455    1.453   .     S
C453   O517    1.299   .     A
C453   O589    1.304   .     S
C454   C457    1.453   .     S
C454   O518    1.300   .     A
C454   O664    1.304   1_455 S
C455   C462    1.395   .     A
C455   C460    1.394   .     A
C456   O514    1.302   .     A
C456   C595    1.449   1_455 S
C456   O660    1.299   1_455 S
C457   C463    1.395   .     A
C457   C461    1.393   .     A
C458   C460    1.396   .     A
C458   C466    1.417   .     A
C458   N507    1.436   .     S
C459   N508    1.432   .     S
C459   C468    1.409   .     A
C459   C461    1.399   .     A
C460   H571    1.084   .     S
C461   H644    1.084   1_455 S
C462   H490    1.083   .     S
C462   C464    1.399   .     A
C463   C465    1.401   .     A
C463   H479    1.083   .     S
C464   C469    1.408   .     A
C464   C466    1.411   .     A
C465   C470    1.407   .     A
C465   C468    1.408   .     A
C466   C1138   1.409   .     S
C467   C470    1.404   .     A
C467   C472    1.394   .     A
C467   H498    1.081   .     S
C468   C1139   1.408   1_554 S
C469   C471    1.406   .     A
C469   C1136   1.417   .     S
C470   C1135   1.417   1_554 S
C471   C473    1.396   .     A
C471   H499    1.082   .     S
C472   N505    1.424   .     S
C472   C1132   1.409   1_554 S
C473   N506    1.428   .     S
C473   C1134   1.408   .     S
C474   H500    1.084   .     S
C474   C522    1.399   .     S
C475   H501    1.084   .     S
C475   C2      1.389   1_565 S
C475   C595    1.399   1_455 S
C476   N509    1.434   .     S
C476   C30     1.389   1_565 S
Cu477  N503    2.037   .     S
Cu477  O514    1.961   .     S
Cu477  O511    1.963   .     S
Cu477  O515    1.960   .     S
Cu477  O518    1.965   .     S
Cu477  Cu626   2.711   1_455 S
Cu478  N504    2.037   .     S
Cu478  O512    1.963   .     S
Cu478  O513    1.961   .     S
Cu478  O516    1.960   .     S
Cu478  O517    1.965   .     S
Cu478  Cu551   2.711   .     S
H483   N505    1.046   .     S
H484   N505    1.046   .     S
H485   N506    1.046   .     S
H486   N506    1.046   .     S
H487   N655    1.042   1_455 S
H488   N507    1.042   .     S
H489   N582    1.046   .     S
H491   N508    1.046   .     S
H492   N509    1.046   .     S
H493   N509    1.046   .     S
H494   N510    1.046   .     S
H495   N510    1.046   .     S
H496   C535    1.084   .     S
H497   C608    1.084   1_455 S
N507   H561    1.042   .     S
N508   H637    1.046   1_455 S
O511   C593    1.299   1_455 S
O512   C530    1.299   .     S
O515   C601    1.304   1_455 S
O516   C528    1.304   .     S
C519   O587    1.302   .     A
C519   C596    1.449   .     S
C519   O659    1.299   .     S
C520   C522    1.408   .     A
C520   N584    1.434   .     S
C521   C550    1.407   .     A
C521   C604    1.449   .     S
C521   C623    1.399   .     S
C523   H576    1.082   .     S
C523   C525    1.426   .     A
C523   N578    1.370   .     A
C524   C526    1.426   .     A
C524   N577    1.370   .     A
C524   H554    1.082   .     S
C525   N577    1.371   .     A
C525   H555    1.082   .     S
C526   H556    1.082   .     S
C526   N578    1.371   .     A
C527   C529    1.453   .     S
C527   O591    1.299   .     A
C527   O663    1.304   .     S
C528   C531    1.453   .     S
C528   O592    1.300   .     A
C529   C536    1.395   .     A
C529   C534    1.394   .     A
C530   O588    1.302   .     A
C531   C537    1.395   .     A
C531   C535    1.393   .     A
C532   C534    1.396   .     A
C532   C540    1.417   .     A
C532   N581    1.436   .     S
C533   N582    1.432   .     S
C533   C542    1.409   .     A
C533   C535    1.399   .     A
C534   H645    1.084   .     S
C536   H564    1.083   .     S
C536   C538    1.399   .     A
C537   C539    1.401   .     A
C537   H553    1.083   .     S
C538   C543    1.408   .     A
C538   C540    1.411   .     A
C539   C544    1.407   .     A
C539   C542    1.408   .     A
C540   C1212   1.409   .     S
C541   C544    1.404   .     A
C541   C546    1.394   .     A
C541   H572    1.081   .     S
C542   C1213   1.408   1_554 S
C543   C545    1.406   .     A
C543   C1210   1.417   .     S
C544   C1209   1.417   1_554 S
C545   C547    1.396   .     A
C545   H573    1.082   .     S
C546   N579    1.424   .     S
C546   C1206   1.409   1_554 S
C547   N580    1.428   .     S
C547   C1208   1.408   .     S
C548   H574    1.084   .     S
C548   C596    1.399   .     S
C549   H575    1.084   .     S
C549   C76     1.389   1_565 S
C550   N583    1.434   .     S
C550   C104    1.389   1_565 S
Cu551  N577    2.037   .     S
Cu551  O588    1.961   .     S
Cu551  O585    1.963   .     S
Cu551  O589    1.960   .     S
Cu551  O592    1.965   .     S
Cu552  N578    2.037   .     S
Cu552  O586    1.963   .     S
Cu552  O587    1.961   .     S
Cu552  O590    1.960   .     S
Cu552  O591    1.965   .     S
Cu552  Cu625   2.711   .     S
H557   N579    1.046   .     S
H558   N579    1.046   .     S
H559   N580    1.046   .     S
H560   N580    1.046   .     S
H562   N581    1.042   .     S
H563   N656    1.046   .     S
H565   N582    1.046   .     S
H566   N583    1.046   .     S
H567   N583    1.046   .     S
H568   N584    1.046   .     S
H569   N584    1.046   .     S
H570   C609    1.084   .     S
N581   H635    1.042   .     S
O586   C604    1.299   .     S
O590   C602    1.304   .     S
C593   O661    1.302   .     A
C593   C448    1.449   1_655 S
C593   O511    1.299   1_655 S
C594   C596    1.408   .     A
C594   N658    1.434   .     S
C595   C624    1.407   .     A
C595   C456    1.449   1_655 S
C595   C475    1.399   1_655 S
C597   H650    1.082   .     S
C597   C599    1.426   .     A
C597   N652    1.370   .     A
C598   C600    1.426   .     A
C598   N651    1.370   .     A
C598   H628    1.082   .     S
C599   N651    1.371   .     A
C599   H629    1.082   .     S
C600   H630    1.082   .     S
C600   N652    1.371   .     A
C601   C603    1.453   .     S
C601   O665    1.299   .     A
C601   O515    1.304   1_655 S
C602   C605    1.453   .     S
C602   O666    1.300   .     A
C603   C610    1.395   .     A
C603   C608    1.394   .     A
C604   O662    1.302   .     A
C605   C611    1.395   .     A
C605   C609    1.393   .     A
C606   C608    1.396   .     A
C606   C614    1.417   .     A
C606   N655    1.436   .     S
C607   N656    1.432   .     S
C607   C616    1.409   .     A
C607   C609    1.399   .     A
C608   H497    1.084   1_655 S
C610   H638    1.083   .     S
C610   C612    1.399   .     A
C611   C613    1.401   .     A
C611   H627    1.083   .     S
C612   C617    1.408   .     A
C612   C614    1.411   .     A
C613   C618    1.407   .     A
C613   C616    1.408   .     A
C614   C1286   1.409   .     S
C615   C618    1.404   .     A
C615   C620    1.394   .     A
C615   H646    1.081   .     S
C616   C1287   1.408   1_554 S
C617   C619    1.406   .     A
C617   C1284   1.417   .     S
C618   C1283   1.417   1_554 S
C619   C621    1.396   .     A
C619   H647    1.082   .     S
C620   N653    1.424   .     S
C620   C1280   1.409   1_554 S
C621   N654    1.428   .     S
C621   C1282   1.408   .     S
C622   H648    1.084   .     S
C622   C448    1.399   1_655 S
C623   H649    1.084   .     S
C623   C150    1.389   1_565 S
C624   N657    1.434   .     S
C624   C178    1.389   1_565 S
Cu625  N651    2.037   .     S
Cu625  O662    1.961   .     S
Cu625  O659    1.963   .     S
Cu625  O663    1.960   .     S
Cu625  O666    1.965   .     S
Cu626  N652    2.037   .     S
Cu626  O660    1.963   .     S
Cu626  O661    1.961   .     S
Cu626  O664    1.960   .     S
Cu626  O665    1.965   .     S
Cu626  Cu477   2.711   1_655 S
H631   N653    1.046   .     S
H632   N653    1.046   .     S
H633   N654    1.046   .     S
H634   N654    1.046   .     S
H636   N655    1.042   .     S
H637   N508    1.046   1_655 S
H639   N656    1.046   .     S
H640   N657    1.046   .     S
H641   N657    1.046   .     S
H642   N658    1.046   .     S
H643   N658    1.046   .     S
H644   C461    1.084   1_655 S
N655   H487    1.042   1_655 S
O660   C456    1.299   1_655 S
O664   C454    1.304   1_655 S
C667   O735    1.302   .     A
C667   C744    1.449   .     S
C667   O807    1.299   .     S
C668   C670    1.408   .     A
C668   N732    1.434   .     S
C668   C1141   1.389   1_545 S
C669   C698    1.407   .     A
C669   C752    1.449   .     S
C669   C771    1.399   .     S
C670   C815    1.449   1_455 S
C670   C844    1.399   1_455 S
C671   H724    1.082   .     S
C671   C673    1.426   .     A
C671   N726    1.370   .     A
C672   C674    1.426   .     A
C672   N725    1.370   .     A
C672   H702    1.082   .     S
C673   N725    1.371   .     A
C673   H703    1.082   .     S
C674   H704    1.082   .     S
C674   N726    1.371   .     A
C675   C677    1.453   .     S
C675   O739    1.299   .     A
C675   O811    1.304   .     S
C676   C679    1.453   .     S
C676   O740    1.300   .     A
C676   O886    1.304   1_455 S
C677   C684    1.395   .     A
C677   C682    1.394   .     A
C678   O736    1.302   .     A
C678   C817    1.449   1_455 S
C678   O882    1.299   1_455 S
C679   C685    1.395   .     A
C679   C683    1.393   .     A
C680   C682    1.396   .     A
C680   C688    1.417   .     A
C680   N729    1.436   .     S
C681   N730    1.432   .     S
C681   C690    1.409   .     A
C681   C683    1.399   .     A
C682   H793    1.084   .     S
C683   H866    1.084   1_455 S
C684   H712    1.083   .     S
C684   C686    1.399   .     A
C685   C687    1.401   .     A
C685   H701    1.083   .     S
C686   C691    1.408   .     A
C686   C688    1.411   .     A
C687   C692    1.407   .     A
C687   C690    1.408   .     A
C688   C28     1.409   1_556 S
C689   C692    1.404   .     A
C689   C694    1.394   .     A
C689   H720    1.081   .     S
C691   C693    1.406   .     A
C691   C26     1.417   1_556 S
C693   C695    1.396   .     A
C693   H721    1.082   .     S
C694   N727    1.424   .     S
C695   N728    1.428   .     S
C695   C24     1.408   1_556 S
C696   H722    1.084   .     S
C696   C744    1.399   .     S
C696   C1142   1.389   1_545 S
C697   H723    1.084   .     S
C697   C890    1.389   .     S
C697   C817    1.399   1_455 S
C698   N731    1.434   .     S
C698   C918    1.389   .     S
Cu699  N725    2.037   .     S
Cu699  O736    1.961   .     S
Cu699  O733    1.963   .     S
Cu699  O737    1.960   .     S
Cu699  O740    1.965   .     S
Cu699  Cu848   2.711   1_455 S
Cu700  N726    2.037   .     S
Cu700  O734    1.963   .     S
Cu700  O735    1.961   .     S
Cu700  O738    1.960   .     S
Cu700  O739    1.965   .     S
Cu700  Cu773   2.711   .     S
H705   N727    1.046   .     S
H706   N727    1.046   .     S
H707   N728    1.046   .     S
H708   N728    1.046   .     S
H709   N877    1.042   1_455 S
H710   N729    1.042   .     S
H711   N804    1.046   .     S
H713   N730    1.046   .     S
H714   N731    1.046   .     S
H715   N731    1.046   .     S
H716   N732    1.046   .     S
H717   N732    1.046   .     S
H718   C757    1.084   .     S
H719   C830    1.084   1_455 S
N729   H783    1.042   .     S
N730   H859    1.046   1_455 S
O733   C815    1.299   1_455 S
O734   C752    1.299   .     S
O737   C823    1.304   1_455 S
O738   C750    1.304   .     S
C741   O809    1.302   .     A
C741   C818    1.449   .     S
C741   O881    1.299   .     S
C742   C744    1.408   .     A
C742   N806    1.434   .     S
C742   C1215   1.389   1_545 S
C743   C772    1.407   .     A
C743   C826    1.449   .     S
C743   C845    1.399   .     S
C745   H798    1.082   .     S
C745   C747    1.426   .     A
C745   N800    1.370   .     A
C746   C748    1.426   .     A
C746   N799    1.370   .     A
C746   H776    1.082   .     S
C747   N799    1.371   .     A
C747   H777    1.082   .     S
C748   H778    1.082   .     S
C748   N800    1.371   .     A
C749   C751    1.453   .     S
C749   O813    1.299   .     A
C749   O885    1.304   .     S
C750   C753    1.453   .     S
C750   O814    1.300   .     A
C751   C758    1.395   .     A
C751   C756    1.394   .     A
C752   O810    1.302   .     A
C753   C759    1.395   .     A
C753   C757    1.393   .     A
C754   C756    1.396   .     A
C754   C762    1.417   .     A
C754   N803    1.436   .     S
C755   N804    1.432   .     S
C755   C764    1.409   .     A
C755   C757    1.399   .     A
C756   H867    1.084   .     S
C758   H786    1.083   .     S
C758   C760    1.399   .     A
C759   C761    1.401   .     A
C759   H775    1.083   .     S
C760   C765    1.408   .     A
C760   C762    1.411   .     A
C761   C766    1.407   .     A
C761   C764    1.408   .     A
C762   C102    1.409   1_556 S
C763   C766    1.404   .     A
C763   C768    1.394   .     A
C763   H794    1.081   .     S
C765   C767    1.406   .     A
C765   C100    1.417   1_556 S
C767   C769    1.396   .     A
C767   H795    1.082   .     S
C768   N801    1.424   .     S
C769   N802    1.428   .     S
C769   C98     1.408   1_556 S
C770   H796    1.084   .     S
C770   C818    1.399   .     S
C770   C1216   1.389   1_545 S
C771   H797    1.084   .     S
C771   C964    1.389   .     S
C772   N805    1.434   .     S
C772   C992    1.389   .     S
Cu773  N799    2.037   .     S
Cu773  O810    1.961   .     S
Cu773  O807    1.963   .     S
Cu773  O811    1.960   .     S
Cu773  O814    1.965   .     S
Cu774  N800    2.037   .     S
Cu774  O808    1.963   .     S
Cu774  O809    1.961   .     S
Cu774  O812    1.960   .     S
Cu774  O813    1.965   .     S
Cu774  Cu847   2.711   .     S
H779   N801    1.046   .     S
H780   N801    1.046   .     S
H781   N802    1.046   .     S
H782   N802    1.046   .     S
H784   N803    1.042   .     S
H785   N878    1.046   .     S
H787   N804    1.046   .     S
H788   N805    1.046   .     S
H789   N805    1.046   .     S
H790   N806    1.046   .     S
H791   N806    1.046   .     S
H792   C831    1.084   .     S
N803   H857    1.042   .     S
O808   C826    1.299   .     S
O812   C824    1.304   .     S
C815   O883    1.302   .     A
C815   C670    1.449   1_655 S
C815   O733    1.299   1_655 S
C816   C818    1.408   .     A
C816   N880    1.434   .     S
C816   C1289   1.389   1_545 S
C817   C846    1.407   .     A
C817   C678    1.449   1_655 S
C817   C697    1.399   1_655 S
C819   H872    1.082   .     S
C819   C821    1.426   .     A
C819   N874    1.370   .     A
C820   C822    1.426   .     A
C820   N873    1.370   .     A
C820   H850    1.082   .     S
C821   N873    1.371   .     A
C821   H851    1.082   .     S
C822   H852    1.082   .     S
C822   N874    1.371   .     A
C823   C825    1.453   .     S
C823   O887    1.299   .     A
C823   O737    1.304   1_655 S
C824   C827    1.453   .     S
C824   O888    1.300   .     A
C825   C832    1.395   .     A
C825   C830    1.394   .     A
C826   O884    1.302   .     A
C827   C833    1.395   .     A
C827   C831    1.393   .     A
C828   C830    1.396   .     A
C828   C836    1.417   .     A
C828   N877    1.436   .     S
C829   N878    1.432   .     S
C829   C838    1.409   .     A
C829   C831    1.399   .     A
C830   H719    1.084   1_655 S
C832   H860    1.083   .     S
C832   C834    1.399   .     A
C833   C835    1.401   .     A
C833   H849    1.083   .     S
C834   C839    1.408   .     A
C834   C836    1.411   .     A
C835   C840    1.407   .     A
C835   C838    1.408   .     A
C836   C176    1.409   1_556 S
C837   C840    1.404   .     A
C837   C842    1.394   .     A
C837   H868    1.081   .     S
C839   C841    1.406   .     A
C839   C174    1.417   1_556 S
C841   C843    1.396   .     A
C841   H869    1.082   .     S
C842   N875    1.424   .     S
C843   N876    1.428   .     S
C843   C172    1.408   1_556 S
C844   H870    1.084   .     S
C844   C670    1.399   1_655 S
C844   C1290   1.389   1_545 S
C845   H871    1.084   .     S
C845   C1038   1.389   .     S
C846   N879    1.434   .     S
C846   C1066   1.389   .     S
Cu847  N873    2.037   .     S
Cu847  O884    1.961   .     S
Cu847  O881    1.963   .     S
Cu847  O885    1.960   .     S
Cu847  O888    1.965   .     S
Cu848  N874    2.037   .     S
Cu848  O882    1.963   .     S
Cu848  O883    1.961   .     S
Cu848  O886    1.960   .     S
Cu848  O887    1.965   .     S
Cu848  Cu699   2.711   1_655 S
H853   N875    1.046   .     S
H854   N875    1.046   .     S
H855   N876    1.046   .     S
H856   N876    1.046   .     S
H858   N877    1.042   .     S
H859   N730    1.046   1_655 S
H861   N878    1.046   .     S
H862   N879    1.046   .     S
H863   N879    1.046   .     S
H864   N880    1.046   .     S
H865   N880    1.046   .     S
H866   C683    1.084   1_655 S
N877   H709    1.042   1_655 S
O882   C678    1.299   1_655 S
O886   C676    1.304   1_655 S
C889   O957    1.302   .     A
C889   C966    1.449   .     S
C889   O1029   1.299   .     S
C890   C892    1.408   .     A
C890   N954    1.434   .     S
C891   C920    1.407   .     A
C891   C974    1.449   .     S
C891   C993    1.399   .     S
C892   C1037   1.449   1_455 S
C892   C1066   1.399   1_455 S
C893   H946    1.082   .     S
C893   C895    1.426   .     A
C893   N948    1.370   .     A
C894   C896    1.426   .     A
C894   N947    1.370   .     A
C894   H924    1.082   .     S
C895   N947    1.371   .     A
C895   H925    1.082   .     S
C896   H926    1.082   .     S
C896   N948    1.371   .     A
C897   C899    1.453   .     S
C897   O961    1.299   .     A
C897   O1033   1.304   .     S
C898   C901    1.453   .     S
C898   O962    1.300   .     A
C898   O1108   1.304   1_455 S
C899   C906    1.395   .     A
C899   C904    1.394   .     A
C900   O958    1.302   .     A
C900   C1039   1.449   1_455 S
C900   O1104   1.299   1_455 S
C901   C907    1.395   .     A
C901   C905    1.393   .     A
C902   C904    1.396   .     A
C902   C910    1.417   .     A
C902   N951    1.436   .     S
C903   N952    1.432   .     S
C903   C912    1.409   .     A
C903   C905    1.399   .     A
C904   H1015   1.084   .     S
C905   H1088   1.084   1_455 S
C906   H934    1.083   .     S
C906   C908    1.399   .     A
C907   C909    1.401   .     A
C907   H923    1.083   .     S
C908   C913    1.408   .     A
C908   C910    1.411   .     A
C909   C914    1.407   .     A
C909   C912    1.408   .     A
C910   C250    1.409   1_556 S
C911   C914    1.404   .     A
C911   C916    1.394   .     A
C911   H942    1.081   .     S
C913   C915    1.406   .     A
C913   C248    1.417   1_556 S
C915   C917    1.396   .     A
C915   H943    1.082   .     S
C916   N949    1.424   .     S
C917   N950    1.428   .     S
C917   C246    1.408   1_556 S
C918   H944    1.084   .     S
C918   C966    1.399   .     S
C919   H945    1.084   .     S
C919   C1112   1.389   .     S
C919   C1039   1.399   1_455 S
C920   N953    1.434   .     S
C920   C1140   1.389   .     S
Cu921  N947    2.037   .     S
Cu921  O958    1.961   .     S
Cu921  O955    1.963   .     S
Cu921  O959    1.960   .     S
Cu921  O962    1.965   .     S
Cu921  Cu1070  2.711   1_455 S
Cu922  N948    2.037   .     S
Cu922  O956    1.963   .     S
Cu922  O957    1.961   .     S
Cu922  O960    1.960   .     S
Cu922  O961    1.965   .     S
Cu922  Cu995   2.711   .     S
H927   N949    1.046   .     S
H928   N949    1.046   .     S
H929   N950    1.046   .     S
H930   N950    1.046   .     S
H931   N1099   1.042   1_455 S
H932   N951    1.042   .     S
H933   N1026   1.046   .     S
H935   N952    1.046   .     S
H936   N953    1.046   .     S
H937   N953    1.046   .     S
H938   N954    1.046   .     S
H939   N954    1.046   .     S
H940   C979    1.084   .     S
H941   C1052   1.084   1_455 S
N951   H1005   1.042   .     S
N952   H1081   1.046   1_455 S
O955   C1037   1.299   1_455 S
O956   C974    1.299   .     S
O959   C1045   1.304   1_455 S
O960   C972    1.304   .     S
C963   O1031   1.302   .     A
C963   C1040   1.449   .     S
C963   O1103   1.299   .     S
C964   C966    1.408   .     A
C964   N1028   1.434   .     S
C965   C994    1.407   .     A
C965   C1048   1.449   .     S
C965   C1067   1.399   .     S
C967   H1020   1.082   .     S
C967   C969    1.426   .     A
C967   N1022   1.370   .     A
C968   C970    1.426   .     A
C968   N1021   1.370   .     A
C968   H998    1.082   .     S
C969   N1021   1.371   .     A
C969   H999    1.082   .     S
C970   H1000   1.082   .     S
C970   N1022   1.371   .     A
C971   C973    1.453   .     S
C971   O1035   1.299   .     A
C971   O1107   1.304   .     S
C972   C975    1.453   .     S
C972   O1036   1.300   .     A
C973   C980    1.395   .     A
C973   C978    1.394   .     A
C974   O1032   1.302   .     A
C975   C981    1.395   .     A
C975   C979    1.393   .     A
C976   C978    1.396   .     A
C976   C984    1.417   .     A
C976   N1025   1.436   .     S
C977   N1026   1.432   .     S
C977   C986    1.409   .     A
C977   C979    1.399   .     A
C978   H1089   1.084   .     S
C980   H1008   1.083   .     S
C980   C982    1.399   .     A
C981   C983    1.401   .     A
C981   H997    1.083   .     S
C982   C987    1.408   .     A
C982   C984    1.411   .     A
C983   C988    1.407   .     A
C983   C986    1.408   .     A
C984   C324    1.409   1_556 S
C985   C988    1.404   .     A
C985   C990    1.394   .     A
C985   H1016   1.081   .     S
C987   C989    1.406   .     A
C987   C322    1.417   1_556 S
C989   C991    1.396   .     A
C989   H1017   1.082   .     S
C990   N1023   1.424   .     S
C991   N1024   1.428   .     S
C991   C320    1.408   1_556 S
C992   H1018   1.084   .     S
C992   C1040   1.399   .     S
C993   H1019   1.084   .     S
C993   C1186   1.389   .     S
C994   N1027   1.434   .     S
C994   C1214   1.389   .     S
Cu995  N1021   2.037   .     S
Cu995  O1032   1.961   .     S
Cu995  O1029   1.963   .     S
Cu995  O1033   1.960   .     S
Cu995  O1036   1.965   .     S
Cu996  N1022   2.037   .     S
Cu996  O1030   1.963   .     S
Cu996  O1031   1.961   .     S
Cu996  O1034   1.960   .     S
Cu996  O1035   1.965   .     S
Cu996  Cu1069  2.711   .     S
H1001  N1023   1.046   .     S
H1002  N1023   1.046   .     S
H1003  N1024   1.046   .     S
H1004  N1024   1.046   .     S
H1006  N1025   1.042   .     S
H1007  N1100   1.046   .     S
H1009  N1026   1.046   .     S
H1010  N1027   1.046   .     S
H1011  N1027   1.046   .     S
H1012  N1028   1.046   .     S
H1013  N1028   1.046   .     S
H1014  C1053   1.084   .     S
N1025  H1079   1.042   .     S
O1030  C1048   1.299   .     S
O1034  C1046   1.304   .     S
C1037  O1105   1.302   .     A
C1037  C892    1.449   1_655 S
C1037  O955    1.299   1_655 S
C1038  C1040   1.408   .     A
C1038  N1102   1.434   .     S
C1039  C1068   1.407   .     A
C1039  C900    1.449   1_655 S
C1039  C919    1.399   1_655 S
C1041  H1094   1.082   .     S
C1041  C1043   1.426   .     A
C1041  N1096   1.370   .     A
C1042  C1044   1.426   .     A
C1042  N1095   1.370   .     A
C1042  H1072   1.082   .     S
C1043  N1095   1.371   .     A
C1043  H1073   1.082   .     S
C1044  H1074   1.082   .     S
C1044  N1096   1.371   .     A
C1045  C1047   1.453   .     S
C1045  O1109   1.299   .     A
C1045  O959    1.304   1_655 S
C1046  C1049   1.453   .     S
C1046  O1110   1.300   .     A
C1047  C1054   1.395   .     A
C1047  C1052   1.394   .     A
C1048  O1106   1.302   .     A
C1049  C1055   1.395   .     A
C1049  C1053   1.393   .     A
C1050  C1052   1.396   .     A
C1050  C1058   1.417   .     A
C1050  N1099   1.436   .     S
C1051  N1100   1.432   .     S
C1051  C1060   1.409   .     A
C1051  C1053   1.399   .     A
C1052  H941    1.084   1_655 S
C1054  H1082   1.083   .     S
C1054  C1056   1.399   .     A
C1055  C1057   1.401   .     A
C1055  H1071   1.083   .     S
C1056  C1061   1.408   .     A
C1056  C1058   1.411   .     A
C1057  C1062   1.407   .     A
C1057  C1060   1.408   .     A
C1058  C398    1.409   1_556 S
C1059  C1062   1.404   .     A
C1059  C1064   1.394   .     A
C1059  H1090   1.081   .     S
C1061  C1063   1.406   .     A
C1061  C396    1.417   1_556 S
C1063  C1065   1.396   .     A
C1063  H1091   1.082   .     S
C1064  N1097   1.424   .     S
C1065  N1098   1.428   .     S
C1065  C394    1.408   1_556 S
C1066  H1092   1.084   .     S
C1066  C892    1.399   1_655 S
C1067  H1093   1.084   .     S
C1067  C1260   1.389   .     S
C1068  N1101   1.434   .     S
C1068  C1288   1.389   .     S
Cu1069 N1095   2.037   .     S
Cu1069 O1106   1.961   .     S
Cu1069 O1103   1.963   .     S
Cu1069 O1107   1.960   .     S
Cu1069 O1110   1.965   .     S
Cu1070 N1096   2.037   .     S
Cu1070 O1104   1.963   .     S
Cu1070 O1105   1.961   .     S
Cu1070 O1108   1.960   .     S
Cu1070 O1109   1.965   .     S
Cu1070 Cu921   2.711   1_655 S
H1075  N1097   1.046   .     S
H1076  N1097   1.046   .     S
H1077  N1098   1.046   .     S
H1078  N1098   1.046   .     S
H1080  N1099   1.042   .     S
H1081  N952    1.046   1_655 S
H1083  N1100   1.046   .     S
H1084  N1101   1.046   .     S
H1085  N1101   1.046   .     S
H1086  N1102   1.046   .     S
H1087  N1102   1.046   .     S
H1088  C905    1.084   1_655 S
N1099  H931    1.042   1_655 S
O1104  C900    1.299   1_655 S
O1108  C898    1.304   1_655 S
C1111  O1179   1.302   .     A
C1111  C1188   1.449   .     S
C1111  O1251   1.299   .     S
C1112  C1114   1.408   .     A
C1112  N1176   1.434   .     S
C1113  C1142   1.407   .     A
C1113  C1196   1.449   .     S
C1113  C1215   1.399   .     S
C1114  C1259   1.449   1_455 S
C1114  C1288   1.399   1_455 S
C1115  H1168   1.082   .     S
C1115  C1117   1.426   .     A
C1115  N1170   1.370   .     A
C1116  C1118   1.426   .     A
C1116  N1169   1.370   .     A
C1116  H1146   1.082   .     S
C1117  N1169   1.371   .     A
C1117  H1147   1.082   .     S
C1118  H1148   1.082   .     S
C1118  N1170   1.371   .     A
C1119  C1121   1.453   .     S
C1119  O1183   1.299   .     A
C1119  O1255   1.304   .     S
C1120  C1123   1.453   .     S
C1120  O1184   1.300   .     A
C1120  O1330   1.304   1_455 S
C1121  C1128   1.395   .     A
C1121  C1126   1.394   .     A
C1122  O1180   1.302   .     A
C1122  C1261   1.449   1_455 S
C1122  O1326   1.299   1_455 S
C1123  C1129   1.395   .     A
C1123  C1127   1.393   .     A
C1124  C1126   1.396   .     A
C1124  C1132   1.417   .     A
C1124  N1173   1.436   .     S
C1125  N1174   1.432   .     S
C1125  C1134   1.409   .     A
C1125  C1127   1.399   .     A
C1126  H1237   1.084   .     S
C1127  H1310   1.084   1_455 S
C1128  H1156   1.083   .     S
C1128  C1130   1.399   .     A
C1129  C1131   1.401   .     A
C1129  H1145   1.083   .     S
C1130  C1135   1.408   .     A
C1130  C1132   1.411   .     A
C1131  C1136   1.407   .     A
C1131  C1134   1.408   .     A
C1132  C472    1.409   1_556 S
C1133  C1136   1.404   .     A
C1133  C1138   1.394   .     A
C1133  H1164   1.081   .     S
C1135  C1137   1.406   .     A
C1135  C470    1.417   1_556 S
C1137  C1139   1.396   .     A
C1137  H1165   1.082   .     S
C1138  N1171   1.424   .     S
C1139  N1172   1.428   .     S
C1139  C468    1.408   1_556 S
C1140  H1166   1.084   .     S
C1140  C1188   1.399   .     S
C1141  H1167   1.084   .     S
C1141  C668    1.389   1_565 S
C1141  C1261   1.399   1_455 S
C1142  N1175   1.434   .     S
C1142  C696    1.389   1_565 S
Cu1143 N1169   2.037   .     S
Cu1143 O1180   1.961   .     S
Cu1143 O1177   1.963   .     S
Cu1143 O1181   1.960   .     S
Cu1143 O1184   1.965   .     S
Cu1143 Cu1292  2.711   1_455 S
Cu1144 N1170   2.037   .     S
Cu1144 O1178   1.963   .     S
Cu1144 O1179   1.961   .     S
Cu1144 O1182   1.960   .     S
Cu1144 O1183   1.965   .     S
Cu1144 Cu1217  2.711   .     S
H1149  N1171   1.046   .     S
H1150  N1171   1.046   .     S
H1151  N1172   1.046   .     S
H1152  N1172   1.046   .     S
H1153  N1321   1.042   1_455 S
H1154  N1173   1.042   .     S
H1155  N1248   1.046   .     S
H1157  N1174   1.046   .     S
H1158  N1175   1.046   .     S
H1159  N1175   1.046   .     S
H1160  N1176   1.046   .     S
H1161  N1176   1.046   .     S
H1162  C1201   1.084   .     S
H1163  C1274   1.084   1_455 S
N1173  H1227   1.042   .     S
N1174  H1303   1.046   1_455 S
O1177  C1259   1.299   1_455 S
O1178  C1196   1.299   .     S
O1181  C1267   1.304   1_455 S
O1182  C1194   1.304   .     S
C1185  O1253   1.302   .     A
C1185  C1262   1.449   .     S
C1185  O1325   1.299   .     S
C1186  C1188   1.408   .     A
C1186  N1250   1.434   .     S
C1187  C1216   1.407   .     A
C1187  C1270   1.449   .     S
C1187  C1289   1.399   .     S
C1189  H1242   1.082   .     S
C1189  C1191   1.426   .     A
C1189  N1244   1.370   .     A
C1190  C1192   1.426   .     A
C1190  N1243   1.370   .     A
C1190  H1220   1.082   .     S
C1191  N1243   1.371   .     A
C1191  H1221   1.082   .     S
C1192  H1222   1.082   .     S
C1192  N1244   1.371   .     A
C1193  C1195   1.453   .     S
C1193  O1257   1.299   .     A
C1193  O1329   1.304   .     S
C1194  C1197   1.453   .     S
C1194  O1258   1.300   .     A
C1195  C1202   1.395   .     A
C1195  C1200   1.394   .     A
C1196  O1254   1.302   .     A
C1197  C1203   1.395   .     A
C1197  C1201   1.393   .     A
C1198  C1200   1.396   .     A
C1198  C1206   1.417   .     A
C1198  N1247   1.436   .     S
C1199  N1248   1.432   .     S
C1199  C1208   1.409   .     A
C1199  C1201   1.399   .     A
C1200  H1311   1.084   .     S
C1202  H1230   1.083   .     S
C1202  C1204   1.399   .     A
C1203  C1205   1.401   .     A
C1203  H1219   1.083   .     S
C1204  C1209   1.408   .     A
C1204  C1206   1.411   .     A
C1205  C1210   1.407   .     A
C1205  C1208   1.408   .     A
C1206  C546    1.409   1_556 S
C1207  C1210   1.404   .     A
C1207  C1212   1.394   .     A
C1207  H1238   1.081   .     S
C1209  C1211   1.406   .     A
C1209  C544    1.417   1_556 S
C1211  C1213   1.396   .     A
C1211  H1239   1.082   .     S
C1212  N1245   1.424   .     S
C1213  N1246   1.428   .     S
C1213  C542    1.408   1_556 S
C1214  H1240   1.084   .     S
C1214  C1262   1.399   .     S
C1215  H1241   1.084   .     S
C1215  C742    1.389   1_565 S
C1216  N1249   1.434   .     S
C1216  C770    1.389   1_565 S
Cu1217 N1243   2.037   .     S
Cu1217 O1254   1.961   .     S
Cu1217 O1251   1.963   .     S
Cu1217 O1255   1.960   .     S
Cu1217 O1258   1.965   .     S
Cu1218 N1244   2.037   .     S
Cu1218 O1252   1.963   .     S
Cu1218 O1253   1.961   .     S
Cu1218 O1256   1.960   .     S
Cu1218 O1257   1.965   .     S
Cu1218 Cu1291  2.711   .     S
H1223  N1245   1.046   .     S
H1224  N1245   1.046   .     S
H1225  N1246   1.046   .     S
H1226  N1246   1.046   .     S
H1228  N1247   1.042   .     S
H1229  N1322   1.046   .     S
H1231  N1248   1.046   .     S
H1232  N1249   1.046   .     S
H1233  N1249   1.046   .     S
H1234  N1250   1.046   .     S
H1235  N1250   1.046   .     S
H1236  C1275   1.084   .     S
N1247  H1301   1.042   .     S
O1252  C1270   1.299   .     S
O1256  C1268   1.304   .     S
C1259  O1327   1.302   .     A
C1259  C1114   1.449   1_655 S
C1259  O1177   1.299   1_655 S
C1260  C1262   1.408   .     A
C1260  N1324   1.434   .     S
C1261  C1290   1.407   .     A
C1261  C1122   1.449   1_655 S
C1261  C1141   1.399   1_655 S
C1263  H1316   1.082   .     S
C1263  C1265   1.426   .     A
C1263  N1318   1.370   .     A
C1264  C1266   1.426   .     A
C1264  N1317   1.370   .     A
C1264  H1294   1.082   .     S
C1265  N1317   1.371   .     A
C1265  H1295   1.082   .     S
C1266  H1296   1.082   .     S
C1266  N1318   1.371   .     A
C1267  C1269   1.453   .     S
C1267  O1331   1.299   .     A
C1267  O1181   1.304   1_655 S
C1268  C1271   1.453   .     S
C1268  O1332   1.300   .     A
C1269  C1276   1.395   .     A
C1269  C1274   1.394   .     A
C1270  O1328   1.302   .     A
C1271  C1277   1.395   .     A
C1271  C1275   1.393   .     A
C1272  C1274   1.396   .     A
C1272  C1280   1.417   .     A
C1272  N1321   1.436   .     S
C1273  N1322   1.432   .     S
C1273  C1282   1.409   .     A
C1273  C1275   1.399   .     A
C1274  H1163   1.084   1_655 S
C1276  H1304   1.083   .     S
C1276  C1278   1.399   .     A
C1277  C1279   1.401   .     A
C1277  H1293   1.083   .     S
C1278  C1283   1.408   .     A
C1278  C1280   1.411   .     A
C1279  C1284   1.407   .     A
C1279  C1282   1.408   .     A
C1280  C620    1.409   1_556 S
C1281  C1284   1.404   .     A
C1281  C1286   1.394   .     A
C1281  H1312   1.081   .     S
C1283  C1285   1.406   .     A
C1283  C618    1.417   1_556 S
C1285  C1287   1.396   .     A
C1285  H1313   1.082   .     S
C1286  N1319   1.424   .     S
C1287  N1320   1.428   .     S
C1287  C616    1.408   1_556 S
C1288  H1314   1.084   .     S
C1288  C1114   1.399   1_655 S
C1289  H1315   1.084   .     S
C1289  C816    1.389   1_565 S
C1290  N1323   1.434   .     S
C1290  C844    1.389   1_565 S
Cu1291 N1317   2.037   .     S
Cu1291 O1328   1.961   .     S
Cu1291 O1325   1.963   .     S
Cu1291 O1329   1.960   .     S
Cu1291 O1332   1.965   .     S
Cu1292 N1318   2.037   .     S
Cu1292 O1326   1.963   .     S
Cu1292 O1327   1.961   .     S
Cu1292 O1330   1.960   .     S
Cu1292 O1331   1.965   .     S
Cu1292 Cu1143  2.711   1_655 S
H1297  N1319   1.046   .     S
H1298  N1319   1.046   .     S
H1299  N1320   1.046   .     S
H1300  N1320   1.046   .     S
H1302  N1321   1.042   .     S
H1303  N1174   1.046   1_655 S
H1305  N1322   1.046   .     S
H1306  N1323   1.046   .     S
H1307  N1323   1.046   .     S
H1308  N1324   1.046   .     S
H1309  N1324   1.046   .     S
H1310  C1127   1.084   1_655 S
N1321  H1153   1.042   1_655 S
O1326  C1122   1.299   1_655 S
O1330  C1120   1.304   1_655 S
