data_str_m3_o5_o17_pcu_sym.46
_audit_creation_date              2020-01-03
_audit_creation_method            'Materials Studio'
_symmetry_space_group_name_H-M    'P1'
_symmetry_Int_Tables_number       1
_symmetry_cell_setting            triclinic
loop_
_symmetry_equiv_pos_as_xyz
  x,y,z
_cell_length_a                    29.9711
_cell_length_b                    26.8606
_cell_length_c                    24.3315
_cell_angle_alpha                 89.9871
_cell_angle_beta                  90.2185
_cell_angle_gamma                 89.9195
loop_
_atom_site_label
_atom_site_type_symbol
_atom_site_fract_x
_atom_site_fract_y
_atom_site_fract_z
_atom_site_U_iso_or_equiv
_atom_site_adp_type
_atom_site_occupancy
O1     O     0.25000   0.09512   0.21228   0.00000  Uiso   1.00
O2     O     0.25000   0.23822   0.12105   0.00000  Uiso   1.00
O3     O     0.25000   0.23822   0.21228   0.00000  Uiso   1.00
O4     O     0.25000   0.09512   0.12105   0.00000  Uiso   1.00
C5     C     0.24994   0.07266   0.16667   0.00000  Uiso   1.00
C6     C     0.24982   0.26068   0.16666   0.00000  Uiso   1.00
O7     O     0.18392   0.16667   0.21230   0.00000  Uiso   1.00
O8     O     0.31607   0.16667   0.12104   0.00000  Uiso   1.00
O9     O     0.31607   0.16667   0.21230   0.00000  Uiso   1.00
O10    O     0.18392   0.16667   0.12104   0.00000  Uiso   1.00
C11    C     0.16348   0.16672   0.16654   0.00000  Uiso   1.00
C12    C     0.33665   0.16669   0.16680   0.00000  Uiso   1.00
Zn13   Zn    0.25000   0.16667   0.22759   0.00000  Uiso   1.00
Zn14   Zn    0.25000   0.16667   0.10574   0.00000  Uiso   1.00
N15    N     0.25000   0.16667   0.02455   0.00000  Uiso   1.00
N16    N     0.25000   0.16667   0.30879   0.00000  Uiso   1.00
C17    C     0.40676   0.20780   0.14608   0.00000  Uiso   1.00
C18    C     0.09410   0.12051   0.17206   0.00000  Uiso   1.00
C19    C     0.40689   0.12470   0.18818   0.00000  Uiso   1.00
C20    C     0.09310   0.21048   0.15721   0.00000  Uiso   1.00
C21    C     0.38437   0.16628   0.16693   0.00000  Uiso   1.00
C22    C     0.11603   0.16597   0.16599   0.00000  Uiso   1.00
C23    C     0.45369   0.12243   0.18394   0.00000  Uiso   1.00
C24    C     0.04688   0.20881   0.14893   0.00000  Uiso   1.00
C25    C     0.45349   0.20724   0.14377   0.00000  Uiso   1.00
C26    C     0.04742   0.12045   0.17660   0.00000  Uiso   1.00
C27    C     0.47690   0.16466   0.16340   0.00000  Uiso   1.00
C28    C     0.02367   0.16453   0.16281   0.00000  Uiso   1.00
C29    C     0.47769   0.07922   0.19982   0.00000  Uiso   1.00
C30    C     0.02381   0.24986   0.12650   0.00000  Uiso   1.00
C31    C     0.47720   0.24749   0.12042   0.00000  Uiso   1.00
C32    C     0.02437   0.07764   0.19423   0.00000  Uiso   1.00
C33    C     0.24981   0.02172   0.16668   0.00000  Uiso   1.00
C34    C     0.24975   0.31162   0.16666   0.00000  Uiso   1.00
O35    O     0.45533   0.03815   0.21959   0.00000  Uiso   1.00
H36    H     0.47188   0.02542   0.25205   0.00000  Uiso   1.00
O37    O     0.04756   0.29055   0.10776   0.00000  Uiso   1.00
H38    H     0.02809   0.32036   0.10785   0.00000  Uiso   1.00
O39    O     0.45462   0.28324   0.09032   0.00000  Uiso   1.00
H40    H     0.47351   0.29349   0.05895   0.00000  Uiso   1.00
O41    O     0.04815   0.03539   0.20852   0.00000  Uiso   1.00
H42    H     0.02905   0.00562   0.20433   0.00000  Uiso   1.00
N43    N     0.38234   0.25163   0.13147   0.00000  Uiso   1.00
H44    H     0.35528   0.24622   0.10596   0.00000  Uiso   1.00
C45    C     0.37316   0.28483   0.17684   0.00000  Uiso   1.00
H46    H     0.34928   0.26741   0.20582   0.00000  Uiso   1.00
H47    H     0.35833   0.31986   0.16088   0.00000  Uiso   1.00
H48    H     0.40447   0.29398   0.19913   0.00000  Uiso   1.00
N49    N     0.11900   0.07515   0.17186   0.00000  Uiso   1.00
H50    H     0.14784   0.07556   0.19506   0.00000  Uiso   1.00
C51    C     0.12551   0.05450   0.11754   0.00000  Uiso   1.00
H52    H     0.14576   0.08010   0.09193   0.00000  Uiso   1.00
H53    H     0.09283   0.04803   0.09711   0.00000  Uiso   1.00
H54    H     0.14346   0.01848   0.12065   0.00000  Uiso   1.00
N55    N     0.38227   0.08523   0.21324   0.00000  Uiso   1.00
H56    H     0.35252   0.07612   0.19439   0.00000  Uiso   1.00
C57    C     0.37896   0.08822   0.27258   0.00000  Uiso   1.00
H58    H     0.36328   0.05371   0.28851   0.00000  Uiso   1.00
H59    H     0.35829   0.12054   0.28503   0.00000  Uiso   1.00
H60    H     0.41252   0.09199   0.29164   0.00000  Uiso   1.00
N61    N     0.11629   0.25683   0.15915   0.00000  Uiso   1.00
H62    H     0.14546   0.25778   0.13684   0.00000  Uiso   1.00
C63    C     0.12164   0.27644   0.21418   0.00000  Uiso   1.00
H64    H     0.13731   0.31374   0.21242   0.00000  Uiso   1.00
H65    H     0.14348   0.25173   0.23912   0.00000  Uiso   1.00
H66    H     0.08871   0.27986   0.23461   0.00000  Uiso   1.00
O67    O     0.75000   0.09512   0.21228   0.00000  Uiso   1.00
O68    O     0.75000   0.23822   0.12105   0.00000  Uiso   1.00
O69    O     0.75000   0.23822   0.21228   0.00000  Uiso   1.00
O70    O     0.75000   0.09512   0.12105   0.00000  Uiso   1.00
C71    C     0.74994   0.07266   0.16667   0.00000  Uiso   1.00
C72    C     0.74982   0.26068   0.16666   0.00000  Uiso   1.00
O73    O     0.68392   0.16667   0.21230   0.00000  Uiso   1.00
O74    O     0.81607   0.16667   0.12104   0.00000  Uiso   1.00
O75    O     0.81607   0.16667   0.21230   0.00000  Uiso   1.00
O76    O     0.68392   0.16667   0.12104   0.00000  Uiso   1.00
C77    C     0.66348   0.16672   0.16654   0.00000  Uiso   1.00
C78    C     0.83665   0.16669   0.16680   0.00000  Uiso   1.00
Zn79   Zn    0.75000   0.16667   0.22759   0.00000  Uiso   1.00
Zn80   Zn    0.75000   0.16667   0.10574   0.00000  Uiso   1.00
N81    N     0.75000   0.16667   0.02455   0.00000  Uiso   1.00
N82    N     0.75000   0.16667   0.30879   0.00000  Uiso   1.00
C83    C     0.90676   0.20780   0.14608   0.00000  Uiso   1.00
C84    C     0.59410   0.12051   0.17206   0.00000  Uiso   1.00
C85    C     0.90689   0.12470   0.18818   0.00000  Uiso   1.00
C86    C     0.59310   0.21048   0.15721   0.00000  Uiso   1.00
C87    C     0.88437   0.16628   0.16693   0.00000  Uiso   1.00
C88    C     0.61603   0.16597   0.16599   0.00000  Uiso   1.00
C89    C     0.95369   0.12243   0.18394   0.00000  Uiso   1.00
C90    C     0.54688   0.20881   0.14893   0.00000  Uiso   1.00
C91    C     0.95349   0.20724   0.14377   0.00000  Uiso   1.00
C92    C     0.54742   0.12045   0.17660   0.00000  Uiso   1.00
C93    C     0.97690   0.16466   0.16340   0.00000  Uiso   1.00
C94    C     0.52367   0.16453   0.16281   0.00000  Uiso   1.00
C95    C     0.97769   0.07922   0.19982   0.00000  Uiso   1.00
C96    C     0.52381   0.24986   0.12650   0.00000  Uiso   1.00
C97    C     0.97720   0.24749   0.12042   0.00000  Uiso   1.00
C98    C     0.52437   0.07764   0.19423   0.00000  Uiso   1.00
C99    C     0.74981   0.02172   0.16668   0.00000  Uiso   1.00
C100   C     0.74975   0.31162   0.16666   0.00000  Uiso   1.00
O101   O     0.95533   0.03815   0.21959   0.00000  Uiso   1.00
H102   H     0.97188   0.02542   0.25205   0.00000  Uiso   1.00
O103   O     0.54756   0.29055   0.10776   0.00000  Uiso   1.00
H104   H     0.52809   0.32036   0.10785   0.00000  Uiso   1.00
O105   O     0.95462   0.28324   0.09032   0.00000  Uiso   1.00
H106   H     0.97351   0.29349   0.05895   0.00000  Uiso   1.00
O107   O     0.54815   0.03539   0.20852   0.00000  Uiso   1.00
H108   H     0.52905   0.00562   0.20433   0.00000  Uiso   1.00
N109   N     0.88234   0.25163   0.13147   0.00000  Uiso   1.00
H110   H     0.85528   0.24622   0.10596   0.00000  Uiso   1.00
C111   C     0.87316   0.28483   0.17684   0.00000  Uiso   1.00
H112   H     0.84928   0.26741   0.20582   0.00000  Uiso   1.00
H113   H     0.85833   0.31986   0.16088   0.00000  Uiso   1.00
H114   H     0.90447   0.29398   0.19913   0.00000  Uiso   1.00
N115   N     0.61900   0.07515   0.17186   0.00000  Uiso   1.00
H116   H     0.64784   0.07556   0.19506   0.00000  Uiso   1.00
C117   C     0.62551   0.05450   0.11754   0.00000  Uiso   1.00
H118   H     0.64576   0.08010   0.09193   0.00000  Uiso   1.00
H119   H     0.59283   0.04803   0.09711   0.00000  Uiso   1.00
H120   H     0.64346   0.01848   0.12065   0.00000  Uiso   1.00
N121   N     0.88227   0.08523   0.21324   0.00000  Uiso   1.00
H122   H     0.85252   0.07612   0.19439   0.00000  Uiso   1.00
C123   C     0.87896   0.08822   0.27258   0.00000  Uiso   1.00
H124   H     0.86328   0.05371   0.28851   0.00000  Uiso   1.00
H125   H     0.85829   0.12054   0.28503   0.00000  Uiso   1.00
H126   H     0.91252   0.09199   0.29164   0.00000  Uiso   1.00
N127   N     0.61629   0.25683   0.15915   0.00000  Uiso   1.00
H128   H     0.64546   0.25778   0.13684   0.00000  Uiso   1.00
C129   C     0.62164   0.27644   0.21418   0.00000  Uiso   1.00
H130   H     0.63731   0.31374   0.21242   0.00000  Uiso   1.00
H131   H     0.64348   0.25173   0.23912   0.00000  Uiso   1.00
H132   H     0.58871   0.27986   0.23461   0.00000  Uiso   1.00
O133   O     0.25000   0.42845   0.21228   0.00000  Uiso   1.00
O134   O     0.25000   0.57155   0.12105   0.00000  Uiso   1.00
O135   O     0.25000   0.57155   0.21228   0.00000  Uiso   1.00
O136   O     0.25000   0.42845   0.12105   0.00000  Uiso   1.00
C137   C     0.24994   0.40599   0.16667   0.00000  Uiso   1.00
C138   C     0.24982   0.59401   0.16666   0.00000  Uiso   1.00
O139   O     0.18392   0.50000   0.21230   0.00000  Uiso   1.00
O140   O     0.31607   0.50000   0.12104   0.00000  Uiso   1.00
O141   O     0.31607   0.50000   0.21230   0.00000  Uiso   1.00
O142   O     0.18392   0.50000   0.12104   0.00000  Uiso   1.00
C143   C     0.16348   0.50005   0.16654   0.00000  Uiso   1.00
C144   C     0.33665   0.50002   0.16680   0.00000  Uiso   1.00
Zn145  Zn    0.25000   0.50000   0.22759   0.00000  Uiso   1.00
Zn146  Zn    0.25000   0.50000   0.10574   0.00000  Uiso   1.00
N147   N     0.25000   0.50000   0.02455   0.00000  Uiso   1.00
N148   N     0.25000   0.50000   0.30879   0.00000  Uiso   1.00
C149   C     0.40676   0.54114   0.14608   0.00000  Uiso   1.00
C150   C     0.09410   0.45385   0.17206   0.00000  Uiso   1.00
C151   C     0.40689   0.45804   0.18818   0.00000  Uiso   1.00
C152   C     0.09310   0.54381   0.15721   0.00000  Uiso   1.00
C153   C     0.38437   0.49961   0.16693   0.00000  Uiso   1.00
C154   C     0.11603   0.49931   0.16599   0.00000  Uiso   1.00
C155   C     0.45369   0.45576   0.18394   0.00000  Uiso   1.00
C156   C     0.04688   0.54215   0.14893   0.00000  Uiso   1.00
C157   C     0.45349   0.54057   0.14377   0.00000  Uiso   1.00
C158   C     0.04742   0.45378   0.17660   0.00000  Uiso   1.00
C159   C     0.47690   0.49799   0.16340   0.00000  Uiso   1.00
C160   C     0.02367   0.49787   0.16281   0.00000  Uiso   1.00
C161   C     0.47769   0.41255   0.19982   0.00000  Uiso   1.00
C162   C     0.02381   0.58319   0.12650   0.00000  Uiso   1.00
C163   C     0.47720   0.58082   0.12042   0.00000  Uiso   1.00
C164   C     0.02437   0.41097   0.19423   0.00000  Uiso   1.00
C165   C     0.24981   0.35505   0.16668   0.00000  Uiso   1.00
C166   C     0.24975   0.64495   0.16666   0.00000  Uiso   1.00
O167   O     0.45533   0.37148   0.21959   0.00000  Uiso   1.00
H168   H     0.47188   0.35875   0.25205   0.00000  Uiso   1.00
O169   O     0.04756   0.62388   0.10776   0.00000  Uiso   1.00
H170   H     0.02809   0.65369   0.10785   0.00000  Uiso   1.00
O171   O     0.45462   0.61657   0.09032   0.00000  Uiso   1.00
H172   H     0.47351   0.62682   0.05895   0.00000  Uiso   1.00
O173   O     0.04815   0.36872   0.20852   0.00000  Uiso   1.00
H174   H     0.02905   0.33896   0.20433   0.00000  Uiso   1.00
N175   N     0.38234   0.58496   0.13147   0.00000  Uiso   1.00
H176   H     0.35528   0.57955   0.10596   0.00000  Uiso   1.00
C177   C     0.37316   0.61816   0.17684   0.00000  Uiso   1.00
H178   H     0.34928   0.60074   0.20582   0.00000  Uiso   1.00
H179   H     0.35833   0.65320   0.16088   0.00000  Uiso   1.00
H180   H     0.40447   0.62732   0.19913   0.00000  Uiso   1.00
N181   N     0.11900   0.40848   0.17186   0.00000  Uiso   1.00
H182   H     0.14784   0.40889   0.19506   0.00000  Uiso   1.00
C183   C     0.12551   0.38783   0.11754   0.00000  Uiso   1.00
H184   H     0.14576   0.41344   0.09193   0.00000  Uiso   1.00
H185   H     0.09283   0.38136   0.09711   0.00000  Uiso   1.00
H186   H     0.14346   0.35181   0.12065   0.00000  Uiso   1.00
N187   N     0.38227   0.41856   0.21324   0.00000  Uiso   1.00
H188   H     0.35252   0.40945   0.19439   0.00000  Uiso   1.00
C189   C     0.37896   0.42155   0.27258   0.00000  Uiso   1.00
H190   H     0.36328   0.38704   0.28851   0.00000  Uiso   1.00
H191   H     0.35829   0.45388   0.28503   0.00000  Uiso   1.00
H192   H     0.41252   0.42532   0.29164   0.00000  Uiso   1.00
N193   N     0.11629   0.59017   0.15915   0.00000  Uiso   1.00
H194   H     0.14546   0.59111   0.13684   0.00000  Uiso   1.00
C195   C     0.12164   0.60977   0.21418   0.00000  Uiso   1.00
H196   H     0.13731   0.64708   0.21242   0.00000  Uiso   1.00
H197   H     0.14348   0.58507   0.23912   0.00000  Uiso   1.00
H198   H     0.08871   0.61319   0.23461   0.00000  Uiso   1.00
O199   O     0.75000   0.42845   0.21228   0.00000  Uiso   1.00
O200   O     0.75000   0.57155   0.12105   0.00000  Uiso   1.00
O201   O     0.75000   0.57155   0.21228   0.00000  Uiso   1.00
O202   O     0.75000   0.42845   0.12105   0.00000  Uiso   1.00
C203   C     0.74994   0.40599   0.16667   0.00000  Uiso   1.00
C204   C     0.74982   0.59401   0.16666   0.00000  Uiso   1.00
O205   O     0.68392   0.50000   0.21230   0.00000  Uiso   1.00
O206   O     0.81607   0.50000   0.12104   0.00000  Uiso   1.00
O207   O     0.81607   0.50000   0.21230   0.00000  Uiso   1.00
O208   O     0.68392   0.50000   0.12104   0.00000  Uiso   1.00
C209   C     0.66348   0.50005   0.16654   0.00000  Uiso   1.00
C210   C     0.83665   0.50002   0.16680   0.00000  Uiso   1.00
Zn211  Zn    0.75000   0.50000   0.22759   0.00000  Uiso   1.00
Zn212  Zn    0.75000   0.50000   0.10574   0.00000  Uiso   1.00
N213   N     0.75000   0.50000   0.02455   0.00000  Uiso   1.00
N214   N     0.75000   0.50000   0.30879   0.00000  Uiso   1.00
C215   C     0.90676   0.54114   0.14608   0.00000  Uiso   1.00
C216   C     0.59410   0.45385   0.17206   0.00000  Uiso   1.00
C217   C     0.90689   0.45804   0.18818   0.00000  Uiso   1.00
C218   C     0.59310   0.54381   0.15721   0.00000  Uiso   1.00
C219   C     0.88437   0.49961   0.16693   0.00000  Uiso   1.00
C220   C     0.61603   0.49931   0.16599   0.00000  Uiso   1.00
C221   C     0.95369   0.45576   0.18394   0.00000  Uiso   1.00
C222   C     0.54688   0.54215   0.14893   0.00000  Uiso   1.00
C223   C     0.95349   0.54057   0.14377   0.00000  Uiso   1.00
C224   C     0.54742   0.45378   0.17660   0.00000  Uiso   1.00
C225   C     0.97690   0.49799   0.16340   0.00000  Uiso   1.00
C226   C     0.52367   0.49787   0.16281   0.00000  Uiso   1.00
C227   C     0.97769   0.41255   0.19982   0.00000  Uiso   1.00
C228   C     0.52381   0.58319   0.12650   0.00000  Uiso   1.00
C229   C     0.97720   0.58082   0.12042   0.00000  Uiso   1.00
C230   C     0.52437   0.41097   0.19423   0.00000  Uiso   1.00
C231   C     0.74981   0.35505   0.16668   0.00000  Uiso   1.00
C232   C     0.74975   0.64495   0.16666   0.00000  Uiso   1.00
O233   O     0.95533   0.37148   0.21959   0.00000  Uiso   1.00
H234   H     0.97188   0.35875   0.25205   0.00000  Uiso   1.00
O235   O     0.54756   0.62388   0.10776   0.00000  Uiso   1.00
H236   H     0.52809   0.65369   0.10785   0.00000  Uiso   1.00
O237   O     0.95462   0.61657   0.09032   0.00000  Uiso   1.00
H238   H     0.97351   0.62682   0.05895   0.00000  Uiso   1.00
O239   O     0.54815   0.36872   0.20852   0.00000  Uiso   1.00
H240   H     0.52905   0.33896   0.20433   0.00000  Uiso   1.00
N241   N     0.88234   0.58496   0.13147   0.00000  Uiso   1.00
H242   H     0.85528   0.57955   0.10596   0.00000  Uiso   1.00
C243   C     0.87316   0.61816   0.17684   0.00000  Uiso   1.00
H244   H     0.84928   0.60074   0.20582   0.00000  Uiso   1.00
H245   H     0.85833   0.65320   0.16088   0.00000  Uiso   1.00
H246   H     0.90447   0.62732   0.19913   0.00000  Uiso   1.00
N247   N     0.61900   0.40848   0.17186   0.00000  Uiso   1.00
H248   H     0.64784   0.40889   0.19506   0.00000  Uiso   1.00
C249   C     0.62551   0.38783   0.11754   0.00000  Uiso   1.00
H250   H     0.64576   0.41344   0.09193   0.00000  Uiso   1.00
H251   H     0.59283   0.38136   0.09711   0.00000  Uiso   1.00
H252   H     0.64346   0.35181   0.12065   0.00000  Uiso   1.00
N253   N     0.88227   0.41856   0.21324   0.00000  Uiso   1.00
H254   H     0.85252   0.40945   0.19439   0.00000  Uiso   1.00
C255   C     0.87896   0.42155   0.27258   0.00000  Uiso   1.00
H256   H     0.86328   0.38704   0.28851   0.00000  Uiso   1.00
H257   H     0.85829   0.45388   0.28503   0.00000  Uiso   1.00
H258   H     0.91252   0.42532   0.29164   0.00000  Uiso   1.00
N259   N     0.61629   0.59017   0.15915   0.00000  Uiso   1.00
H260   H     0.64546   0.59111   0.13684   0.00000  Uiso   1.00
C261   C     0.62164   0.60977   0.21418   0.00000  Uiso   1.00
H262   H     0.63731   0.64708   0.21242   0.00000  Uiso   1.00
H263   H     0.64348   0.58507   0.23912   0.00000  Uiso   1.00
H264   H     0.58871   0.61319   0.23461   0.00000  Uiso   1.00
O265   O     0.25000   0.76178   0.21228   0.00000  Uiso   1.00
O266   O     0.25000   0.90488   0.12105   0.00000  Uiso   1.00
O267   O     0.25000   0.90488   0.21228   0.00000  Uiso   1.00
O268   O     0.25000   0.76178   0.12105   0.00000  Uiso   1.00
C269   C     0.24994   0.73932   0.16667   0.00000  Uiso   1.00
C270   C     0.24982   0.92734   0.16666   0.00000  Uiso   1.00
O271   O     0.18392   0.83333   0.21230   0.00000  Uiso   1.00
O272   O     0.31607   0.83333   0.12104   0.00000  Uiso   1.00
O273   O     0.31607   0.83333   0.21230   0.00000  Uiso   1.00
O274   O     0.18392   0.83333   0.12104   0.00000  Uiso   1.00
C275   C     0.16348   0.83338   0.16654   0.00000  Uiso   1.00
C276   C     0.33665   0.83336   0.16680   0.00000  Uiso   1.00
Zn277  Zn    0.25000   0.83333   0.22759   0.00000  Uiso   1.00
Zn278  Zn    0.25000   0.83333   0.10574   0.00000  Uiso   1.00
N279   N     0.25000   0.83333   0.02455   0.00000  Uiso   1.00
N280   N     0.25000   0.83333   0.30879   0.00000  Uiso   1.00
C281   C     0.40676   0.87447   0.14608   0.00000  Uiso   1.00
C282   C     0.09410   0.78718   0.17206   0.00000  Uiso   1.00
C283   C     0.40689   0.79137   0.18818   0.00000  Uiso   1.00
C284   C     0.09310   0.87715   0.15721   0.00000  Uiso   1.00
C285   C     0.38437   0.83294   0.16693   0.00000  Uiso   1.00
C286   C     0.11603   0.83264   0.16599   0.00000  Uiso   1.00
C287   C     0.45369   0.78910   0.18394   0.00000  Uiso   1.00
C288   C     0.04688   0.87548   0.14893   0.00000  Uiso   1.00
C289   C     0.45349   0.87390   0.14377   0.00000  Uiso   1.00
C290   C     0.04742   0.78712   0.17660   0.00000  Uiso   1.00
C291   C     0.47690   0.83132   0.16340   0.00000  Uiso   1.00
C292   C     0.02367   0.83120   0.16281   0.00000  Uiso   1.00
C293   C     0.47769   0.74589   0.19982   0.00000  Uiso   1.00
C294   C     0.02381   0.91652   0.12650   0.00000  Uiso   1.00
C295   C     0.47720   0.91416   0.12042   0.00000  Uiso   1.00
C296   C     0.02437   0.74430   0.19423   0.00000  Uiso   1.00
C297   C     0.24981   0.68838   0.16668   0.00000  Uiso   1.00
C298   C     0.24975   0.97828   0.16666   0.00000  Uiso   1.00
O299   O     0.45533   0.70482   0.21959   0.00000  Uiso   1.00
H300   H     0.47188   0.69208   0.25205   0.00000  Uiso   1.00
O301   O     0.04756   0.95722   0.10776   0.00000  Uiso   1.00
H302   H     0.02809   0.98703   0.10785   0.00000  Uiso   1.00
O303   O     0.45462   0.94991   0.09032   0.00000  Uiso   1.00
H304   H     0.47351   0.96016   0.05895   0.00000  Uiso   1.00
O305   O     0.04815   0.70205   0.20852   0.00000  Uiso   1.00
H306   H     0.02905   0.67229   0.20433   0.00000  Uiso   1.00
N307   N     0.38234   0.91830   0.13147   0.00000  Uiso   1.00
H308   H     0.35528   0.91288   0.10596   0.00000  Uiso   1.00
C309   C     0.37316   0.95149   0.17684   0.00000  Uiso   1.00
H310   H     0.34928   0.93407   0.20582   0.00000  Uiso   1.00
H311   H     0.35833   0.98653   0.16088   0.00000  Uiso   1.00
H312   H     0.40447   0.96065   0.19913   0.00000  Uiso   1.00
N313   N     0.11900   0.74181   0.17186   0.00000  Uiso   1.00
H314   H     0.14784   0.74222   0.19506   0.00000  Uiso   1.00
C315   C     0.12551   0.72116   0.11754   0.00000  Uiso   1.00
H316   H     0.14576   0.74677   0.09193   0.00000  Uiso   1.00
H317   H     0.09283   0.71469   0.09711   0.00000  Uiso   1.00
H318   H     0.14346   0.68515   0.12065   0.00000  Uiso   1.00
N319   N     0.38227   0.75189   0.21324   0.00000  Uiso   1.00
H320   H     0.35252   0.74278   0.19439   0.00000  Uiso   1.00
C321   C     0.37896   0.75488   0.27258   0.00000  Uiso   1.00
H322   H     0.36328   0.72037   0.28851   0.00000  Uiso   1.00
H323   H     0.35829   0.78721   0.28503   0.00000  Uiso   1.00
H324   H     0.41252   0.75866   0.29164   0.00000  Uiso   1.00
N325   N     0.11629   0.92350   0.15915   0.00000  Uiso   1.00
H326   H     0.14546   0.92445   0.13684   0.00000  Uiso   1.00
C327   C     0.12164   0.94310   0.21418   0.00000  Uiso   1.00
H328   H     0.13731   0.98041   0.21242   0.00000  Uiso   1.00
H329   H     0.14348   0.91840   0.23912   0.00000  Uiso   1.00
H330   H     0.08871   0.94653   0.23461   0.00000  Uiso   1.00
O331   O     0.75000   0.76178   0.21228   0.00000  Uiso   1.00
O332   O     0.75000   0.90488   0.12105   0.00000  Uiso   1.00
O333   O     0.75000   0.90488   0.21228   0.00000  Uiso   1.00
O334   O     0.75000   0.76178   0.12105   0.00000  Uiso   1.00
C335   C     0.74994   0.73932   0.16667   0.00000  Uiso   1.00
C336   C     0.74982   0.92734   0.16666   0.00000  Uiso   1.00
O337   O     0.68392   0.83333   0.21230   0.00000  Uiso   1.00
O338   O     0.81607   0.83333   0.12104   0.00000  Uiso   1.00
O339   O     0.81607   0.83333   0.21230   0.00000  Uiso   1.00
O340   O     0.68392   0.83333   0.12104   0.00000  Uiso   1.00
C341   C     0.66348   0.83338   0.16654   0.00000  Uiso   1.00
C342   C     0.83665   0.83336   0.16680   0.00000  Uiso   1.00
Zn343  Zn    0.75000   0.83333   0.22759   0.00000  Uiso   1.00
Zn344  Zn    0.75000   0.83333   0.10574   0.00000  Uiso   1.00
N345   N     0.75000   0.83333   0.02455   0.00000  Uiso   1.00
N346   N     0.75000   0.83333   0.30879   0.00000  Uiso   1.00
C347   C     0.90676   0.87447   0.14608   0.00000  Uiso   1.00
C348   C     0.59410   0.78718   0.17206   0.00000  Uiso   1.00
C349   C     0.90689   0.79137   0.18818   0.00000  Uiso   1.00
C350   C     0.59310   0.87715   0.15721   0.00000  Uiso   1.00
C351   C     0.88437   0.83294   0.16693   0.00000  Uiso   1.00
C352   C     0.61603   0.83264   0.16599   0.00000  Uiso   1.00
C353   C     0.95369   0.78910   0.18394   0.00000  Uiso   1.00
C354   C     0.54688   0.87548   0.14893   0.00000  Uiso   1.00
C355   C     0.95349   0.87390   0.14377   0.00000  Uiso   1.00
C356   C     0.54742   0.78712   0.17660   0.00000  Uiso   1.00
C357   C     0.97690   0.83132   0.16340   0.00000  Uiso   1.00
C358   C     0.52367   0.83120   0.16281   0.00000  Uiso   1.00
C359   C     0.97769   0.74589   0.19982   0.00000  Uiso   1.00
C360   C     0.52381   0.91652   0.12650   0.00000  Uiso   1.00
C361   C     0.97720   0.91416   0.12042   0.00000  Uiso   1.00
C362   C     0.52437   0.74430   0.19423   0.00000  Uiso   1.00
C363   C     0.74981   0.68838   0.16668   0.00000  Uiso   1.00
C364   C     0.74975   0.97828   0.16666   0.00000  Uiso   1.00
O365   O     0.95533   0.70482   0.21959   0.00000  Uiso   1.00
H366   H     0.97188   0.69208   0.25205   0.00000  Uiso   1.00
O367   O     0.54756   0.95722   0.10776   0.00000  Uiso   1.00
H368   H     0.52809   0.98703   0.10785   0.00000  Uiso   1.00
O369   O     0.95462   0.94991   0.09032   0.00000  Uiso   1.00
H370   H     0.97351   0.96016   0.05895   0.00000  Uiso   1.00
O371   O     0.54815   0.70205   0.20852   0.00000  Uiso   1.00
H372   H     0.52905   0.67229   0.20433   0.00000  Uiso   1.00
N373   N     0.88234   0.91830   0.13147   0.00000  Uiso   1.00
H374   H     0.85528   0.91288   0.10596   0.00000  Uiso   1.00
C375   C     0.87316   0.95149   0.17684   0.00000  Uiso   1.00
H376   H     0.84928   0.93407   0.20582   0.00000  Uiso   1.00
H377   H     0.85833   0.98653   0.16088   0.00000  Uiso   1.00
H378   H     0.90447   0.96065   0.19913   0.00000  Uiso   1.00
N379   N     0.61900   0.74181   0.17186   0.00000  Uiso   1.00
H380   H     0.64784   0.74222   0.19506   0.00000  Uiso   1.00
C381   C     0.62551   0.72116   0.11754   0.00000  Uiso   1.00
H382   H     0.64576   0.74677   0.09193   0.00000  Uiso   1.00
H383   H     0.59283   0.71469   0.09711   0.00000  Uiso   1.00
H384   H     0.64346   0.68515   0.12065   0.00000  Uiso   1.00
N385   N     0.88227   0.75189   0.21324   0.00000  Uiso   1.00
H386   H     0.85252   0.74278   0.19439   0.00000  Uiso   1.00
C387   C     0.87896   0.75488   0.27258   0.00000  Uiso   1.00
H388   H     0.86328   0.72037   0.28851   0.00000  Uiso   1.00
H389   H     0.85829   0.78721   0.28503   0.00000  Uiso   1.00
H390   H     0.91252   0.75866   0.29164   0.00000  Uiso   1.00
N391   N     0.61629   0.92350   0.15915   0.00000  Uiso   1.00
H392   H     0.64546   0.92445   0.13684   0.00000  Uiso   1.00
C393   C     0.62164   0.94310   0.21418   0.00000  Uiso   1.00
H394   H     0.63731   0.98041   0.21242   0.00000  Uiso   1.00
H395   H     0.64348   0.91840   0.23912   0.00000  Uiso   1.00
H396   H     0.58871   0.94653   0.23461   0.00000  Uiso   1.00
O397   O     0.25000   0.09512   0.54562   0.00000  Uiso   1.00
O398   O     0.25000   0.23822   0.45438   0.00000  Uiso   1.00
O399   O     0.25000   0.23822   0.54562   0.00000  Uiso   1.00
O400   O     0.25000   0.09512   0.45438   0.00000  Uiso   1.00
C401   C     0.24994   0.07266   0.50000   0.00000  Uiso   1.00
C402   C     0.24982   0.26068   0.50000   0.00000  Uiso   1.00
O403   O     0.18392   0.16667   0.54563   0.00000  Uiso   1.00
O404   O     0.31607   0.16667   0.45437   0.00000  Uiso   1.00
O405   O     0.31607   0.16667   0.54563   0.00000  Uiso   1.00
O406   O     0.18392   0.16667   0.45437   0.00000  Uiso   1.00
C407   C     0.16348   0.16672   0.49988   0.00000  Uiso   1.00
C408   C     0.33665   0.16669   0.50014   0.00000  Uiso   1.00
Zn409  Zn    0.25000   0.16667   0.56093   0.00000  Uiso   1.00
Zn410  Zn    0.25000   0.16667   0.43907   0.00000  Uiso   1.00
N411   N     0.25000   0.16667   0.35788   0.00000  Uiso   1.00
N412   N     0.25000   0.16667   0.64212   0.00000  Uiso   1.00
C413   C     0.40676   0.20780   0.47941   0.00000  Uiso   1.00
C414   C     0.09410   0.12051   0.50540   0.00000  Uiso   1.00
C415   C     0.40689   0.12470   0.52151   0.00000  Uiso   1.00
C416   C     0.09310   0.21048   0.49055   0.00000  Uiso   1.00
C417   C     0.38437   0.16628   0.50026   0.00000  Uiso   1.00
C418   C     0.11603   0.16597   0.49932   0.00000  Uiso   1.00
C419   C     0.45369   0.12243   0.51727   0.00000  Uiso   1.00
C420   C     0.04688   0.20881   0.48227   0.00000  Uiso   1.00
C421   C     0.45349   0.20724   0.47711   0.00000  Uiso   1.00
C422   C     0.04742   0.12045   0.50993   0.00000  Uiso   1.00
C423   C     0.47690   0.16466   0.49673   0.00000  Uiso   1.00
C424   C     0.02367   0.16453   0.49614   0.00000  Uiso   1.00
C425   C     0.47769   0.07922   0.53315   0.00000  Uiso   1.00
C426   C     0.02381   0.24986   0.45983   0.00000  Uiso   1.00
C427   C     0.47720   0.24749   0.45375   0.00000  Uiso   1.00
C428   C     0.02437   0.07764   0.52756   0.00000  Uiso   1.00
C429   C     0.24981   0.02172   0.50001   0.00000  Uiso   1.00
C430   C     0.24975   0.31162   0.50000   0.00000  Uiso   1.00
O431   O     0.45533   0.03815   0.55292   0.00000  Uiso   1.00
H432   H     0.47188   0.02542   0.58538   0.00000  Uiso   1.00
O433   O     0.04756   0.29055   0.44109   0.00000  Uiso   1.00
H434   H     0.02809   0.32036   0.44118   0.00000  Uiso   1.00
O435   O     0.45462   0.28324   0.42365   0.00000  Uiso   1.00
H436   H     0.47351   0.29349   0.39229   0.00000  Uiso   1.00
O437   O     0.04815   0.03539   0.54185   0.00000  Uiso   1.00
H438   H     0.02905   0.00562   0.53767   0.00000  Uiso   1.00
N439   N     0.38234   0.25163   0.46480   0.00000  Uiso   1.00
H440   H     0.35528   0.24622   0.43929   0.00000  Uiso   1.00
C441   C     0.37316   0.28483   0.51018   0.00000  Uiso   1.00
H442   H     0.34928   0.26741   0.53916   0.00000  Uiso   1.00
H443   H     0.35833   0.31986   0.49421   0.00000  Uiso   1.00
H444   H     0.40447   0.29398   0.53246   0.00000  Uiso   1.00
N445   N     0.11900   0.07515   0.50519   0.00000  Uiso   1.00
H446   H     0.14784   0.07556   0.52840   0.00000  Uiso   1.00
C447   C     0.12551   0.05450   0.45087   0.00000  Uiso   1.00
H448   H     0.14576   0.08010   0.42527   0.00000  Uiso   1.00
H449   H     0.09283   0.04803   0.43045   0.00000  Uiso   1.00
H450   H     0.14346   0.01848   0.45399   0.00000  Uiso   1.00
N451   N     0.38227   0.08523   0.54657   0.00000  Uiso   1.00
H452   H     0.35252   0.07612   0.52772   0.00000  Uiso   1.00
C453   C     0.37896   0.08822   0.60591   0.00000  Uiso   1.00
H454   H     0.36328   0.05371   0.62185   0.00000  Uiso   1.00
H455   H     0.35829   0.12054   0.61836   0.00000  Uiso   1.00
H456   H     0.41252   0.09199   0.62497   0.00000  Uiso   1.00
N457   N     0.11629   0.25683   0.49248   0.00000  Uiso   1.00
H458   H     0.14546   0.25778   0.47018   0.00000  Uiso   1.00
C459   C     0.12164   0.27644   0.54752   0.00000  Uiso   1.00
H460   H     0.13731   0.31374   0.54576   0.00000  Uiso   1.00
H461   H     0.14348   0.25173   0.57245   0.00000  Uiso   1.00
H462   H     0.08871   0.27986   0.56795   0.00000  Uiso   1.00
O463   O     0.75000   0.09512   0.54562   0.00000  Uiso   1.00
O464   O     0.75000   0.23822   0.45438   0.00000  Uiso   1.00
O465   O     0.75000   0.23822   0.54562   0.00000  Uiso   1.00
O466   O     0.75000   0.09512   0.45438   0.00000  Uiso   1.00
C467   C     0.74994   0.07266   0.50000   0.00000  Uiso   1.00
C468   C     0.74982   0.26068   0.50000   0.00000  Uiso   1.00
O469   O     0.68392   0.16667   0.54563   0.00000  Uiso   1.00
O470   O     0.81607   0.16667   0.45437   0.00000  Uiso   1.00
O471   O     0.81607   0.16667   0.54563   0.00000  Uiso   1.00
O472   O     0.68392   0.16667   0.45437   0.00000  Uiso   1.00
C473   C     0.66348   0.16672   0.49988   0.00000  Uiso   1.00
C474   C     0.83665   0.16669   0.50014   0.00000  Uiso   1.00
Zn475  Zn    0.75000   0.16667   0.56093   0.00000  Uiso   1.00
Zn476  Zn    0.75000   0.16667   0.43907   0.00000  Uiso   1.00
N477   N     0.75000   0.16667   0.35788   0.00000  Uiso   1.00
N478   N     0.75000   0.16667   0.64212   0.00000  Uiso   1.00
C479   C     0.90676   0.20780   0.47941   0.00000  Uiso   1.00
C480   C     0.59410   0.12051   0.50540   0.00000  Uiso   1.00
C481   C     0.90689   0.12470   0.52151   0.00000  Uiso   1.00
C482   C     0.59310   0.21048   0.49055   0.00000  Uiso   1.00
C483   C     0.88437   0.16628   0.50026   0.00000  Uiso   1.00
C484   C     0.61603   0.16597   0.49932   0.00000  Uiso   1.00
C485   C     0.95369   0.12243   0.51727   0.00000  Uiso   1.00
C486   C     0.54688   0.20881   0.48227   0.00000  Uiso   1.00
C487   C     0.95349   0.20724   0.47711   0.00000  Uiso   1.00
C488   C     0.54742   0.12045   0.50993   0.00000  Uiso   1.00
C489   C     0.97690   0.16466   0.49673   0.00000  Uiso   1.00
C490   C     0.52367   0.16453   0.49614   0.00000  Uiso   1.00
C491   C     0.97769   0.07922   0.53315   0.00000  Uiso   1.00
C492   C     0.52381   0.24986   0.45983   0.00000  Uiso   1.00
C493   C     0.97720   0.24749   0.45375   0.00000  Uiso   1.00
C494   C     0.52437   0.07764   0.52756   0.00000  Uiso   1.00
C495   C     0.74981   0.02172   0.50001   0.00000  Uiso   1.00
C496   C     0.74975   0.31162   0.50000   0.00000  Uiso   1.00
O497   O     0.95533   0.03815   0.55292   0.00000  Uiso   1.00
H498   H     0.97188   0.02542   0.58538   0.00000  Uiso   1.00
O499   O     0.54756   0.29055   0.44109   0.00000  Uiso   1.00
H500   H     0.52809   0.32036   0.44118   0.00000  Uiso   1.00
O501   O     0.95462   0.28324   0.42365   0.00000  Uiso   1.00
H502   H     0.97351   0.29349   0.39229   0.00000  Uiso   1.00
O503   O     0.54815   0.03539   0.54185   0.00000  Uiso   1.00
H504   H     0.52905   0.00562   0.53767   0.00000  Uiso   1.00
N505   N     0.88234   0.25163   0.46480   0.00000  Uiso   1.00
H506   H     0.85528   0.24622   0.43929   0.00000  Uiso   1.00
C507   C     0.87316   0.28483   0.51018   0.00000  Uiso   1.00
H508   H     0.84928   0.26741   0.53916   0.00000  Uiso   1.00
H509   H     0.85833   0.31986   0.49421   0.00000  Uiso   1.00
H510   H     0.90447   0.29398   0.53246   0.00000  Uiso   1.00
N511   N     0.61900   0.07515   0.50519   0.00000  Uiso   1.00
H512   H     0.64784   0.07556   0.52840   0.00000  Uiso   1.00
C513   C     0.62551   0.05450   0.45087   0.00000  Uiso   1.00
H514   H     0.64576   0.08010   0.42527   0.00000  Uiso   1.00
H515   H     0.59283   0.04803   0.43045   0.00000  Uiso   1.00
H516   H     0.64346   0.01848   0.45399   0.00000  Uiso   1.00
N517   N     0.88227   0.08523   0.54657   0.00000  Uiso   1.00
H518   H     0.85252   0.07612   0.52772   0.00000  Uiso   1.00
C519   C     0.87896   0.08822   0.60591   0.00000  Uiso   1.00
H520   H     0.86328   0.05371   0.62185   0.00000  Uiso   1.00
H521   H     0.85829   0.12054   0.61836   0.00000  Uiso   1.00
H522   H     0.91252   0.09199   0.62497   0.00000  Uiso   1.00
N523   N     0.61629   0.25683   0.49248   0.00000  Uiso   1.00
H524   H     0.64546   0.25778   0.47018   0.00000  Uiso   1.00
C525   C     0.62164   0.27644   0.54752   0.00000  Uiso   1.00
H526   H     0.63731   0.31374   0.54576   0.00000  Uiso   1.00
H527   H     0.64348   0.25173   0.57245   0.00000  Uiso   1.00
H528   H     0.58871   0.27986   0.56795   0.00000  Uiso   1.00
O529   O     0.25000   0.42845   0.54562   0.00000  Uiso   1.00
O530   O     0.25000   0.57155   0.45438   0.00000  Uiso   1.00
O531   O     0.25000   0.57155   0.54562   0.00000  Uiso   1.00
O532   O     0.25000   0.42845   0.45438   0.00000  Uiso   1.00
C533   C     0.24994   0.40599   0.50000   0.00000  Uiso   1.00
C534   C     0.24982   0.59401   0.50000   0.00000  Uiso   1.00
O535   O     0.18392   0.50000   0.54563   0.00000  Uiso   1.00
O536   O     0.31607   0.50000   0.45437   0.00000  Uiso   1.00
O537   O     0.31607   0.50000   0.54563   0.00000  Uiso   1.00
O538   O     0.18392   0.50000   0.45437   0.00000  Uiso   1.00
C539   C     0.16348   0.50005   0.49988   0.00000  Uiso   1.00
C540   C     0.33665   0.50002   0.50014   0.00000  Uiso   1.00
Zn541  Zn    0.25000   0.50000   0.56093   0.00000  Uiso   1.00
Zn542  Zn    0.25000   0.50000   0.43907   0.00000  Uiso   1.00
N543   N     0.25000   0.50000   0.35788   0.00000  Uiso   1.00
N544   N     0.25000   0.50000   0.64212   0.00000  Uiso   1.00
C545   C     0.40676   0.54114   0.47941   0.00000  Uiso   1.00
C546   C     0.09410   0.45385   0.50540   0.00000  Uiso   1.00
C547   C     0.40689   0.45804   0.52151   0.00000  Uiso   1.00
C548   C     0.09310   0.54381   0.49055   0.00000  Uiso   1.00
C549   C     0.38437   0.49961   0.50026   0.00000  Uiso   1.00
C550   C     0.11603   0.49931   0.49932   0.00000  Uiso   1.00
C551   C     0.45369   0.45576   0.51727   0.00000  Uiso   1.00
C552   C     0.04688   0.54215   0.48227   0.00000  Uiso   1.00
C553   C     0.45349   0.54057   0.47711   0.00000  Uiso   1.00
C554   C     0.04742   0.45378   0.50993   0.00000  Uiso   1.00
C555   C     0.47690   0.49799   0.49673   0.00000  Uiso   1.00
C556   C     0.02367   0.49787   0.49614   0.00000  Uiso   1.00
C557   C     0.47769   0.41255   0.53315   0.00000  Uiso   1.00
C558   C     0.02381   0.58319   0.45983   0.00000  Uiso   1.00
C559   C     0.47720   0.58082   0.45375   0.00000  Uiso   1.00
C560   C     0.02437   0.41097   0.52756   0.00000  Uiso   1.00
C561   C     0.24981   0.35505   0.50001   0.00000  Uiso   1.00
C562   C     0.24975   0.64495   0.50000   0.00000  Uiso   1.00
O563   O     0.45533   0.37148   0.55292   0.00000  Uiso   1.00
H564   H     0.47188   0.35875   0.58538   0.00000  Uiso   1.00
O565   O     0.04756   0.62388   0.44109   0.00000  Uiso   1.00
H566   H     0.02809   0.65369   0.44118   0.00000  Uiso   1.00
O567   O     0.45462   0.61657   0.42365   0.00000  Uiso   1.00
H568   H     0.47351   0.62682   0.39229   0.00000  Uiso   1.00
O569   O     0.04815   0.36872   0.54185   0.00000  Uiso   1.00
H570   H     0.02905   0.33896   0.53767   0.00000  Uiso   1.00
N571   N     0.38234   0.58496   0.46480   0.00000  Uiso   1.00
H572   H     0.35528   0.57955   0.43929   0.00000  Uiso   1.00
C573   C     0.37316   0.61816   0.51018   0.00000  Uiso   1.00
H574   H     0.34928   0.60074   0.53916   0.00000  Uiso   1.00
H575   H     0.35833   0.65320   0.49421   0.00000  Uiso   1.00
H576   H     0.40447   0.62732   0.53246   0.00000  Uiso   1.00
N577   N     0.11900   0.40848   0.50519   0.00000  Uiso   1.00
H578   H     0.14784   0.40889   0.52840   0.00000  Uiso   1.00
C579   C     0.12551   0.38783   0.45087   0.00000  Uiso   1.00
H580   H     0.14576   0.41344   0.42527   0.00000  Uiso   1.00
H581   H     0.09283   0.38136   0.43045   0.00000  Uiso   1.00
H582   H     0.14346   0.35181   0.45399   0.00000  Uiso   1.00
N583   N     0.38227   0.41856   0.54657   0.00000  Uiso   1.00
H584   H     0.35252   0.40945   0.52772   0.00000  Uiso   1.00
C585   C     0.37896   0.42155   0.60591   0.00000  Uiso   1.00
H586   H     0.36328   0.38704   0.62185   0.00000  Uiso   1.00
H587   H     0.35829   0.45388   0.61836   0.00000  Uiso   1.00
H588   H     0.41252   0.42532   0.62497   0.00000  Uiso   1.00
N589   N     0.11629   0.59017   0.49248   0.00000  Uiso   1.00
H590   H     0.14546   0.59111   0.47018   0.00000  Uiso   1.00
C591   C     0.12164   0.60977   0.54752   0.00000  Uiso   1.00
H592   H     0.13731   0.64708   0.54576   0.00000  Uiso   1.00
H593   H     0.14348   0.58507   0.57245   0.00000  Uiso   1.00
H594   H     0.08871   0.61319   0.56795   0.00000  Uiso   1.00
O595   O     0.75000   0.42845   0.54562   0.00000  Uiso   1.00
O596   O     0.75000   0.57155   0.45438   0.00000  Uiso   1.00
O597   O     0.75000   0.57155   0.54562   0.00000  Uiso   1.00
O598   O     0.75000   0.42845   0.45438   0.00000  Uiso   1.00
C599   C     0.74994   0.40599   0.50000   0.00000  Uiso   1.00
C600   C     0.74982   0.59401   0.50000   0.00000  Uiso   1.00
O601   O     0.68392   0.50000   0.54563   0.00000  Uiso   1.00
O602   O     0.81607   0.50000   0.45437   0.00000  Uiso   1.00
O603   O     0.81607   0.50000   0.54563   0.00000  Uiso   1.00
O604   O     0.68392   0.50000   0.45437   0.00000  Uiso   1.00
C605   C     0.66348   0.50005   0.49988   0.00000  Uiso   1.00
C606   C     0.83665   0.50002   0.50014   0.00000  Uiso   1.00
Zn607  Zn    0.75000   0.50000   0.56093   0.00000  Uiso   1.00
Zn608  Zn    0.75000   0.50000   0.43907   0.00000  Uiso   1.00
N609   N     0.75000   0.50000   0.35788   0.00000  Uiso   1.00
N610   N     0.75000   0.50000   0.64212   0.00000  Uiso   1.00
C611   C     0.90676   0.54114   0.47941   0.00000  Uiso   1.00
C612   C     0.59410   0.45385   0.50540   0.00000  Uiso   1.00
C613   C     0.90689   0.45804   0.52151   0.00000  Uiso   1.00
C614   C     0.59310   0.54381   0.49055   0.00000  Uiso   1.00
C615   C     0.88437   0.49961   0.50026   0.00000  Uiso   1.00
C616   C     0.61603   0.49931   0.49932   0.00000  Uiso   1.00
C617   C     0.95369   0.45576   0.51727   0.00000  Uiso   1.00
C618   C     0.54688   0.54215   0.48227   0.00000  Uiso   1.00
C619   C     0.95349   0.54057   0.47711   0.00000  Uiso   1.00
C620   C     0.54742   0.45378   0.50993   0.00000  Uiso   1.00
C621   C     0.97690   0.49799   0.49673   0.00000  Uiso   1.00
C622   C     0.52367   0.49787   0.49614   0.00000  Uiso   1.00
C623   C     0.97769   0.41255   0.53315   0.00000  Uiso   1.00
C624   C     0.52381   0.58319   0.45983   0.00000  Uiso   1.00
C625   C     0.97720   0.58082   0.45375   0.00000  Uiso   1.00
C626   C     0.52437   0.41097   0.52756   0.00000  Uiso   1.00
C627   C     0.74981   0.35505   0.50001   0.00000  Uiso   1.00
C628   C     0.74975   0.64495   0.50000   0.00000  Uiso   1.00
O629   O     0.95533   0.37148   0.55292   0.00000  Uiso   1.00
H630   H     0.97188   0.35875   0.58538   0.00000  Uiso   1.00
O631   O     0.54756   0.62388   0.44109   0.00000  Uiso   1.00
H632   H     0.52809   0.65369   0.44118   0.00000  Uiso   1.00
O633   O     0.95462   0.61657   0.42365   0.00000  Uiso   1.00
H634   H     0.97351   0.62682   0.39229   0.00000  Uiso   1.00
O635   O     0.54815   0.36872   0.54185   0.00000  Uiso   1.00
H636   H     0.52905   0.33896   0.53767   0.00000  Uiso   1.00
N637   N     0.88234   0.58496   0.46480   0.00000  Uiso   1.00
H638   H     0.85528   0.57955   0.43929   0.00000  Uiso   1.00
C639   C     0.87316   0.61816   0.51018   0.00000  Uiso   1.00
H640   H     0.84928   0.60074   0.53916   0.00000  Uiso   1.00
H641   H     0.85833   0.65320   0.49421   0.00000  Uiso   1.00
H642   H     0.90447   0.62732   0.53246   0.00000  Uiso   1.00
N643   N     0.61900   0.40848   0.50519   0.00000  Uiso   1.00
H644   H     0.64784   0.40889   0.52840   0.00000  Uiso   1.00
C645   C     0.62551   0.38783   0.45087   0.00000  Uiso   1.00
H646   H     0.64576   0.41344   0.42527   0.00000  Uiso   1.00
H647   H     0.59283   0.38136   0.43045   0.00000  Uiso   1.00
H648   H     0.64346   0.35181   0.45399   0.00000  Uiso   1.00
N649   N     0.88227   0.41856   0.54657   0.00000  Uiso   1.00
H650   H     0.85252   0.40945   0.52772   0.00000  Uiso   1.00
C651   C     0.87896   0.42155   0.60591   0.00000  Uiso   1.00
H652   H     0.86328   0.38704   0.62185   0.00000  Uiso   1.00
H653   H     0.85829   0.45388   0.61836   0.00000  Uiso   1.00
H654   H     0.91252   0.42532   0.62497   0.00000  Uiso   1.00
N655   N     0.61629   0.59017   0.49248   0.00000  Uiso   1.00
H656   H     0.64546   0.59111   0.47018   0.00000  Uiso   1.00
C657   C     0.62164   0.60977   0.54752   0.00000  Uiso   1.00
H658   H     0.63731   0.64708   0.54576   0.00000  Uiso   1.00
H659   H     0.64348   0.58507   0.57245   0.00000  Uiso   1.00
H660   H     0.58871   0.61319   0.56795   0.00000  Uiso   1.00
O661   O     0.25000   0.76178   0.54562   0.00000  Uiso   1.00
O662   O     0.25000   0.90488   0.45438   0.00000  Uiso   1.00
O663   O     0.25000   0.90488   0.54562   0.00000  Uiso   1.00
O664   O     0.25000   0.76178   0.45438   0.00000  Uiso   1.00
C665   C     0.24994   0.73932   0.50000   0.00000  Uiso   1.00
C666   C     0.24982   0.92734   0.50000   0.00000  Uiso   1.00
O667   O     0.18392   0.83333   0.54563   0.00000  Uiso   1.00
O668   O     0.31607   0.83333   0.45437   0.00000  Uiso   1.00
O669   O     0.31607   0.83333   0.54563   0.00000  Uiso   1.00
O670   O     0.18392   0.83333   0.45437   0.00000  Uiso   1.00
C671   C     0.16348   0.83338   0.49988   0.00000  Uiso   1.00
C672   C     0.33665   0.83336   0.50014   0.00000  Uiso   1.00
Zn673  Zn    0.25000   0.83333   0.56093   0.00000  Uiso   1.00
Zn674  Zn    0.25000   0.83333   0.43907   0.00000  Uiso   1.00
N675   N     0.25000   0.83333   0.35788   0.00000  Uiso   1.00
N676   N     0.25000   0.83333   0.64212   0.00000  Uiso   1.00
C677   C     0.40676   0.87447   0.47941   0.00000  Uiso   1.00
C678   C     0.09410   0.78718   0.50540   0.00000  Uiso   1.00
C679   C     0.40689   0.79137   0.52151   0.00000  Uiso   1.00
C680   C     0.09310   0.87715   0.49055   0.00000  Uiso   1.00
C681   C     0.38437   0.83294   0.50026   0.00000  Uiso   1.00
C682   C     0.11603   0.83264   0.49932   0.00000  Uiso   1.00
C683   C     0.45369   0.78910   0.51727   0.00000  Uiso   1.00
C684   C     0.04688   0.87548   0.48227   0.00000  Uiso   1.00
C685   C     0.45349   0.87390   0.47711   0.00000  Uiso   1.00
C686   C     0.04742   0.78712   0.50993   0.00000  Uiso   1.00
C687   C     0.47690   0.83132   0.49673   0.00000  Uiso   1.00
C688   C     0.02367   0.83120   0.49614   0.00000  Uiso   1.00
C689   C     0.47769   0.74589   0.53315   0.00000  Uiso   1.00
C690   C     0.02381   0.91652   0.45983   0.00000  Uiso   1.00
C691   C     0.47720   0.91416   0.45375   0.00000  Uiso   1.00
C692   C     0.02437   0.74430   0.52756   0.00000  Uiso   1.00
C693   C     0.24981   0.68838   0.50001   0.00000  Uiso   1.00
C694   C     0.24975   0.97828   0.50000   0.00000  Uiso   1.00
O695   O     0.45533   0.70482   0.55292   0.00000  Uiso   1.00
H696   H     0.47188   0.69208   0.58538   0.00000  Uiso   1.00
O697   O     0.04756   0.95722   0.44109   0.00000  Uiso   1.00
H698   H     0.02809   0.98703   0.44118   0.00000  Uiso   1.00
O699   O     0.45462   0.94991   0.42365   0.00000  Uiso   1.00
H700   H     0.47351   0.96016   0.39229   0.00000  Uiso   1.00
O701   O     0.04815   0.70205   0.54185   0.00000  Uiso   1.00
H702   H     0.02905   0.67229   0.53767   0.00000  Uiso   1.00
N703   N     0.38234   0.91830   0.46480   0.00000  Uiso   1.00
H704   H     0.35528   0.91288   0.43929   0.00000  Uiso   1.00
C705   C     0.37316   0.95149   0.51018   0.00000  Uiso   1.00
H706   H     0.34928   0.93407   0.53916   0.00000  Uiso   1.00
H707   H     0.35833   0.98653   0.49421   0.00000  Uiso   1.00
H708   H     0.40447   0.96065   0.53246   0.00000  Uiso   1.00
N709   N     0.11900   0.74181   0.50519   0.00000  Uiso   1.00
H710   H     0.14784   0.74222   0.52840   0.00000  Uiso   1.00
C711   C     0.12551   0.72116   0.45087   0.00000  Uiso   1.00
H712   H     0.14576   0.74677   0.42527   0.00000  Uiso   1.00
H713   H     0.09283   0.71469   0.43045   0.00000  Uiso   1.00
H714   H     0.14346   0.68515   0.45399   0.00000  Uiso   1.00
N715   N     0.38227   0.75189   0.54657   0.00000  Uiso   1.00
H716   H     0.35252   0.74278   0.52772   0.00000  Uiso   1.00
C717   C     0.37896   0.75488   0.60591   0.00000  Uiso   1.00
H718   H     0.36328   0.72037   0.62185   0.00000  Uiso   1.00
H719   H     0.35829   0.78721   0.61836   0.00000  Uiso   1.00
H720   H     0.41252   0.75866   0.62497   0.00000  Uiso   1.00
N721   N     0.11629   0.92350   0.49248   0.00000  Uiso   1.00
H722   H     0.14546   0.92445   0.47018   0.00000  Uiso   1.00
C723   C     0.12164   0.94310   0.54752   0.00000  Uiso   1.00
H724   H     0.13731   0.98041   0.54576   0.00000  Uiso   1.00
H725   H     0.14348   0.91840   0.57245   0.00000  Uiso   1.00
H726   H     0.08871   0.94653   0.56795   0.00000  Uiso   1.00
O727   O     0.75000   0.76178   0.54562   0.00000  Uiso   1.00
O728   O     0.75000   0.90488   0.45438   0.00000  Uiso   1.00
O729   O     0.75000   0.90488   0.54562   0.00000  Uiso   1.00
O730   O     0.75000   0.76178   0.45438   0.00000  Uiso   1.00
C731   C     0.74994   0.73932   0.50000   0.00000  Uiso   1.00
C732   C     0.74982   0.92734   0.50000   0.00000  Uiso   1.00
O733   O     0.68392   0.83333   0.54563   0.00000  Uiso   1.00
O734   O     0.81607   0.83333   0.45437   0.00000  Uiso   1.00
O735   O     0.81607   0.83333   0.54563   0.00000  Uiso   1.00
O736   O     0.68392   0.83333   0.45437   0.00000  Uiso   1.00
C737   C     0.66348   0.83338   0.49988   0.00000  Uiso   1.00
C738   C     0.83665   0.83336   0.50014   0.00000  Uiso   1.00
Zn739  Zn    0.75000   0.83333   0.56093   0.00000  Uiso   1.00
Zn740  Zn    0.75000   0.83333   0.43907   0.00000  Uiso   1.00
N741   N     0.75000   0.83333   0.35788   0.00000  Uiso   1.00
N742   N     0.75000   0.83333   0.64212   0.00000  Uiso   1.00
C743   C     0.90676   0.87447   0.47941   0.00000  Uiso   1.00
C744   C     0.59410   0.78718   0.50540   0.00000  Uiso   1.00
C745   C     0.90689   0.79137   0.52151   0.00000  Uiso   1.00
C746   C     0.59310   0.87715   0.49055   0.00000  Uiso   1.00
C747   C     0.88437   0.83294   0.50026   0.00000  Uiso   1.00
C748   C     0.61603   0.83264   0.49932   0.00000  Uiso   1.00
C749   C     0.95369   0.78910   0.51727   0.00000  Uiso   1.00
C750   C     0.54688   0.87548   0.48227   0.00000  Uiso   1.00
C751   C     0.95349   0.87390   0.47711   0.00000  Uiso   1.00
C752   C     0.54742   0.78712   0.50993   0.00000  Uiso   1.00
C753   C     0.97690   0.83132   0.49673   0.00000  Uiso   1.00
C754   C     0.52367   0.83120   0.49614   0.00000  Uiso   1.00
C755   C     0.97769   0.74589   0.53315   0.00000  Uiso   1.00
C756   C     0.52381   0.91652   0.45983   0.00000  Uiso   1.00
C757   C     0.97720   0.91416   0.45375   0.00000  Uiso   1.00
C758   C     0.52437   0.74430   0.52756   0.00000  Uiso   1.00
C759   C     0.74981   0.68838   0.50001   0.00000  Uiso   1.00
C760   C     0.74975   0.97828   0.50000   0.00000  Uiso   1.00
O761   O     0.95533   0.70482   0.55292   0.00000  Uiso   1.00
H762   H     0.97188   0.69208   0.58538   0.00000  Uiso   1.00
O763   O     0.54756   0.95722   0.44109   0.00000  Uiso   1.00
H764   H     0.52809   0.98703   0.44118   0.00000  Uiso   1.00
O765   O     0.95462   0.94991   0.42365   0.00000  Uiso   1.00
H766   H     0.97351   0.96016   0.39229   0.00000  Uiso   1.00
O767   O     0.54815   0.70205   0.54185   0.00000  Uiso   1.00
H768   H     0.52905   0.67229   0.53767   0.00000  Uiso   1.00
N769   N     0.88234   0.91830   0.46480   0.00000  Uiso   1.00
H770   H     0.85528   0.91288   0.43929   0.00000  Uiso   1.00
C771   C     0.87316   0.95149   0.51018   0.00000  Uiso   1.00
H772   H     0.84928   0.93407   0.53916   0.00000  Uiso   1.00
H773   H     0.85833   0.98653   0.49421   0.00000  Uiso   1.00
H774   H     0.90447   0.96065   0.53246   0.00000  Uiso   1.00
N775   N     0.61900   0.74181   0.50519   0.00000  Uiso   1.00
H776   H     0.64784   0.74222   0.52840   0.00000  Uiso   1.00
C777   C     0.62551   0.72116   0.45087   0.00000  Uiso   1.00
H778   H     0.64576   0.74677   0.42527   0.00000  Uiso   1.00
H779   H     0.59283   0.71469   0.43045   0.00000  Uiso   1.00
H780   H     0.64346   0.68515   0.45399   0.00000  Uiso   1.00
N781   N     0.88227   0.75189   0.54657   0.00000  Uiso   1.00
H782   H     0.85252   0.74278   0.52772   0.00000  Uiso   1.00
C783   C     0.87896   0.75488   0.60591   0.00000  Uiso   1.00
H784   H     0.86328   0.72037   0.62185   0.00000  Uiso   1.00
H785   H     0.85829   0.78721   0.61836   0.00000  Uiso   1.00
H786   H     0.91252   0.75866   0.62497   0.00000  Uiso   1.00
N787   N     0.61629   0.92350   0.49248   0.00000  Uiso   1.00
H788   H     0.64546   0.92445   0.47018   0.00000  Uiso   1.00
C789   C     0.62164   0.94310   0.54752   0.00000  Uiso   1.00
H790   H     0.63731   0.98041   0.54576   0.00000  Uiso   1.00
H791   H     0.64348   0.91840   0.57245   0.00000  Uiso   1.00
H792   H     0.58871   0.94653   0.56795   0.00000  Uiso   1.00
O793   O     0.25000   0.09512   0.87895   0.00000  Uiso   1.00
O794   O     0.25000   0.23822   0.78772   0.00000  Uiso   1.00
O795   O     0.25000   0.23822   0.87895   0.00000  Uiso   1.00
O796   O     0.25000   0.09512   0.78772   0.00000  Uiso   1.00
C797   C     0.24994   0.07266   0.83334   0.00000  Uiso   1.00
C798   C     0.24982   0.26068   0.83333   0.00000  Uiso   1.00
O799   O     0.18392   0.16667   0.87896   0.00000  Uiso   1.00
O800   O     0.31607   0.16667   0.78770   0.00000  Uiso   1.00
O801   O     0.31607   0.16667   0.87896   0.00000  Uiso   1.00
O802   O     0.18392   0.16667   0.78770   0.00000  Uiso   1.00
C803   C     0.16348   0.16672   0.83321   0.00000  Uiso   1.00
C804   C     0.33665   0.16669   0.83347   0.00000  Uiso   1.00
Zn805  Zn    0.25000   0.16667   0.89426   0.00000  Uiso   1.00
Zn806  Zn    0.25000   0.16667   0.77241   0.00000  Uiso   1.00
N807   N     0.25000   0.16667   0.69121   0.00000  Uiso   1.00
N808   N     0.25000   0.16667   0.97545   0.00000  Uiso   1.00
C809   C     0.40676   0.20780   0.81274   0.00000  Uiso   1.00
C810   C     0.09410   0.12051   0.83873   0.00000  Uiso   1.00
C811   C     0.40689   0.12470   0.85484   0.00000  Uiso   1.00
C812   C     0.09310   0.21048   0.82388   0.00000  Uiso   1.00
C813   C     0.38437   0.16628   0.83360   0.00000  Uiso   1.00
C814   C     0.11603   0.16597   0.83266   0.00000  Uiso   1.00
C815   C     0.45369   0.12243   0.85060   0.00000  Uiso   1.00
C816   C     0.04688   0.20881   0.81560   0.00000  Uiso   1.00
C817   C     0.45349   0.20724   0.81044   0.00000  Uiso   1.00
C818   C     0.04742   0.12045   0.84327   0.00000  Uiso   1.00
C819   C     0.47690   0.16466   0.83007   0.00000  Uiso   1.00
C820   C     0.02367   0.16453   0.82947   0.00000  Uiso   1.00
C821   C     0.47769   0.07922   0.86649   0.00000  Uiso   1.00
C822   C     0.02381   0.24986   0.79317   0.00000  Uiso   1.00
C823   C     0.47720   0.24749   0.78709   0.00000  Uiso   1.00
C824   C     0.02437   0.07764   0.86089   0.00000  Uiso   1.00
C825   C     0.24981   0.02172   0.83334   0.00000  Uiso   1.00
C826   C     0.24975   0.31162   0.83333   0.00000  Uiso   1.00
O827   O     0.45533   0.03815   0.88625   0.00000  Uiso   1.00
H828   H     0.47188   0.02542   0.91872   0.00000  Uiso   1.00
O829   O     0.04756   0.29055   0.77442   0.00000  Uiso   1.00
H830   H     0.02809   0.32036   0.77451   0.00000  Uiso   1.00
O831   O     0.45462   0.28324   0.75699   0.00000  Uiso   1.00
H832   H     0.47351   0.29349   0.72562   0.00000  Uiso   1.00
O833   O     0.04815   0.03539   0.87518   0.00000  Uiso   1.00
H834   H     0.02905   0.00562   0.87100   0.00000  Uiso   1.00
N835   N     0.38234   0.25163   0.79814   0.00000  Uiso   1.00
H836   H     0.35528   0.24622   0.77263   0.00000  Uiso   1.00
C837   C     0.37316   0.28483   0.84351   0.00000  Uiso   1.00
H838   H     0.34928   0.26741   0.87249   0.00000  Uiso   1.00
H839   H     0.35833   0.31986   0.82755   0.00000  Uiso   1.00
H840   H     0.40447   0.29398   0.86580   0.00000  Uiso   1.00
N841   N     0.11900   0.07515   0.83852   0.00000  Uiso   1.00
H842   H     0.14784   0.07556   0.86173   0.00000  Uiso   1.00
C843   C     0.12551   0.05450   0.78420   0.00000  Uiso   1.00
H844   H     0.14576   0.08010   0.75860   0.00000  Uiso   1.00
H845   H     0.09283   0.04803   0.76378   0.00000  Uiso   1.00
H846   H     0.14346   0.01848   0.78732   0.00000  Uiso   1.00
N847   N     0.38227   0.08523   0.87991   0.00000  Uiso   1.00
H848   H     0.35252   0.07612   0.86105   0.00000  Uiso   1.00
C849   C     0.37896   0.08822   0.93924   0.00000  Uiso   1.00
H850   H     0.36328   0.05371   0.95518   0.00000  Uiso   1.00
H851   H     0.35829   0.12054   0.95169   0.00000  Uiso   1.00
H852   H     0.41252   0.09199   0.95830   0.00000  Uiso   1.00
N853   N     0.11629   0.25683   0.82581   0.00000  Uiso   1.00
H854   H     0.14546   0.25778   0.80351   0.00000  Uiso   1.00
C855   C     0.12164   0.27644   0.88085   0.00000  Uiso   1.00
H856   H     0.13731   0.31374   0.87909   0.00000  Uiso   1.00
H857   H     0.14348   0.25173   0.90578   0.00000  Uiso   1.00
H858   H     0.08871   0.27986   0.90128   0.00000  Uiso   1.00
O859   O     0.75000   0.09512   0.87895   0.00000  Uiso   1.00
O860   O     0.75000   0.23822   0.78772   0.00000  Uiso   1.00
O861   O     0.75000   0.23822   0.87895   0.00000  Uiso   1.00
O862   O     0.75000   0.09512   0.78772   0.00000  Uiso   1.00
C863   C     0.74994   0.07266   0.83334   0.00000  Uiso   1.00
C864   C     0.74982   0.26068   0.83333   0.00000  Uiso   1.00
O865   O     0.68392   0.16667   0.87896   0.00000  Uiso   1.00
O866   O     0.81607   0.16667   0.78770   0.00000  Uiso   1.00
O867   O     0.81607   0.16667   0.87896   0.00000  Uiso   1.00
O868   O     0.68392   0.16667   0.78770   0.00000  Uiso   1.00
C869   C     0.66348   0.16672   0.83321   0.00000  Uiso   1.00
C870   C     0.83665   0.16669   0.83347   0.00000  Uiso   1.00
Zn871  Zn    0.75000   0.16667   0.89426   0.00000  Uiso   1.00
Zn872  Zn    0.75000   0.16667   0.77241   0.00000  Uiso   1.00
N873   N     0.75000   0.16667   0.69121   0.00000  Uiso   1.00
N874   N     0.75000   0.16667   0.97545   0.00000  Uiso   1.00
C875   C     0.90676   0.20780   0.81274   0.00000  Uiso   1.00
C876   C     0.59410   0.12051   0.83873   0.00000  Uiso   1.00
C877   C     0.90689   0.12470   0.85484   0.00000  Uiso   1.00
C878   C     0.59310   0.21048   0.82388   0.00000  Uiso   1.00
C879   C     0.88437   0.16628   0.83360   0.00000  Uiso   1.00
C880   C     0.61603   0.16597   0.83266   0.00000  Uiso   1.00
C881   C     0.95369   0.12243   0.85060   0.00000  Uiso   1.00
C882   C     0.54688   0.20881   0.81560   0.00000  Uiso   1.00
C883   C     0.95349   0.20724   0.81044   0.00000  Uiso   1.00
C884   C     0.54742   0.12045   0.84327   0.00000  Uiso   1.00
C885   C     0.97690   0.16466   0.83007   0.00000  Uiso   1.00
C886   C     0.52367   0.16453   0.82947   0.00000  Uiso   1.00
C887   C     0.97769   0.07922   0.86649   0.00000  Uiso   1.00
C888   C     0.52381   0.24986   0.79317   0.00000  Uiso   1.00
C889   C     0.97720   0.24749   0.78709   0.00000  Uiso   1.00
C890   C     0.52437   0.07764   0.86089   0.00000  Uiso   1.00
C891   C     0.74981   0.02172   0.83334   0.00000  Uiso   1.00
C892   C     0.74975   0.31162   0.83333   0.00000  Uiso   1.00
O893   O     0.95533   0.03815   0.88625   0.00000  Uiso   1.00
H894   H     0.97188   0.02542   0.91872   0.00000  Uiso   1.00
O895   O     0.54756   0.29055   0.77442   0.00000  Uiso   1.00
H896   H     0.52809   0.32036   0.77451   0.00000  Uiso   1.00
O897   O     0.95462   0.28324   0.75699   0.00000  Uiso   1.00
H898   H     0.97351   0.29349   0.72562   0.00000  Uiso   1.00
O899   O     0.54815   0.03539   0.87518   0.00000  Uiso   1.00
H900   H     0.52905   0.00562   0.87100   0.00000  Uiso   1.00
N901   N     0.88234   0.25163   0.79814   0.00000  Uiso   1.00
H902   H     0.85528   0.24622   0.77263   0.00000  Uiso   1.00
C903   C     0.87316   0.28483   0.84351   0.00000  Uiso   1.00
H904   H     0.84928   0.26741   0.87249   0.00000  Uiso   1.00
H905   H     0.85833   0.31986   0.82755   0.00000  Uiso   1.00
H906   H     0.90447   0.29398   0.86580   0.00000  Uiso   1.00
N907   N     0.61900   0.07515   0.83852   0.00000  Uiso   1.00
H908   H     0.64784   0.07556   0.86173   0.00000  Uiso   1.00
C909   C     0.62551   0.05450   0.78420   0.00000  Uiso   1.00
H910   H     0.64576   0.08010   0.75860   0.00000  Uiso   1.00
H911   H     0.59283   0.04803   0.76378   0.00000  Uiso   1.00
H912   H     0.64346   0.01848   0.78732   0.00000  Uiso   1.00
N913   N     0.88227   0.08523   0.87991   0.00000  Uiso   1.00
H914   H     0.85252   0.07612   0.86105   0.00000  Uiso   1.00
C915   C     0.87896   0.08822   0.93924   0.00000  Uiso   1.00
H916   H     0.86328   0.05371   0.95518   0.00000  Uiso   1.00
H917   H     0.85829   0.12054   0.95169   0.00000  Uiso   1.00
H918   H     0.91252   0.09199   0.95830   0.00000  Uiso   1.00
N919   N     0.61629   0.25683   0.82581   0.00000  Uiso   1.00
H920   H     0.64546   0.25778   0.80351   0.00000  Uiso   1.00
C921   C     0.62164   0.27644   0.88085   0.00000  Uiso   1.00
H922   H     0.63731   0.31374   0.87909   0.00000  Uiso   1.00
H923   H     0.64348   0.25173   0.90578   0.00000  Uiso   1.00
H924   H     0.58871   0.27986   0.90128   0.00000  Uiso   1.00
O925   O     0.25000   0.42845   0.87895   0.00000  Uiso   1.00
O926   O     0.25000   0.57155   0.78772   0.00000  Uiso   1.00
O927   O     0.25000   0.57155   0.87895   0.00000  Uiso   1.00
O928   O     0.25000   0.42845   0.78772   0.00000  Uiso   1.00
C929   C     0.24994   0.40599   0.83334   0.00000  Uiso   1.00
C930   C     0.24982   0.59401   0.83333   0.00000  Uiso   1.00
O931   O     0.18392   0.50000   0.87896   0.00000  Uiso   1.00
O932   O     0.31607   0.50000   0.78770   0.00000  Uiso   1.00
O933   O     0.31607   0.50000   0.87896   0.00000  Uiso   1.00
O934   O     0.18392   0.50000   0.78770   0.00000  Uiso   1.00
C935   C     0.16348   0.50005   0.83321   0.00000  Uiso   1.00
C936   C     0.33665   0.50002   0.83347   0.00000  Uiso   1.00
Zn937  Zn    0.25000   0.50000   0.89426   0.00000  Uiso   1.00
Zn938  Zn    0.25000   0.50000   0.77241   0.00000  Uiso   1.00
N939   N     0.25000   0.50000   0.69121   0.00000  Uiso   1.00
N940   N     0.25000   0.50000   0.97545   0.00000  Uiso   1.00
C941   C     0.40676   0.54114   0.81274   0.00000  Uiso   1.00
C942   C     0.09410   0.45385   0.83873   0.00000  Uiso   1.00
C943   C     0.40689   0.45804   0.85484   0.00000  Uiso   1.00
C944   C     0.09310   0.54381   0.82388   0.00000  Uiso   1.00
C945   C     0.38437   0.49961   0.83360   0.00000  Uiso   1.00
C946   C     0.11603   0.49931   0.83266   0.00000  Uiso   1.00
C947   C     0.45369   0.45576   0.85060   0.00000  Uiso   1.00
C948   C     0.04688   0.54215   0.81560   0.00000  Uiso   1.00
C949   C     0.45349   0.54057   0.81044   0.00000  Uiso   1.00
C950   C     0.04742   0.45378   0.84327   0.00000  Uiso   1.00
C951   C     0.47690   0.49799   0.83007   0.00000  Uiso   1.00
C952   C     0.02367   0.49787   0.82947   0.00000  Uiso   1.00
C953   C     0.47769   0.41255   0.86649   0.00000  Uiso   1.00
C954   C     0.02381   0.58319   0.79317   0.00000  Uiso   1.00
C955   C     0.47720   0.58082   0.78709   0.00000  Uiso   1.00
C956   C     0.02437   0.41097   0.86089   0.00000  Uiso   1.00
C957   C     0.24981   0.35505   0.83334   0.00000  Uiso   1.00
C958   C     0.24975   0.64495   0.83333   0.00000  Uiso   1.00
O959   O     0.45533   0.37148   0.88625   0.00000  Uiso   1.00
H960   H     0.47188   0.35875   0.91872   0.00000  Uiso   1.00
O961   O     0.04756   0.62388   0.77442   0.00000  Uiso   1.00
H962   H     0.02809   0.65369   0.77451   0.00000  Uiso   1.00
O963   O     0.45462   0.61657   0.75699   0.00000  Uiso   1.00
H964   H     0.47351   0.62682   0.72562   0.00000  Uiso   1.00
O965   O     0.04815   0.36872   0.87518   0.00000  Uiso   1.00
H966   H     0.02905   0.33896   0.87100   0.00000  Uiso   1.00
N967   N     0.38234   0.58496   0.79814   0.00000  Uiso   1.00
H968   H     0.35528   0.57955   0.77263   0.00000  Uiso   1.00
C969   C     0.37316   0.61816   0.84351   0.00000  Uiso   1.00
H970   H     0.34928   0.60074   0.87249   0.00000  Uiso   1.00
H971   H     0.35833   0.65320   0.82755   0.00000  Uiso   1.00
H972   H     0.40447   0.62732   0.86580   0.00000  Uiso   1.00
N973   N     0.11900   0.40848   0.83852   0.00000  Uiso   1.00
H974   H     0.14784   0.40889   0.86173   0.00000  Uiso   1.00
C975   C     0.12551   0.38783   0.78420   0.00000  Uiso   1.00
H976   H     0.14576   0.41344   0.75860   0.00000  Uiso   1.00
H977   H     0.09283   0.38136   0.76378   0.00000  Uiso   1.00
H978   H     0.14346   0.35181   0.78732   0.00000  Uiso   1.00
N979   N     0.38227   0.41856   0.87991   0.00000  Uiso   1.00
H980   H     0.35252   0.40945   0.86105   0.00000  Uiso   1.00
C981   C     0.37896   0.42155   0.93924   0.00000  Uiso   1.00
H982   H     0.36328   0.38704   0.95518   0.00000  Uiso   1.00
H983   H     0.35829   0.45388   0.95169   0.00000  Uiso   1.00
H984   H     0.41252   0.42532   0.95830   0.00000  Uiso   1.00
N985   N     0.11629   0.59017   0.82581   0.00000  Uiso   1.00
H986   H     0.14546   0.59111   0.80351   0.00000  Uiso   1.00
C987   C     0.12164   0.60977   0.88085   0.00000  Uiso   1.00
H988   H     0.13731   0.64708   0.87909   0.00000  Uiso   1.00
H989   H     0.14348   0.58507   0.90578   0.00000  Uiso   1.00
H990   H     0.08871   0.61319   0.90128   0.00000  Uiso   1.00
O991   O     0.75000   0.42845   0.87895   0.00000  Uiso   1.00
O992   O     0.75000   0.57155   0.78772   0.00000  Uiso   1.00
O993   O     0.75000   0.57155   0.87895   0.00000  Uiso   1.00
O994   O     0.75000   0.42845   0.78772   0.00000  Uiso   1.00
C995   C     0.74994   0.40599   0.83334   0.00000  Uiso   1.00
C996   C     0.74982   0.59401   0.83333   0.00000  Uiso   1.00
O997   O     0.68392   0.50000   0.87896   0.00000  Uiso   1.00
O998   O     0.81607   0.50000   0.78770   0.00000  Uiso   1.00
O999   O     0.81607   0.50000   0.87896   0.00000  Uiso   1.00
O1000  O     0.68392   0.50000   0.78770   0.00000  Uiso   1.00
C1001  C     0.66348   0.50005   0.83321   0.00000  Uiso   1.00
C1002  C     0.83665   0.50002   0.83347   0.00000  Uiso   1.00
Zn1003 Zn    0.75000   0.50000   0.89426   0.00000  Uiso   1.00
Zn1004 Zn    0.75000   0.50000   0.77241   0.00000  Uiso   1.00
N1005  N     0.75000   0.50000   0.69121   0.00000  Uiso   1.00
N1006  N     0.75000   0.50000   0.97545   0.00000  Uiso   1.00
C1007  C     0.90676   0.54114   0.81274   0.00000  Uiso   1.00
C1008  C     0.59410   0.45385   0.83873   0.00000  Uiso   1.00
C1009  C     0.90689   0.45804   0.85484   0.00000  Uiso   1.00
C1010  C     0.59310   0.54381   0.82388   0.00000  Uiso   1.00
C1011  C     0.88437   0.49961   0.83360   0.00000  Uiso   1.00
C1012  C     0.61603   0.49931   0.83266   0.00000  Uiso   1.00
C1013  C     0.95369   0.45576   0.85060   0.00000  Uiso   1.00
C1014  C     0.54688   0.54215   0.81560   0.00000  Uiso   1.00
C1015  C     0.95349   0.54057   0.81044   0.00000  Uiso   1.00
C1016  C     0.54742   0.45378   0.84327   0.00000  Uiso   1.00
C1017  C     0.97690   0.49799   0.83007   0.00000  Uiso   1.00
C1018  C     0.52367   0.49787   0.82947   0.00000  Uiso   1.00
C1019  C     0.97769   0.41255   0.86649   0.00000  Uiso   1.00
C1020  C     0.52381   0.58319   0.79317   0.00000  Uiso   1.00
C1021  C     0.97720   0.58082   0.78709   0.00000  Uiso   1.00
C1022  C     0.52437   0.41097   0.86089   0.00000  Uiso   1.00
C1023  C     0.74981   0.35505   0.83334   0.00000  Uiso   1.00
C1024  C     0.74975   0.64495   0.83333   0.00000  Uiso   1.00
O1025  O     0.95533   0.37148   0.88625   0.00000  Uiso   1.00
H1026  H     0.97188   0.35875   0.91872   0.00000  Uiso   1.00
O1027  O     0.54756   0.62388   0.77442   0.00000  Uiso   1.00
H1028  H     0.52809   0.65369   0.77451   0.00000  Uiso   1.00
O1029  O     0.95462   0.61657   0.75699   0.00000  Uiso   1.00
H1030  H     0.97351   0.62682   0.72562   0.00000  Uiso   1.00
O1031  O     0.54815   0.36872   0.87518   0.00000  Uiso   1.00
H1032  H     0.52905   0.33896   0.87100   0.00000  Uiso   1.00
N1033  N     0.88234   0.58496   0.79814   0.00000  Uiso   1.00
H1034  H     0.85528   0.57955   0.77263   0.00000  Uiso   1.00
C1035  C     0.87316   0.61816   0.84351   0.00000  Uiso   1.00
H1036  H     0.84928   0.60074   0.87249   0.00000  Uiso   1.00
H1037  H     0.85833   0.65320   0.82755   0.00000  Uiso   1.00
H1038  H     0.90447   0.62732   0.86580   0.00000  Uiso   1.00
N1039  N     0.61900   0.40848   0.83852   0.00000  Uiso   1.00
H1040  H     0.64784   0.40889   0.86173   0.00000  Uiso   1.00
C1041  C     0.62551   0.38783   0.78420   0.00000  Uiso   1.00
H1042  H     0.64576   0.41344   0.75860   0.00000  Uiso   1.00
H1043  H     0.59283   0.38136   0.76378   0.00000  Uiso   1.00
H1044  H     0.64346   0.35181   0.78732   0.00000  Uiso   1.00
N1045  N     0.88227   0.41856   0.87991   0.00000  Uiso   1.00
H1046  H     0.85252   0.40945   0.86105   0.00000  Uiso   1.00
C1047  C     0.87896   0.42155   0.93924   0.00000  Uiso   1.00
H1048  H     0.86328   0.38704   0.95518   0.00000  Uiso   1.00
H1049  H     0.85829   0.45388   0.95169   0.00000  Uiso   1.00
H1050  H     0.91252   0.42532   0.95830   0.00000  Uiso   1.00
N1051  N     0.61629   0.59017   0.82581   0.00000  Uiso   1.00
H1052  H     0.64546   0.59111   0.80351   0.00000  Uiso   1.00
C1053  C     0.62164   0.60977   0.88085   0.00000  Uiso   1.00
H1054  H     0.63731   0.64708   0.87909   0.00000  Uiso   1.00
H1055  H     0.64348   0.58507   0.90578   0.00000  Uiso   1.00
H1056  H     0.58871   0.61319   0.90128   0.00000  Uiso   1.00
O1057  O     0.25000   0.76178   0.87895   0.00000  Uiso   1.00
O1058  O     0.25000   0.90488   0.78772   0.00000  Uiso   1.00
O1059  O     0.25000   0.90488   0.87895   0.00000  Uiso   1.00
O1060  O     0.25000   0.76178   0.78772   0.00000  Uiso   1.00
C1061  C     0.24994   0.73932   0.83334   0.00000  Uiso   1.00
C1062  C     0.24982   0.92734   0.83333   0.00000  Uiso   1.00
O1063  O     0.18392   0.83333   0.87896   0.00000  Uiso   1.00
O1064  O     0.31607   0.83333   0.78770   0.00000  Uiso   1.00
O1065  O     0.31607   0.83333   0.87896   0.00000  Uiso   1.00
O1066  O     0.18392   0.83333   0.78770   0.00000  Uiso   1.00
C1067  C     0.16348   0.83338   0.83321   0.00000  Uiso   1.00
C1068  C     0.33665   0.83336   0.83347   0.00000  Uiso   1.00
Zn1069 Zn    0.25000   0.83333   0.89426   0.00000  Uiso   1.00
Zn1070 Zn    0.25000   0.83333   0.77241   0.00000  Uiso   1.00
N1071  N     0.25000   0.83333   0.69121   0.00000  Uiso   1.00
N1072  N     0.25000   0.83333   0.97545   0.00000  Uiso   1.00
C1073  C     0.40676   0.87447   0.81274   0.00000  Uiso   1.00
C1074  C     0.09410   0.78718   0.83873   0.00000  Uiso   1.00
C1075  C     0.40689   0.79137   0.85484   0.00000  Uiso   1.00
C1076  C     0.09310   0.87715   0.82388   0.00000  Uiso   1.00
C1077  C     0.38437   0.83294   0.83360   0.00000  Uiso   1.00
C1078  C     0.11603   0.83264   0.83266   0.00000  Uiso   1.00
C1079  C     0.45369   0.78910   0.85060   0.00000  Uiso   1.00
C1080  C     0.04688   0.87548   0.81560   0.00000  Uiso   1.00
C1081  C     0.45349   0.87390   0.81044   0.00000  Uiso   1.00
C1082  C     0.04742   0.78712   0.84327   0.00000  Uiso   1.00
C1083  C     0.47690   0.83132   0.83007   0.00000  Uiso   1.00
C1084  C     0.02367   0.83120   0.82947   0.00000  Uiso   1.00
C1085  C     0.47769   0.74589   0.86649   0.00000  Uiso   1.00
C1086  C     0.02381   0.91652   0.79317   0.00000  Uiso   1.00
C1087  C     0.47720   0.91416   0.78709   0.00000  Uiso   1.00
C1088  C     0.02437   0.74430   0.86089   0.00000  Uiso   1.00
C1089  C     0.24981   0.68838   0.83334   0.00000  Uiso   1.00
C1090  C     0.24975   0.97828   0.83333   0.00000  Uiso   1.00
O1091  O     0.45533   0.70482   0.88625   0.00000  Uiso   1.00
H1092  H     0.47188   0.69208   0.91872   0.00000  Uiso   1.00
O1093  O     0.04756   0.95722   0.77442   0.00000  Uiso   1.00
H1094  H     0.02809   0.98703   0.77451   0.00000  Uiso   1.00
O1095  O     0.45462   0.94991   0.75699   0.00000  Uiso   1.00
H1096  H     0.47351   0.96016   0.72562   0.00000  Uiso   1.00
O1097  O     0.04815   0.70205   0.87518   0.00000  Uiso   1.00
H1098  H     0.02905   0.67229   0.87100   0.00000  Uiso   1.00
N1099  N     0.38234   0.91830   0.79814   0.00000  Uiso   1.00
H1100  H     0.35528   0.91288   0.77263   0.00000  Uiso   1.00
C1101  C     0.37316   0.95149   0.84351   0.00000  Uiso   1.00
H1102  H     0.34928   0.93407   0.87249   0.00000  Uiso   1.00
H1103  H     0.35833   0.98653   0.82755   0.00000  Uiso   1.00
H1104  H     0.40447   0.96065   0.86580   0.00000  Uiso   1.00
N1105  N     0.11900   0.74181   0.83852   0.00000  Uiso   1.00
H1106  H     0.14784   0.74222   0.86173   0.00000  Uiso   1.00
C1107  C     0.12551   0.72116   0.78420   0.00000  Uiso   1.00
H1108  H     0.14576   0.74677   0.75860   0.00000  Uiso   1.00
H1109  H     0.09283   0.71469   0.76378   0.00000  Uiso   1.00
H1110  H     0.14346   0.68515   0.78732   0.00000  Uiso   1.00
N1111  N     0.38227   0.75189   0.87991   0.00000  Uiso   1.00
H1112  H     0.35252   0.74278   0.86105   0.00000  Uiso   1.00
C1113  C     0.37896   0.75488   0.93924   0.00000  Uiso   1.00
H1114  H     0.36328   0.72037   0.95518   0.00000  Uiso   1.00
H1115  H     0.35829   0.78721   0.95169   0.00000  Uiso   1.00
H1116  H     0.41252   0.75866   0.95830   0.00000  Uiso   1.00
N1117  N     0.11629   0.92350   0.82581   0.00000  Uiso   1.00
H1118  H     0.14546   0.92445   0.80351   0.00000  Uiso   1.00
C1119  C     0.12164   0.94310   0.88085   0.00000  Uiso   1.00
H1120  H     0.13731   0.98041   0.87909   0.00000  Uiso   1.00
H1121  H     0.14348   0.91840   0.90578   0.00000  Uiso   1.00
H1122  H     0.08871   0.94653   0.90128   0.00000  Uiso   1.00
O1123  O     0.75000   0.76178   0.87895   0.00000  Uiso   1.00
O1124  O     0.75000   0.90488   0.78772   0.00000  Uiso   1.00
O1125  O     0.75000   0.90488   0.87895   0.00000  Uiso   1.00
O1126  O     0.75000   0.76178   0.78772   0.00000  Uiso   1.00
C1127  C     0.74994   0.73932   0.83334   0.00000  Uiso   1.00
C1128  C     0.74982   0.92734   0.83333   0.00000  Uiso   1.00
O1129  O     0.68392   0.83333   0.87896   0.00000  Uiso   1.00
O1130  O     0.81607   0.83333   0.78770   0.00000  Uiso   1.00
O1131  O     0.81607   0.83333   0.87896   0.00000  Uiso   1.00
O1132  O     0.68392   0.83333   0.78770   0.00000  Uiso   1.00
C1133  C     0.66348   0.83338   0.83321   0.00000  Uiso   1.00
C1134  C     0.83665   0.83336   0.83347   0.00000  Uiso   1.00
Zn1135 Zn    0.75000   0.83333   0.89426   0.00000  Uiso   1.00
Zn1136 Zn    0.75000   0.83333   0.77241   0.00000  Uiso   1.00
N1137  N     0.75000   0.83333   0.69121   0.00000  Uiso   1.00
N1138  N     0.75000   0.83333   0.97545   0.00000  Uiso   1.00
C1139  C     0.90676   0.87447   0.81274   0.00000  Uiso   1.00
C1140  C     0.59410   0.78718   0.83873   0.00000  Uiso   1.00
C1141  C     0.90689   0.79137   0.85484   0.00000  Uiso   1.00
C1142  C     0.59310   0.87715   0.82388   0.00000  Uiso   1.00
C1143  C     0.88437   0.83294   0.83360   0.00000  Uiso   1.00
C1144  C     0.61603   0.83264   0.83266   0.00000  Uiso   1.00
C1145  C     0.95369   0.78910   0.85060   0.00000  Uiso   1.00
C1146  C     0.54688   0.87548   0.81560   0.00000  Uiso   1.00
C1147  C     0.95349   0.87390   0.81044   0.00000  Uiso   1.00
C1148  C     0.54742   0.78712   0.84327   0.00000  Uiso   1.00
C1149  C     0.97690   0.83132   0.83007   0.00000  Uiso   1.00
C1150  C     0.52367   0.83120   0.82947   0.00000  Uiso   1.00
C1151  C     0.97769   0.74589   0.86649   0.00000  Uiso   1.00
C1152  C     0.52381   0.91652   0.79317   0.00000  Uiso   1.00
C1153  C     0.97720   0.91416   0.78709   0.00000  Uiso   1.00
C1154  C     0.52437   0.74430   0.86089   0.00000  Uiso   1.00
C1155  C     0.74981   0.68838   0.83334   0.00000  Uiso   1.00
C1156  C     0.74975   0.97828   0.83333   0.00000  Uiso   1.00
O1157  O     0.95533   0.70482   0.88625   0.00000  Uiso   1.00
H1158  H     0.97188   0.69208   0.91872   0.00000  Uiso   1.00
O1159  O     0.54756   0.95722   0.77442   0.00000  Uiso   1.00
H1160  H     0.52809   0.98703   0.77451   0.00000  Uiso   1.00
O1161  O     0.95462   0.94991   0.75699   0.00000  Uiso   1.00
H1162  H     0.97351   0.96016   0.72562   0.00000  Uiso   1.00
O1163  O     0.54815   0.70205   0.87518   0.00000  Uiso   1.00
H1164  H     0.52905   0.67229   0.87100   0.00000  Uiso   1.00
N1165  N     0.88234   0.91830   0.79814   0.00000  Uiso   1.00
H1166  H     0.85528   0.91288   0.77263   0.00000  Uiso   1.00
C1167  C     0.87316   0.95149   0.84351   0.00000  Uiso   1.00
H1168  H     0.84928   0.93407   0.87249   0.00000  Uiso   1.00
H1169  H     0.85833   0.98653   0.82755   0.00000  Uiso   1.00
H1170  H     0.90447   0.96065   0.86580   0.00000  Uiso   1.00
N1171  N     0.61900   0.74181   0.83852   0.00000  Uiso   1.00
H1172  H     0.64784   0.74222   0.86173   0.00000  Uiso   1.00
C1173  C     0.62551   0.72116   0.78420   0.00000  Uiso   1.00
H1174  H     0.64576   0.74677   0.75860   0.00000  Uiso   1.00
H1175  H     0.59283   0.71469   0.76378   0.00000  Uiso   1.00
H1176  H     0.64346   0.68515   0.78732   0.00000  Uiso   1.00
N1177  N     0.88227   0.75189   0.87991   0.00000  Uiso   1.00
H1178  H     0.85252   0.74278   0.86105   0.00000  Uiso   1.00
C1179  C     0.87896   0.75488   0.93924   0.00000  Uiso   1.00
H1180  H     0.86328   0.72037   0.95518   0.00000  Uiso   1.00
H1181  H     0.85829   0.78721   0.95169   0.00000  Uiso   1.00
H1182  H     0.91252   0.75866   0.95830   0.00000  Uiso   1.00
N1183  N     0.61629   0.92350   0.82581   0.00000  Uiso   1.00
H1184  H     0.64546   0.92445   0.80351   0.00000  Uiso   1.00
C1185  C     0.62164   0.94310   0.88085   0.00000  Uiso   1.00
H1186  H     0.63731   0.98041   0.87909   0.00000  Uiso   1.00
H1187  H     0.64348   0.91840   0.90578   0.00000  Uiso   1.00
H1188  H     0.58871   0.94653   0.90128   0.00000  Uiso   1.00
loop_
_geom_bond_atom_site_label_1
_geom_bond_atom_site_label_2
_geom_bond_distance
_geom_bond_site_symmetry_2
_ccdc_geom_bond_type
O1     C5      1.263   .     A
O1     Zn13    1.958   .     S
O2     C6      1.263   .     A
O2     Zn14    1.958   .     S
O3     Zn13    1.958   .     S
O3     C6      1.263   .     A
O4     Zn14    1.958   .     S
O4     C5      1.263   .     A
C5     C33     1.368   .     S
C6     C34     1.368   .     S
O7     C11     1.269   .     A
O7     Zn13    2.014   .     S
O8     C12     1.271   .     A
O8     Zn14    2.014   .     S
O9     C12     1.269   .     A
O9     Zn13    2.016   .     S
O10    C11     1.267   .     A
O10    Zn14    2.016   .     S
C11    C22     1.422   .     S
C12    C21     1.430   .     S
Zn13   N16     1.976   .     S
Zn14   N15     1.976   .     S
N15    N808    1.195   1_554 S
N16    N411    1.195   .     S
C17    C25     1.402   .     A
C17    N43     1.429   .     S
C17    C21     1.399   .     A
C18    C26     1.404   .     A
C18    C22     1.396   .     A
C18    N49     1.428   .     S
C19    C23     1.408   .     A
C19    C21     1.402   .     A
C19    N55     1.431   .     S
C20    C22     1.394   .     A
C20    C24     1.400   .     A
C20    N61     1.427   .     S
C23    C27     1.423   .     A
C23    C29     1.418   .     A
C24    C30     1.409   .     A
C24    C28     1.420   .     A
C25    C31     1.415   .     A
C25    C27     1.423   .     A
C26    C32     1.410   .     A
C26    C28     1.420   .     A
C27    C94     1.402   .     S
C28    C93     1.402   1_455 S
C29    O35     1.379   .     S
C29    C98     1.407   .     S
C30    O37     1.383   .     S
C30    C97     1.406   1_455 S
C31    O39     1.382   .     S
C31    C96     1.406   .     S
C32    O41     1.383   .     S
C32    C95     1.407   1_455 S
C33    C298    1.167   1_545 S
C34    C165    1.167   .     S
O35    H36     0.992   .     S
O37    H38     0.990   .     S
O39    H40     0.991   .     S
O41    H42     0.989   .     S
N43    H44     1.030   .     S
N43    C45     1.446   .     S
C45    H46     1.110   .     S
C45    H47     1.110   .     S
C45    H48     1.110   .     S
N49    H50     1.031   .     S
N49    C51     1.447   .     S
C51    H54     1.109   .     S
C51    H52     1.110   .     S
C51    H53     1.111   .     S
N55    H56     1.031   .     S
N55    C57     1.450   .     S
C57    H58     1.110   .     S
C57    H59     1.109   .     S
C57    H60     1.111   .     S
N61    H62     1.031   .     S
N61    C63     1.447   .     S
C63    H65     1.110   .     S
C63    H66     1.111   .     S
C63    H64     1.108   .     S
O67    C71     1.263   .     A
O67    Zn79    1.958   .     S
O68    C72     1.263   .     A
O68    Zn80    1.958   .     S
O69    Zn79    1.958   .     S
O69    C72     1.263   .     A
O70    Zn80    1.958   .     S
O70    C71     1.263   .     A
C71    C99     1.368   .     S
C72    C100    1.368   .     S
O73    C77     1.269   .     A
O73    Zn79    2.014   .     S
O74    C78     1.271   .     A
O74    Zn80    2.014   .     S
O75    C78     1.269   .     A
O75    Zn79    2.016   .     S
O76    C77     1.267   .     A
O76    Zn80    2.016   .     S
C77    C88     1.422   .     S
C78    C87     1.430   .     S
Zn79   N82     1.976   .     S
Zn80   N81     1.976   .     S
N81    N874    1.195   1_554 S
N82    N477    1.195   .     S
C83    C91     1.402   .     A
C83    N109    1.429   .     S
C83    C87     1.399   .     A
C84    C92     1.404   .     A
C84    C88     1.396   .     A
C84    N115    1.428   .     S
C85    C89     1.408   .     A
C85    C87     1.402   .     A
C85    N121    1.431   .     S
C86    C88     1.394   .     A
C86    C90     1.400   .     A
C86    N127    1.427   .     S
C89    C93     1.423   .     A
C89    C95     1.418   .     A
C90    C96     1.409   .     A
C90    C94     1.420   .     A
C91    C97     1.415   .     A
C91    C93     1.423   .     A
C92    C98     1.410   .     A
C92    C94     1.420   .     A
C93    C28     1.402   1_655 S
C95    O101    1.379   .     S
C95    C32     1.407   1_655 S
C96    O103    1.383   .     S
C97    O105    1.382   .     S
C97    C30     1.406   1_655 S
C98    O107    1.383   .     S
C99    C364    1.167   1_545 S
C100   C231    1.167   .     S
O101   H102    0.992   .     S
O103   H104    0.990   .     S
O105   H106    0.991   .     S
O107   H108    0.989   .     S
N109   H110    1.030   .     S
N109   C111    1.446   .     S
C111   H112    1.110   .     S
C111   H113    1.110   .     S
C111   H114    1.110   .     S
N115   H116    1.031   .     S
N115   C117    1.447   .     S
C117   H120    1.109   .     S
C117   H118    1.110   .     S
C117   H119    1.111   .     S
N121   H122    1.031   .     S
N121   C123    1.450   .     S
C123   H124    1.110   .     S
C123   H125    1.109   .     S
C123   H126    1.111   .     S
N127   H128    1.031   .     S
N127   C129    1.447   .     S
C129   H131    1.110   .     S
C129   H132    1.111   .     S
C129   H130    1.108   .     S
O133   C137    1.263   .     A
O133   Zn145   1.958   .     S
O134   C138    1.263   .     A
O134   Zn146   1.958   .     S
O135   Zn145   1.958   .     S
O135   C138    1.263   .     A
O136   Zn146   1.958   .     S
O136   C137    1.263   .     A
C137   C165    1.368   .     S
C138   C166    1.368   .     S
O139   C143    1.269   .     A
O139   Zn145   2.014   .     S
O140   C144    1.271   .     A
O140   Zn146   2.014   .     S
O141   C144    1.269   .     A
O141   Zn145   2.016   .     S
O142   C143    1.267   .     A
O142   Zn146   2.016   .     S
C143   C154    1.422   .     S
C144   C153    1.430   .     S
Zn145  N148    1.976   .     S
Zn146  N147    1.976   .     S
N147   N940    1.195   1_554 S
N148   N543    1.195   .     S
C149   C157    1.402   .     A
C149   N175    1.429   .     S
C149   C153    1.399   .     A
C150   C158    1.404   .     A
C150   C154    1.396   .     A
C150   N181    1.428   .     S
C151   C155    1.408   .     A
C151   C153    1.402   .     A
C151   N187    1.431   .     S
C152   C154    1.394   .     A
C152   C156    1.400   .     A
C152   N193    1.427   .     S
C155   C159    1.423   .     A
C155   C161    1.418   .     A
C156   C162    1.409   .     A
C156   C160    1.420   .     A
C157   C163    1.415   .     A
C157   C159    1.423   .     A
C158   C164    1.410   .     A
C158   C160    1.420   .     A
C159   C226    1.402   .     S
C160   C225    1.402   1_455 S
C161   O167    1.379   .     S
C161   C230    1.407   .     S
C162   O169    1.383   .     S
C162   C229    1.406   1_455 S
C163   O171    1.382   .     S
C163   C228    1.406   .     S
C164   O173    1.383   .     S
C164   C227    1.407   1_455 S
C166   C297    1.167   .     S
O167   H168    0.992   .     S
O169   H170    0.990   .     S
O171   H172    0.991   .     S
O173   H174    0.989   .     S
N175   H176    1.030   .     S
N175   C177    1.446   .     S
C177   H178    1.110   .     S
C177   H179    1.110   .     S
C177   H180    1.110   .     S
N181   H182    1.031   .     S
N181   C183    1.447   .     S
C183   H186    1.109   .     S
C183   H184    1.110   .     S
C183   H185    1.111   .     S
N187   H188    1.031   .     S
N187   C189    1.450   .     S
C189   H190    1.110   .     S
C189   H191    1.109   .     S
C189   H192    1.111   .     S
N193   H194    1.031   .     S
N193   C195    1.447   .     S
C195   H197    1.110   .     S
C195   H198    1.111   .     S
C195   H196    1.108   .     S
O199   C203    1.263   .     A
O199   Zn211   1.958   .     S
O200   C204    1.263   .     A
O200   Zn212   1.958   .     S
O201   Zn211   1.958   .     S
O201   C204    1.263   .     A
O202   Zn212   1.958   .     S
O202   C203    1.263   .     A
C203   C231    1.368   .     S
C204   C232    1.368   .     S
O205   C209    1.269   .     A
O205   Zn211   2.014   .     S
O206   C210    1.271   .     A
O206   Zn212   2.014   .     S
O207   C210    1.269   .     A
O207   Zn211   2.016   .     S
O208   C209    1.267   .     A
O208   Zn212   2.016   .     S
C209   C220    1.422   .     S
C210   C219    1.430   .     S
Zn211  N214    1.976   .     S
Zn212  N213    1.976   .     S
N213   N1006   1.195   1_554 S
N214   N609    1.195   .     S
C215   C223    1.402   .     A
C215   N241    1.429   .     S
C215   C219    1.399   .     A
C216   C224    1.404   .     A
C216   C220    1.396   .     A
C216   N247    1.428   .     S
C217   C221    1.408   .     A
C217   C219    1.402   .     A
C217   N253    1.431   .     S
C218   C220    1.394   .     A
C218   C222    1.400   .     A
C218   N259    1.427   .     S
C221   C225    1.423   .     A
C221   C227    1.418   .     A
C222   C228    1.409   .     A
C222   C226    1.420   .     A
C223   C229    1.415   .     A
C223   C225    1.423   .     A
C224   C230    1.410   .     A
C224   C226    1.420   .     A
C225   C160    1.402   1_655 S
C227   O233    1.379   .     S
C227   C164    1.407   1_655 S
C228   O235    1.383   .     S
C229   O237    1.382   .     S
C229   C162    1.406   1_655 S
C230   O239    1.383   .     S
C232   C363    1.167   .     S
O233   H234    0.992   .     S
O235   H236    0.990   .     S
O237   H238    0.991   .     S
O239   H240    0.989   .     S
N241   H242    1.030   .     S
N241   C243    1.446   .     S
C243   H244    1.110   .     S
C243   H245    1.110   .     S
C243   H246    1.110   .     S
N247   H248    1.031   .     S
N247   C249    1.447   .     S
C249   H252    1.109   .     S
C249   H250    1.110   .     S
C249   H251    1.111   .     S
N253   H254    1.031   .     S
N253   C255    1.450   .     S
C255   H256    1.110   .     S
C255   H257    1.109   .     S
C255   H258    1.111   .     S
N259   H260    1.031   .     S
N259   C261    1.447   .     S
C261   H263    1.110   .     S
C261   H264    1.111   .     S
C261   H262    1.108   .     S
O265   C269    1.263   .     A
O265   Zn277   1.958   .     S
O266   C270    1.263   .     A
O266   Zn278   1.958   .     S
O267   Zn277   1.958   .     S
O267   C270    1.263   .     A
O268   Zn278   1.958   .     S
O268   C269    1.263   .     A
C269   C297    1.368   .     S
C270   C298    1.368   .     S
O271   C275    1.269   .     A
O271   Zn277   2.014   .     S
O272   C276    1.271   .     A
O272   Zn278   2.014   .     S
O273   C276    1.269   .     A
O273   Zn277   2.016   .     S
O274   C275    1.267   .     A
O274   Zn278   2.016   .     S
C275   C286    1.422   .     S
C276   C285    1.430   .     S
Zn277  N280    1.976   .     S
Zn278  N279    1.976   .     S
N279   N1072   1.195   1_554 S
N280   N675    1.195   .     S
C281   C289    1.402   .     A
C281   N307    1.429   .     S
C281   C285    1.399   .     A
C282   C290    1.404   .     A
C282   C286    1.396   .     A
C282   N313    1.428   .     S
C283   C287    1.408   .     A
C283   C285    1.402   .     A
C283   N319    1.431   .     S
C284   C286    1.394   .     A
C284   C288    1.400   .     A
C284   N325    1.427   .     S
C287   C291    1.423   .     A
C287   C293    1.418   .     A
C288   C294    1.409   .     A
C288   C292    1.420   .     A
C289   C295    1.415   .     A
C289   C291    1.423   .     A
C290   C296    1.410   .     A
C290   C292    1.420   .     A
C291   C358    1.402   .     S
C292   C357    1.402   1_455 S
C293   O299    1.379   .     S
C293   C362    1.407   .     S
C294   O301    1.383   .     S
C294   C361    1.406   1_455 S
C295   O303    1.382   .     S
C295   C360    1.406   .     S
C296   O305    1.383   .     S
C296   C359    1.407   1_455 S
C298   C33     1.167   1_565 S
O299   H300    0.992   .     S
O301   H302    0.990   .     S
O303   H304    0.991   .     S
O305   H306    0.989   .     S
N307   H308    1.030   .     S
N307   C309    1.446   .     S
C309   H310    1.110   .     S
C309   H311    1.110   .     S
C309   H312    1.110   .     S
N313   H314    1.031   .     S
N313   C315    1.447   .     S
C315   H318    1.109   .     S
C315   H316    1.110   .     S
C315   H317    1.111   .     S
N319   H320    1.031   .     S
N319   C321    1.450   .     S
C321   H322    1.110   .     S
C321   H323    1.109   .     S
C321   H324    1.111   .     S
N325   H326    1.031   .     S
N325   C327    1.447   .     S
C327   H329    1.110   .     S
C327   H330    1.111   .     S
C327   H328    1.108   .     S
O331   C335    1.263   .     A
O331   Zn343   1.958   .     S
O332   C336    1.263   .     A
O332   Zn344   1.958   .     S
O333   Zn343   1.958   .     S
O333   C336    1.263   .     A
O334   Zn344   1.958   .     S
O334   C335    1.263   .     A
C335   C363    1.368   .     S
C336   C364    1.368   .     S
O337   C341    1.269   .     A
O337   Zn343   2.014   .     S
O338   C342    1.271   .     A
O338   Zn344   2.014   .     S
O339   C342    1.269   .     A
O339   Zn343   2.016   .     S
O340   C341    1.267   .     A
O340   Zn344   2.016   .     S
C341   C352    1.422   .     S
C342   C351    1.430   .     S
Zn343  N346    1.976   .     S
Zn344  N345    1.976   .     S
N345   N1138   1.195   1_554 S
N346   N741    1.195   .     S
C347   C355    1.402   .     A
C347   N373    1.429   .     S
C347   C351    1.399   .     A
C348   C356    1.404   .     A
C348   C352    1.396   .     A
C348   N379    1.428   .     S
C349   C353    1.408   .     A
C349   C351    1.402   .     A
C349   N385    1.431   .     S
C350   C352    1.394   .     A
C350   C354    1.400   .     A
C350   N391    1.427   .     S
C353   C357    1.423   .     A
C353   C359    1.418   .     A
C354   C360    1.409   .     A
C354   C358    1.420   .     A
C355   C361    1.415   .     A
C355   C357    1.423   .     A
C356   C362    1.410   .     A
C356   C358    1.420   .     A
C357   C292    1.402   1_655 S
C359   O365    1.379   .     S
C359   C296    1.407   1_655 S
C360   O367    1.383   .     S
C361   O369    1.382   .     S
C361   C294    1.406   1_655 S
C362   O371    1.383   .     S
C364   C99     1.167   1_565 S
O365   H366    0.992   .     S
O367   H368    0.990   .     S
O369   H370    0.991   .     S
O371   H372    0.989   .     S
N373   H374    1.030   .     S
N373   C375    1.446   .     S
C375   H376    1.110   .     S
C375   H377    1.110   .     S
C375   H378    1.110   .     S
N379   H380    1.031   .     S
N379   C381    1.447   .     S
C381   H384    1.109   .     S
C381   H382    1.110   .     S
C381   H383    1.111   .     S
N385   H386    1.031   .     S
N385   C387    1.450   .     S
C387   H388    1.110   .     S
C387   H389    1.109   .     S
C387   H390    1.111   .     S
N391   H392    1.031   .     S
N391   C393    1.447   .     S
C393   H395    1.110   .     S
C393   H396    1.111   .     S
C393   H394    1.108   .     S
O397   C401    1.263   .     A
O397   Zn409   1.958   .     S
O398   C402    1.263   .     A
O398   Zn410   1.958   .     S
O399   Zn409   1.958   .     S
O399   C402    1.263   .     A
O400   Zn410   1.958   .     S
O400   C401    1.263   .     A
C401   C429    1.368   .     S
C402   C430    1.368   .     S
O403   C407    1.269   .     A
O403   Zn409   2.014   .     S
O404   C408    1.271   .     A
O404   Zn410   2.014   .     S
O405   C408    1.269   .     A
O405   Zn409   2.016   .     S
O406   C407    1.267   .     A
O406   Zn410   2.016   .     S
C407   C418    1.422   .     S
C408   C417    1.430   .     S
Zn409  N412    1.976   .     S
Zn410  N411    1.976   .     S
N412   N807    1.195   .     S
C413   C421    1.402   .     A
C413   N439    1.429   .     S
C413   C417    1.399   .     A
C414   C422    1.404   .     A
C414   C418    1.396   .     A
C414   N445    1.428   .     S
C415   C419    1.408   .     A
C415   C417    1.402   .     A
C415   N451    1.431   .     S
C416   C418    1.394   .     A
C416   C420    1.400   .     A
C416   N457    1.427   .     S
C419   C423    1.423   .     A
C419   C425    1.418   .     A
C420   C426    1.409   .     A
C420   C424    1.420   .     A
C421   C427    1.415   .     A
C421   C423    1.423   .     A
C422   C428    1.410   .     A
C422   C424    1.420   .     A
C423   C490    1.402   .     S
C424   C489    1.402   1_455 S
C425   O431    1.379   .     S
C425   C494    1.407   .     S
C426   O433    1.383   .     S
C426   C493    1.406   1_455 S
C427   O435    1.382   .     S
C427   C492    1.406   .     S
C428   O437    1.383   .     S
C428   C491    1.407   1_455 S
C429   C694    1.167   1_545 S
C430   C561    1.167   .     S
O431   H432    0.992   .     S
O433   H434    0.990   .     S
O435   H436    0.991   .     S
O437   H438    0.989   .     S
N439   H440    1.030   .     S
N439   C441    1.446   .     S
C441   H442    1.110   .     S
C441   H443    1.110   .     S
C441   H444    1.110   .     S
N445   H446    1.031   .     S
N445   C447    1.447   .     S
C447   H450    1.109   .     S
C447   H448    1.110   .     S
C447   H449    1.111   .     S
N451   H452    1.031   .     S
N451   C453    1.450   .     S
C453   H454    1.110   .     S
C453   H455    1.109   .     S
C453   H456    1.111   .     S
N457   H458    1.031   .     S
N457   C459    1.447   .     S
C459   H461    1.110   .     S
C459   H462    1.111   .     S
C459   H460    1.108   .     S
O463   C467    1.263   .     A
O463   Zn475   1.958   .     S
O464   C468    1.263   .     A
O464   Zn476   1.958   .     S
O465   Zn475   1.958   .     S
O465   C468    1.263   .     A
O466   Zn476   1.958   .     S
O466   C467    1.263   .     A
C467   C495    1.368   .     S
C468   C496    1.368   .     S
O469   C473    1.269   .     A
O469   Zn475   2.014   .     S
O470   C474    1.271   .     A
O470   Zn476   2.014   .     S
O471   C474    1.269   .     A
O471   Zn475   2.016   .     S
O472   C473    1.267   .     A
O472   Zn476   2.016   .     S
C473   C484    1.422   .     S
C474   C483    1.430   .     S
Zn475  N478    1.976   .     S
Zn476  N477    1.976   .     S
N478   N873    1.195   .     S
C479   C487    1.402   .     A
C479   N505    1.429   .     S
C479   C483    1.399   .     A
C480   C488    1.404   .     A
C480   C484    1.396   .     A
C480   N511    1.428   .     S
C481   C485    1.408   .     A
C481   C483    1.402   .     A
C481   N517    1.431   .     S
C482   C484    1.394   .     A
C482   C486    1.400   .     A
C482   N523    1.427   .     S
C485   C489    1.423   .     A
C485   C491    1.418   .     A
C486   C492    1.409   .     A
C486   C490    1.420   .     A
C487   C493    1.415   .     A
C487   C489    1.423   .     A
C488   C494    1.410   .     A
C488   C490    1.420   .     A
C489   C424    1.402   1_655 S
C491   O497    1.379   .     S
C491   C428    1.407   1_655 S
C492   O499    1.383   .     S
C493   O501    1.382   .     S
C493   C426    1.406   1_655 S
C494   O503    1.383   .     S
C495   C760    1.167   1_545 S
C496   C627    1.167   .     S
O497   H498    0.992   .     S
O499   H500    0.990   .     S
O501   H502    0.991   .     S
O503   H504    0.989   .     S
N505   H506    1.030   .     S
N505   C507    1.446   .     S
C507   H508    1.110   .     S
C507   H509    1.110   .     S
C507   H510    1.110   .     S
N511   H512    1.031   .     S
N511   C513    1.447   .     S
C513   H516    1.109   .     S
C513   H514    1.110   .     S
C513   H515    1.111   .     S
N517   H518    1.031   .     S
N517   C519    1.450   .     S
C519   H520    1.110   .     S
C519   H521    1.109   .     S
C519   H522    1.111   .     S
N523   H524    1.031   .     S
N523   C525    1.447   .     S
C525   H527    1.110   .     S
C525   H528    1.111   .     S
C525   H526    1.108   .     S
O529   C533    1.263   .     A
O529   Zn541   1.958   .     S
O530   C534    1.263   .     A
O530   Zn542   1.958   .     S
O531   Zn541   1.958   .     S
O531   C534    1.263   .     A
O532   Zn542   1.958   .     S
O532   C533    1.263   .     A
C533   C561    1.368   .     S
C534   C562    1.368   .     S
O535   C539    1.269   .     A
O535   Zn541   2.014   .     S
O536   C540    1.271   .     A
O536   Zn542   2.014   .     S
O537   C540    1.269   .     A
O537   Zn541   2.016   .     S
O538   C539    1.267   .     A
O538   Zn542   2.016   .     S
C539   C550    1.422   .     S
C540   C549    1.430   .     S
Zn541  N544    1.976   .     S
Zn542  N543    1.976   .     S
N544   N939    1.195   .     S
C545   C553    1.402   .     A
C545   N571    1.429   .     S
C545   C549    1.399   .     A
C546   C554    1.404   .     A
C546   C550    1.396   .     A
C546   N577    1.428   .     S
C547   C551    1.408   .     A
C547   C549    1.402   .     A
C547   N583    1.431   .     S
C548   C550    1.394   .     A
C548   C552    1.400   .     A
C548   N589    1.427   .     S
C551   C555    1.423   .     A
C551   C557    1.418   .     A
C552   C558    1.409   .     A
C552   C556    1.420   .     A
C553   C559    1.415   .     A
C553   C555    1.423   .     A
C554   C560    1.410   .     A
C554   C556    1.420   .     A
C555   C622    1.402   .     S
C556   C621    1.402   1_455 S
C557   O563    1.379   .     S
C557   C626    1.407   .     S
C558   O565    1.383   .     S
C558   C625    1.406   1_455 S
C559   O567    1.382   .     S
C559   C624    1.406   .     S
C560   O569    1.383   .     S
C560   C623    1.407   1_455 S
C562   C693    1.167   .     S
O563   H564    0.992   .     S
O565   H566    0.990   .     S
O567   H568    0.991   .     S
O569   H570    0.989   .     S
N571   H572    1.030   .     S
N571   C573    1.446   .     S
C573   H574    1.110   .     S
C573   H575    1.110   .     S
C573   H576    1.110   .     S
N577   H578    1.031   .     S
N577   C579    1.447   .     S
C579   H582    1.109   .     S
C579   H580    1.110   .     S
C579   H581    1.111   .     S
N583   H584    1.031   .     S
N583   C585    1.450   .     S
C585   H586    1.110   .     S
C585   H587    1.109   .     S
C585   H588    1.111   .     S
N589   H590    1.031   .     S
N589   C591    1.447   .     S
C591   H593    1.110   .     S
C591   H594    1.111   .     S
C591   H592    1.108   .     S
O595   C599    1.263   .     A
O595   Zn607   1.958   .     S
O596   C600    1.263   .     A
O596   Zn608   1.958   .     S
O597   Zn607   1.958   .     S
O597   C600    1.263   .     A
O598   Zn608   1.958   .     S
O598   C599    1.263   .     A
C599   C627    1.368   .     S
C600   C628    1.368   .     S
O601   C605    1.269   .     A
O601   Zn607   2.014   .     S
O602   C606    1.271   .     A
O602   Zn608   2.014   .     S
O603   C606    1.269   .     A
O603   Zn607   2.016   .     S
O604   C605    1.267   .     A
O604   Zn608   2.016   .     S
C605   C616    1.422   .     S
C606   C615    1.430   .     S
Zn607  N610    1.976   .     S
Zn608  N609    1.976   .     S
N610   N1005   1.195   .     S
C611   C619    1.402   .     A
C611   N637    1.429   .     S
C611   C615    1.399   .     A
C612   C620    1.404   .     A
C612   C616    1.396   .     A
C612   N643    1.428   .     S
C613   C617    1.408   .     A
C613   C615    1.402   .     A
C613   N649    1.431   .     S
C614   C616    1.394   .     A
C614   C618    1.400   .     A
C614   N655    1.427   .     S
C617   C621    1.423   .     A
C617   C623    1.418   .     A
C618   C624    1.409   .     A
C618   C622    1.420   .     A
C619   C625    1.415   .     A
C619   C621    1.423   .     A
C620   C626    1.410   .     A
C620   C622    1.420   .     A
C621   C556    1.402   1_655 S
C623   O629    1.379   .     S
C623   C560    1.407   1_655 S
C624   O631    1.383   .     S
C625   O633    1.382   .     S
C625   C558    1.406   1_655 S
C626   O635    1.383   .     S
C628   C759    1.167   .     S
O629   H630    0.992   .     S
O631   H632    0.990   .     S
O633   H634    0.991   .     S
O635   H636    0.989   .     S
N637   H638    1.030   .     S
N637   C639    1.446   .     S
C639   H640    1.110   .     S
C639   H641    1.110   .     S
C639   H642    1.110   .     S
N643   H644    1.031   .     S
N643   C645    1.447   .     S
C645   H648    1.109   .     S
C645   H646    1.110   .     S
C645   H647    1.111   .     S
N649   H650    1.031   .     S
N649   C651    1.450   .     S
C651   H652    1.110   .     S
C651   H653    1.109   .     S
C651   H654    1.111   .     S
N655   H656    1.031   .     S
N655   C657    1.447   .     S
C657   H659    1.110   .     S
C657   H660    1.111   .     S
C657   H658    1.108   .     S
O661   C665    1.263   .     A
O661   Zn673   1.958   .     S
O662   C666    1.263   .     A
O662   Zn674   1.958   .     S
O663   Zn673   1.958   .     S
O663   C666    1.263   .     A
O664   Zn674   1.958   .     S
O664   C665    1.263   .     A
C665   C693    1.368   .     S
C666   C694    1.368   .     S
O667   C671    1.269   .     A
O667   Zn673   2.014   .     S
O668   C672    1.271   .     A
O668   Zn674   2.014   .     S
O669   C672    1.269   .     A
O669   Zn673   2.016   .     S
O670   C671    1.267   .     A
O670   Zn674   2.016   .     S
C671   C682    1.422   .     S
C672   C681    1.430   .     S
Zn673  N676    1.976   .     S
Zn674  N675    1.976   .     S
N676   N1071   1.195   .     S
C677   C685    1.402   .     A
C677   N703    1.429   .     S
C677   C681    1.399   .     A
C678   C686    1.404   .     A
C678   C682    1.396   .     A
C678   N709    1.428   .     S
C679   C683    1.408   .     A
C679   C681    1.402   .     A
C679   N715    1.431   .     S
C680   C682    1.394   .     A
C680   C684    1.400   .     A
C680   N721    1.427   .     S
C683   C687    1.423   .     A
C683   C689    1.418   .     A
C684   C690    1.409   .     A
C684   C688    1.420   .     A
C685   C691    1.415   .     A
C685   C687    1.423   .     A
C686   C692    1.410   .     A
C686   C688    1.420   .     A
C687   C754    1.402   .     S
C688   C753    1.402   1_455 S
C689   O695    1.379   .     S
C689   C758    1.407   .     S
C690   O697    1.383   .     S
C690   C757    1.406   1_455 S
C691   O699    1.382   .     S
C691   C756    1.406   .     S
C692   O701    1.383   .     S
C692   C755    1.407   1_455 S
C694   C429    1.167   1_565 S
O695   H696    0.992   .     S
O697   H698    0.990   .     S
O699   H700    0.991   .     S
O701   H702    0.989   .     S
N703   H704    1.030   .     S
N703   C705    1.446   .     S
C705   H706    1.110   .     S
C705   H707    1.110   .     S
C705   H708    1.110   .     S
N709   H710    1.031   .     S
N709   C711    1.447   .     S
C711   H714    1.109   .     S
C711   H712    1.110   .     S
C711   H713    1.111   .     S
N715   H716    1.031   .     S
N715   C717    1.450   .     S
C717   H718    1.110   .     S
C717   H719    1.109   .     S
C717   H720    1.111   .     S
N721   H722    1.031   .     S
N721   C723    1.447   .     S
C723   H725    1.110   .     S
C723   H726    1.111   .     S
C723   H724    1.108   .     S
O727   C731    1.263   .     A
O727   Zn739   1.958   .     S
O728   C732    1.263   .     A
O728   Zn740   1.958   .     S
O729   Zn739   1.958   .     S
O729   C732    1.263   .     A
O730   Zn740   1.958   .     S
O730   C731    1.263   .     A
C731   C759    1.368   .     S
C732   C760    1.368   .     S
O733   C737    1.269   .     A
O733   Zn739   2.014   .     S
O734   C738    1.271   .     A
O734   Zn740   2.014   .     S
O735   C738    1.269   .     A
O735   Zn739   2.016   .     S
O736   C737    1.267   .     A
O736   Zn740   2.016   .     S
C737   C748    1.422   .     S
C738   C747    1.430   .     S
Zn739  N742    1.976   .     S
Zn740  N741    1.976   .     S
N742   N1137   1.195   .     S
C743   C751    1.402   .     A
C743   N769    1.429   .     S
C743   C747    1.399   .     A
C744   C752    1.404   .     A
C744   C748    1.396   .     A
C744   N775    1.428   .     S
C745   C749    1.408   .     A
C745   C747    1.402   .     A
C745   N781    1.431   .     S
C746   C748    1.394   .     A
C746   C750    1.400   .     A
C746   N787    1.427   .     S
C749   C753    1.423   .     A
C749   C755    1.418   .     A
C750   C756    1.409   .     A
C750   C754    1.420   .     A
C751   C757    1.415   .     A
C751   C753    1.423   .     A
C752   C758    1.410   .     A
C752   C754    1.420   .     A
C753   C688    1.402   1_655 S
C755   O761    1.379   .     S
C755   C692    1.407   1_655 S
C756   O763    1.383   .     S
C757   O765    1.382   .     S
C757   C690    1.406   1_655 S
C758   O767    1.383   .     S
C760   C495    1.167   1_565 S
O761   H762    0.992   .     S
O763   H764    0.990   .     S
O765   H766    0.991   .     S
O767   H768    0.989   .     S
N769   H770    1.030   .     S
N769   C771    1.446   .     S
C771   H772    1.110   .     S
C771   H773    1.110   .     S
C771   H774    1.110   .     S
N775   H776    1.031   .     S
N775   C777    1.447   .     S
C777   H780    1.109   .     S
C777   H778    1.110   .     S
C777   H779    1.111   .     S
N781   H782    1.031   .     S
N781   C783    1.450   .     S
C783   H784    1.110   .     S
C783   H785    1.109   .     S
C783   H786    1.111   .     S
N787   H788    1.031   .     S
N787   C789    1.447   .     S
C789   H791    1.110   .     S
C789   H792    1.111   .     S
C789   H790    1.108   .     S
O793   C797    1.263   .     A
O793   Zn805   1.958   .     S
O794   C798    1.263   .     A
O794   Zn806   1.958   .     S
O795   Zn805   1.958   .     S
O795   C798    1.263   .     A
O796   Zn806   1.958   .     S
O796   C797    1.263   .     A
C797   C825    1.368   .     S
C798   C826    1.368   .     S
O799   C803    1.269   .     A
O799   Zn805   2.014   .     S
O800   C804    1.271   .     A
O800   Zn806   2.014   .     S
O801   C804    1.269   .     A
O801   Zn805   2.016   .     S
O802   C803    1.267   .     A
O802   Zn806   2.016   .     S
C803   C814    1.422   .     S
C804   C813    1.430   .     S
Zn805  N808    1.976   .     S
Zn806  N807    1.976   .     S
N808   N15     1.195   1_556 S
C809   C817    1.402   .     A
C809   N835    1.429   .     S
C809   C813    1.399   .     A
C810   C818    1.404   .     A
C810   C814    1.396   .     A
C810   N841    1.428   .     S
C811   C815    1.408   .     A
C811   C813    1.402   .     A
C811   N847    1.431   .     S
C812   C814    1.394   .     A
C812   C816    1.400   .     A
C812   N853    1.427   .     S
C815   C819    1.423   .     A
C815   C821    1.418   .     A
C816   C822    1.409   .     A
C816   C820    1.420   .     A
C817   C823    1.415   .     A
C817   C819    1.423   .     A
C818   C824    1.410   .     A
C818   C820    1.420   .     A
C819   C886    1.402   .     S
C820   C885    1.402   1_455 S
C821   O827    1.379   .     S
C821   C890    1.407   .     S
C822   O829    1.383   .     S
C822   C889    1.406   1_455 S
C823   O831    1.382   .     S
C823   C888    1.406   .     S
C824   O833    1.383   .     S
C824   C887    1.407   1_455 S
C825   C1090   1.167   1_545 S
C826   C957    1.167   .     S
O827   H828    0.992   .     S
O829   H830    0.990   .     S
O831   H832    0.991   .     S
O833   H834    0.989   .     S
N835   H836    1.030   .     S
N835   C837    1.446   .     S
C837   H838    1.110   .     S
C837   H839    1.110   .     S
C837   H840    1.110   .     S
N841   H842    1.031   .     S
N841   C843    1.447   .     S
C843   H846    1.109   .     S
C843   H844    1.110   .     S
C843   H845    1.111   .     S
N847   H848    1.031   .     S
N847   C849    1.450   .     S
C849   H850    1.110   .     S
C849   H851    1.109   .     S
C849   H852    1.111   .     S
N853   H854    1.031   .     S
N853   C855    1.447   .     S
C855   H857    1.110   .     S
C855   H858    1.111   .     S
C855   H856    1.108   .     S
O859   C863    1.263   .     A
O859   Zn871   1.958   .     S
O860   C864    1.263   .     A
O860   Zn872   1.958   .     S
O861   Zn871   1.958   .     S
O861   C864    1.263   .     A
O862   Zn872   1.958   .     S
O862   C863    1.263   .     A
C863   C891    1.368   .     S
C864   C892    1.368   .     S
O865   C869    1.269   .     A
O865   Zn871   2.014   .     S
O866   C870    1.271   .     A
O866   Zn872   2.014   .     S
O867   C870    1.269   .     A
O867   Zn871   2.016   .     S
O868   C869    1.267   .     A
O868   Zn872   2.016   .     S
C869   C880    1.422   .     S
C870   C879    1.430   .     S
Zn871  N874    1.976   .     S
Zn872  N873    1.976   .     S
N874   N81     1.195   1_556 S
C875   C883    1.402   .     A
C875   N901    1.429   .     S
C875   C879    1.399   .     A
C876   C884    1.404   .     A
C876   C880    1.396   .     A
C876   N907    1.428   .     S
C877   C881    1.408   .     A
C877   C879    1.402   .     A
C877   N913    1.431   .     S
C878   C880    1.394   .     A
C878   C882    1.400   .     A
C878   N919    1.427   .     S
C881   C885    1.423   .     A
C881   C887    1.418   .     A
C882   C888    1.409   .     A
C882   C886    1.420   .     A
C883   C889    1.415   .     A
C883   C885    1.423   .     A
C884   C890    1.410   .     A
C884   C886    1.420   .     A
C885   C820    1.402   1_655 S
C887   O893    1.379   .     S
C887   C824    1.407   1_655 S
C888   O895    1.383   .     S
C889   O897    1.382   .     S
C889   C822    1.406   1_655 S
C890   O899    1.383   .     S
C891   C1156   1.167   1_545 S
C892   C1023   1.167   .     S
O893   H894    0.992   .     S
O895   H896    0.990   .     S
O897   H898    0.991   .     S
O899   H900    0.989   .     S
N901   H902    1.030   .     S
N901   C903    1.446   .     S
C903   H904    1.110   .     S
C903   H905    1.110   .     S
C903   H906    1.110   .     S
N907   H908    1.031   .     S
N907   C909    1.447   .     S
C909   H912    1.109   .     S
C909   H910    1.110   .     S
C909   H911    1.111   .     S
N913   H914    1.031   .     S
N913   C915    1.450   .     S
C915   H916    1.110   .     S
C915   H917    1.109   .     S
C915   H918    1.111   .     S
N919   H920    1.031   .     S
N919   C921    1.447   .     S
C921   H923    1.110   .     S
C921   H924    1.111   .     S
C921   H922    1.108   .     S
O925   C929    1.263   .     A
O925   Zn937   1.958   .     S
O926   C930    1.263   .     A
O926   Zn938   1.958   .     S
O927   Zn937   1.958   .     S
O927   C930    1.263   .     A
O928   Zn938   1.958   .     S
O928   C929    1.263   .     A
C929   C957    1.368   .     S
C930   C958    1.368   .     S
O931   C935    1.269   .     A
O931   Zn937   2.014   .     S
O932   C936    1.271   .     A
O932   Zn938   2.014   .     S
O933   C936    1.269   .     A
O933   Zn937   2.016   .     S
O934   C935    1.267   .     A
O934   Zn938   2.016   .     S
C935   C946    1.422   .     S
C936   C945    1.430   .     S
Zn937  N940    1.976   .     S
Zn938  N939    1.976   .     S
N940   N147    1.195   1_556 S
C941   C949    1.402   .     A
C941   N967    1.429   .     S
C941   C945    1.399   .     A
C942   C950    1.404   .     A
C942   C946    1.396   .     A
C942   N973    1.428   .     S
C943   C947    1.408   .     A
C943   C945    1.402   .     A
C943   N979    1.431   .     S
C944   C946    1.394   .     A
C944   C948    1.400   .     A
C944   N985    1.427   .     S
C947   C951    1.423   .     A
C947   C953    1.418   .     A
C948   C954    1.409   .     A
C948   C952    1.420   .     A
C949   C955    1.415   .     A
C949   C951    1.423   .     A
C950   C956    1.410   .     A
C950   C952    1.420   .     A
C951   C1018   1.402   .     S
C952   C1017   1.402   1_455 S
C953   O959    1.379   .     S
C953   C1022   1.407   .     S
C954   O961    1.383   .     S
C954   C1021   1.406   1_455 S
C955   O963    1.382   .     S
C955   C1020   1.406   .     S
C956   O965    1.383   .     S
C956   C1019   1.407   1_455 S
C958   C1089   1.167   .     S
O959   H960    0.992   .     S
O961   H962    0.990   .     S
O963   H964    0.991   .     S
O965   H966    0.989   .     S
N967   H968    1.030   .     S
N967   C969    1.446   .     S
C969   H970    1.110   .     S
C969   H971    1.110   .     S
C969   H972    1.110   .     S
N973   H974    1.031   .     S
N973   C975    1.447   .     S
C975   H978    1.109   .     S
C975   H976    1.110   .     S
C975   H977    1.111   .     S
N979   H980    1.031   .     S
N979   C981    1.450   .     S
C981   H982    1.110   .     S
C981   H983    1.109   .     S
C981   H984    1.111   .     S
N985   H986    1.031   .     S
N985   C987    1.447   .     S
C987   H989    1.110   .     S
C987   H990    1.111   .     S
C987   H988    1.108   .     S
O991   C995    1.263   .     A
O991   Zn1003  1.958   .     S
O992   C996    1.263   .     A
O992   Zn1004  1.958   .     S
O993   Zn1003  1.958   .     S
O993   C996    1.263   .     A
O994   Zn1004  1.958   .     S
O994   C995    1.263   .     A
C995   C1023   1.368   .     S
C996   C1024   1.368   .     S
O997   C1001   1.269   .     A
O997   Zn1003  2.014   .     S
O998   C1002   1.271   .     A
O998   Zn1004  2.014   .     S
O999   C1002   1.269   .     A
O999   Zn1003  2.016   .     S
O1000  C1001   1.267   .     A
O1000  Zn1004  2.016   .     S
C1001  C1012   1.422   .     S
C1002  C1011   1.430   .     S
Zn1003 N1006   1.976   .     S
Zn1004 N1005   1.976   .     S
N1006  N213    1.195   1_556 S
C1007  C1015   1.402   .     A
C1007  N1033   1.429   .     S
C1007  C1011   1.399   .     A
C1008  C1016   1.404   .     A
C1008  C1012   1.396   .     A
C1008  N1039   1.428   .     S
C1009  C1013   1.408   .     A
C1009  C1011   1.402   .     A
C1009  N1045   1.431   .     S
C1010  C1012   1.394   .     A
C1010  C1014   1.400   .     A
C1010  N1051   1.427   .     S
C1013  C1017   1.423   .     A
C1013  C1019   1.418   .     A
C1014  C1020   1.409   .     A
C1014  C1018   1.420   .     A
C1015  C1021   1.415   .     A
C1015  C1017   1.423   .     A
C1016  C1022   1.410   .     A
C1016  C1018   1.420   .     A
C1017  C952    1.402   1_655 S
C1019  O1025   1.379   .     S
C1019  C956    1.407   1_655 S
C1020  O1027   1.383   .     S
C1021  O1029   1.382   .     S
C1021  C954    1.406   1_655 S
C1022  O1031   1.383   .     S
C1024  C1155   1.167   .     S
O1025  H1026   0.992   .     S
O1027  H1028   0.990   .     S
O1029  H1030   0.991   .     S
O1031  H1032   0.989   .     S
N1033  H1034   1.030   .     S
N1033  C1035   1.446   .     S
C1035  H1036   1.110   .     S
C1035  H1037   1.110   .     S
C1035  H1038   1.110   .     S
N1039  H1040   1.031   .     S
N1039  C1041   1.447   .     S
C1041  H1044   1.109   .     S
C1041  H1042   1.110   .     S
C1041  H1043   1.111   .     S
N1045  H1046   1.031   .     S
N1045  C1047   1.450   .     S
C1047  H1048   1.110   .     S
C1047  H1049   1.109   .     S
C1047  H1050   1.111   .     S
N1051  H1052   1.031   .     S
N1051  C1053   1.447   .     S
C1053  H1055   1.110   .     S
C1053  H1056   1.111   .     S
C1053  H1054   1.108   .     S
O1057  C1061   1.263   .     A
O1057  Zn1069  1.958   .     S
O1058  C1062   1.263   .     A
O1058  Zn1070  1.958   .     S
O1059  Zn1069  1.958   .     S
O1059  C1062   1.263   .     A
O1060  Zn1070  1.958   .     S
O1060  C1061   1.263   .     A
C1061  C1089   1.368   .     S
C1062  C1090   1.368   .     S
O1063  C1067   1.269   .     A
O1063  Zn1069  2.014   .     S
O1064  C1068   1.271   .     A
O1064  Zn1070  2.014   .     S
O1065  C1068   1.269   .     A
O1065  Zn1069  2.016   .     S
O1066  C1067   1.267   .     A
O1066  Zn1070  2.016   .     S
C1067  C1078   1.422   .     S
C1068  C1077   1.430   .     S
Zn1069 N1072   1.976   .     S
Zn1070 N1071   1.976   .     S
N1072  N279    1.195   1_556 S
C1073  C1081   1.402   .     A
C1073  N1099   1.429   .     S
C1073  C1077   1.399   .     A
C1074  C1082   1.404   .     A
C1074  C1078   1.396   .     A
C1074  N1105   1.428   .     S
C1075  C1079   1.408   .     A
C1075  C1077   1.402   .     A
C1075  N1111   1.431   .     S
C1076  C1078   1.394   .     A
C1076  C1080   1.400   .     A
C1076  N1117   1.427   .     S
C1079  C1083   1.423   .     A
C1079  C1085   1.418   .     A
C1080  C1086   1.409   .     A
C1080  C1084   1.420   .     A
C1081  C1087   1.415   .     A
C1081  C1083   1.423   .     A
C1082  C1088   1.410   .     A
C1082  C1084   1.420   .     A
C1083  C1150   1.402   .     S
C1084  C1149   1.402   1_455 S
C1085  O1091   1.379   .     S
C1085  C1154   1.407   .     S
C1086  O1093   1.383   .     S
C1086  C1153   1.406   1_455 S
C1087  O1095   1.382   .     S
C1087  C1152   1.406   .     S
C1088  O1097   1.383   .     S
C1088  C1151   1.407   1_455 S
C1090  C825    1.167   1_565 S
O1091  H1092   0.992   .     S
O1093  H1094   0.990   .     S
O1095  H1096   0.991   .     S
O1097  H1098   0.989   .     S
N1099  H1100   1.030   .     S
N1099  C1101   1.446   .     S
C1101  H1102   1.110   .     S
C1101  H1103   1.110   .     S
C1101  H1104   1.110   .     S
N1105  H1106   1.031   .     S
N1105  C1107   1.447   .     S
C1107  H1110   1.109   .     S
C1107  H1108   1.110   .     S
C1107  H1109   1.111   .     S
N1111  H1112   1.031   .     S
N1111  C1113   1.450   .     S
C1113  H1114   1.110   .     S
C1113  H1115   1.109   .     S
C1113  H1116   1.111   .     S
N1117  H1118   1.031   .     S
N1117  C1119   1.447   .     S
C1119  H1121   1.110   .     S
C1119  H1122   1.111   .     S
C1119  H1120   1.108   .     S
O1123  C1127   1.263   .     A
O1123  Zn1135  1.958   .     S
O1124  C1128   1.263   .     A
O1124  Zn1136  1.958   .     S
O1125  Zn1135  1.958   .     S
O1125  C1128   1.263   .     A
O1126  Zn1136  1.958   .     S
O1126  C1127   1.263   .     A
C1127  C1155   1.368   .     S
C1128  C1156   1.368   .     S
O1129  C1133   1.269   .     A
O1129  Zn1135  2.014   .     S
O1130  C1134   1.271   .     A
O1130  Zn1136  2.014   .     S
O1131  C1134   1.269   .     A
O1131  Zn1135  2.016   .     S
O1132  C1133   1.267   .     A
O1132  Zn1136  2.016   .     S
C1133  C1144   1.422   .     S
C1134  C1143   1.430   .     S
Zn1135 N1138   1.976   .     S
Zn1136 N1137   1.976   .     S
N1138  N345    1.195   1_556 S
C1139  C1147   1.402   .     A
C1139  N1165   1.429   .     S
C1139  C1143   1.399   .     A
C1140  C1148   1.404   .     A
C1140  C1144   1.396   .     A
C1140  N1171   1.428   .     S
C1141  C1145   1.408   .     A
C1141  C1143   1.402   .     A
C1141  N1177   1.431   .     S
C1142  C1144   1.394   .     A
C1142  C1146   1.400   .     A
C1142  N1183   1.427   .     S
C1145  C1149   1.423   .     A
C1145  C1151   1.418   .     A
C1146  C1152   1.409   .     A
C1146  C1150   1.420   .     A
C1147  C1153   1.415   .     A
C1147  C1149   1.423   .     A
C1148  C1154   1.410   .     A
C1148  C1150   1.420   .     A
C1149  C1084   1.402   1_655 S
C1151  O1157   1.379   .     S
C1151  C1088   1.407   1_655 S
C1152  O1159   1.383   .     S
C1153  O1161   1.382   .     S
C1153  C1086   1.406   1_655 S
C1154  O1163   1.383   .     S
C1156  C891    1.167   1_565 S
O1157  H1158   0.992   .     S
O1159  H1160   0.990   .     S
O1161  H1162   0.991   .     S
O1163  H1164   0.989   .     S
N1165  H1166   1.030   .     S
N1165  C1167   1.446   .     S
C1167  H1168   1.110   .     S
C1167  H1169   1.110   .     S
C1167  H1170   1.110   .     S
N1171  H1172   1.031   .     S
N1171  C1173   1.447   .     S
C1173  H1176   1.109   .     S
C1173  H1174   1.110   .     S
C1173  H1175   1.111   .     S
N1177  H1178   1.031   .     S
N1177  C1179   1.450   .     S
C1179  H1180   1.110   .     S
C1179  H1181   1.109   .     S
C1179  H1182   1.111   .     S
N1183  H1184   1.031   .     S
N1183  C1185   1.447   .     S
C1185  H1187   1.110   .     S
C1185  H1188   1.111   .     S
C1185  H1186   1.108   .     S
